data_image0
_chemical_formula_structural       FeS2FeS2FeHFeS3FeCSCH8NC6H4C2HCH5CH3NC4H2C3H13C2H7CHC5H2NHC5SCH18C2H3C3HC3H3CH2CH4C2HCH7SHC2FeS2FeSHFeSFeS3H2CHFeSC7H4CH3C3H4C2H5C2HCH2C2HCHCH2C2H4CHCHCNH2NH3CH6C2H3CHCH3CH4CH2CHC3HCH2C2H3CH2CH5CH4CH7CH2CH4CHNHC2H3C2SH4CHCH5CNC2HNCHCH4CHSH3CH2CH3CSCSHC3FeS2FeS2FeSHCH4C8H2NFeHC5H4CH2S2HC4HCFeSNCHC4HCHC2H5CH2CH4CH6CHCH9CSH3CH2CH2NHC2H8CHFeCHCH3CHSH5C2H8CH2C3H5FeS2H2C3HFeHSFeHFeS2FeHC6H5SHS2C2FeC2HCHC2H4CHCS2CH5SCHCH6CH3CHCHCHCHFeC3SH2C3FeH5C2HC3H8SCH2NC5HC4FeCH10SCH10FeHC2SHSH2C2SH3C3HCNCHCH5C2H2FeSH4SHFeHC4H7C2HSCH2CH4SH3FeHC2H10CSFeH5C2H3CHSH2C2HNC4SCHCFeH2C6H4C2H2CH2C3SHCH3C3H3C2H3NHFeCHSHCH2CH2SHCH3NH4SH2SHSHC2HFeS2FeS2FeSFeS3CFeSHSHCHC6H2CHCHCH2C6H4CNH5C2H2CHCHCH2C2H3CH3CHCHCH11CH6C2HCH3CH6CHCH3CHCH3CH2C3H2CH3CH8CH2CNH3CHCHC2H3C2H2CNCHSH3C2H3CHCHCHNH3SH3C2H2FeS2FeS2FeS2FeSFeS3C6H5C7H8CSHCHCH2CHNCHC6HC3H7CH5CHCH2CH7NHCHC2HC6HCH2CH3CHCH7CH3CH2CH4CH2CH2C2HCH3FeHCH2CSH2CH4CH3C2H15CHCH3C4Fe2S2H2CFeS2FeS2FeSFeS3FeS2FeS2FeSFeS3C3H2C3HC2H4CH3C6H5SHC4H3SC6H5SCHSH6C3HC2H2CH4CHNHC3H2C3H2CH9CH4CH3CHFeCFeCH5CHCHC5HCHC2NH4CH3SHNC5HC4HCH11CH16NC3HC3H5CH5CH2CH6C2HC2SH3CH5CHCHSH3CH6CHCHNCH3CHCH11C3HC2HCH2CH2FeS2FeS2FeS2FeSFeS3FeS2FeS2FeSFeS3C6H4C6H4C2H4C2H4C2HC3H2C6H4C4H2SCH4SCH2CHCH5FeCH2CHS2H2CH10CH6CH2FeHCH2CHNCHNCHCH8C3H2C2H2CHCHFeHC2H5CHCH3CHC2HC2H4CHC2H5C4H2C2H2C2NC3H10C2HCH4C4H4CHCH3CHNH4NCHC5HC3HCH3CH5CH3C2H5CH6CH5CH4CH8C2H2CSHCNH2C5HFeS2H2C2H2FeCHCH2CH6C2H2CSCH4CHCH4FeCH2CNHCH13SH5C2HCHS2FeHCHCH4C2H2CH2FeSCHCHCHCHCNH3CHC4H5C2H3CHCH3CH2CH2SH5CH6CH4CHCS2HCH7NC2
_chemical_formula_sum              "Fe72 S144 H1152 C648 N36"
_cell_length_a       55.7651
_cell_length_b       55.5505
_cell_length_c       34.5087
_cell_angle_alpha    89.1071
_cell_angle_beta     91.1717
_cell_angle_gamma    119.933

_space_group_name_H-M_alt    "P 1"
_space_group_IT_number       1

loop_
  _space_group_symop_operation_xyz
  'x, y, z'

loop_
  _atom_site_type_symbol
  _atom_site_label
  _atom_site_symmetry_multiplicity
  _atom_site_fract_x
  _atom_site_fract_y
  _atom_site_fract_z
  _atom_site_occupancy
  Fe  Fe1       1.0  0.41230  0.09785  0.35726  1.0000
  S   S1        1.0  0.44176  0.13716  0.32541  1.0000
  S   S2        1.0  0.42129  0.10415  0.42258  1.0000
  Fe  Fe2       1.0  0.39075  0.06538  0.28001  1.0000
  S   S3        1.0  0.41893  0.10261  0.24465  1.0000
  S   S4        1.0  0.36375  0.02265  0.25195  1.0000
  Fe  Fe3       1.0  0.45140  0.10986  0.28949  1.0000
  H   H1        1.0  0.46571  0.02139  0.06826  1.0000
  Fe  Fe4       1.0  0.40657  0.12658  0.28390  1.0000
  S   S5        1.0  0.39721  0.15793  0.25405  1.0000
  S   S6        1.0  0.42425  0.07115  0.32319  1.0000
  S   S7        1.0  0.37602  0.08873  0.31732  1.0000
  Fe  Fe5       1.0  0.40254  0.30037  0.31487  1.0000
  C   C1        1.0  0.43762  0.04421  0.43279  1.0000
  S   S8        1.0  0.38844  0.25574  0.33478  1.0000
  C   C2        1.0  0.44426  0.05893  0.47188  1.0000
  H   H2        1.0  0.42775  0.18622  0.42717  1.0000
  H   H3        1.0  0.39265  0.16571  0.44348  1.0000
  H   H4        1.0  0.38549  0.99251  0.08889  1.0000
  H   H5        1.0  0.37706  0.05473  0.17938  1.0000
  H   H6        1.0  0.41544  0.04881  0.01264  1.0000
  H   H7        1.0  0.45378  0.30003  0.43597  1.0000
  H   H8        1.0  0.32549  0.29431  0.37169  1.0000
  H   H9        1.0  0.36273  0.06772  0.44442  1.0000
  N   N1        1.0  0.42098  0.00064  0.12527  1.0000
  C   C3        1.0  0.39712  0.18612  0.27751  1.0000
  C   C4        1.0  0.39398  0.18632  0.31761  1.0000
  C   C5        1.0  0.39186  0.20807  0.33473  1.0000
  C   C6        1.0  0.39352  0.23017  0.31213  1.0000
  C   C7        1.0  0.39737  0.23032  0.27220  1.0000
  C   C8        1.0  0.39881  0.20822  0.25496  1.0000
  H   H10       1.0  0.39250  0.16938  0.33527  1.0000
  H   H11       1.0  0.38875  0.20769  0.36558  1.0000
  H   H12       1.0  0.39845  0.24705  0.25444  1.0000
  H   H13       1.0  0.40115  0.20823  0.22392  1.0000
  C   C9        1.0  0.40041  0.11783  0.14167  1.0000
  C   C10       1.0  0.35581  0.01319  0.20218  1.0000
  H   H14       1.0  0.32627  0.04081  0.28444  1.0000
  C   C11       1.0  0.34125  0.99624  0.12362  1.0000
  H   H15       1.0  0.35443  0.23048  0.41589  1.0000
  H   H16       1.0  0.41093  0.04222  0.08374  1.0000
  H   H17       1.0  0.40380  0.24130  0.42757  1.0000
  H   H18       1.0  0.42730  0.01069  0.20811  1.0000
  H   H19       1.0  0.36363  0.04008  0.11063  1.0000
  C   C12       1.0  0.41849  0.03038  0.06712  1.0000
  H   H20       1.0  0.42090  0.13439  0.15248  1.0000
  H   H21       1.0  0.42590  0.05420  0.21413  1.0000
  H   H22       1.0  0.41861  0.15698  0.45893  1.0000
  N   N2        1.0  0.32521  0.08487  0.18236  1.0000
  C   C13       1.0  0.29846  0.06891  0.15962  1.0000
  C   C14       1.0  0.32783  0.11124  0.19864  1.0000
  C   C15       1.0  0.34860  0.09295  0.15431  1.0000
  C   C16       1.0  0.32797  0.06734  0.21416  1.0000
  H   H23       1.0  0.45687  0.05016  0.41671  1.0000
  H   H24       1.0  0.28404  0.04596  0.23190  1.0000
  C   C17       1.0  0.37784  0.11543  0.16851  1.0000
  C   C18       1.0  0.30113  0.11025  0.21288  1.0000
  C   C19       1.0  0.30815  0.13643  0.23565  1.0000
  H   H25       1.0  0.08421  0.28768  0.14062  1.0000
  H   H26       1.0  0.42464  0.05029  0.41495  1.0000
  H   H27       1.0  0.37584  0.21470  0.47409  1.0000
  H   H28       1.0  0.29754  0.08235  0.13596  1.0000
  H   H29       1.0  0.28022  0.06352  0.17764  1.0000
  H   H30       1.0  0.34339  0.11905  0.22281  1.0000
  H   H31       1.0  0.33597  0.12805  0.17626  1.0000
  H   H32       1.0  0.34450  0.10100  0.12664  1.0000
  H   H33       1.0  0.35012  0.07446  0.14630  1.0000
  H   H34       1.0  0.32946  0.04985  0.20160  1.0000
  H   H35       1.0  0.34777  0.07941  0.23053  1.0000
  H   H36       1.0  0.46526  0.00207  0.23808  1.0000
  H   H37       1.0  0.30817  0.07208  0.26520  1.0000
  C   C20       1.0  0.40738  0.02782  0.02567  1.0000
  C   C21       1.0  0.37522  0.07620  0.47039  1.0000
  H   H38       1.0  0.40878  0.02752  0.15217  1.0000
  H   H39       1.0  0.44234  0.04556  0.13297  1.0000
  H   H40       1.0  0.28801  0.10920  0.18755  1.0000
  H   H41       1.0  0.28860  0.09212  0.23167  1.0000
  H   H42       1.0  0.34920  0.18384  0.41917  1.0000
  H   H43       1.0  0.32014  0.15534  0.21754  1.0000
  H   H44       1.0  0.28880  0.13571  0.24470  1.0000
  C   C22       1.0  0.44580  0.99708  0.12015  1.0000
  H   H45       1.0  0.33332  0.30941  0.41930  1.0000
  C   C23       1.0  0.30503  0.05534  0.24500  1.0000
  C   C24       1.0  0.44098  0.02845  0.18927  1.0000
  C   C25       1.0  0.40825  0.00142  0.08632  1.0000
  C   C26       1.0  0.33948  0.18164  0.44780  1.0000
  C   C27       1.0  0.42786  0.02622  0.14849  1.0000
  H   H46       1.0  0.40073  0.09801  0.14113  1.0000
  H   H47       1.0  0.37949  0.13618  0.16934  1.0000
  N   N3        1.0  0.36925  0.26176  0.46060  1.0000
  H   H48       1.0  0.43874  0.28184  0.39105  1.0000
  C   C28       1.0  0.39619  0.27556  0.43900  1.0000
  C   C29       1.0  0.35445  0.27782  0.45171  1.0000
  C   C30       1.0  0.35105  0.23210  0.44731  1.0000
  C   C31       1.0  0.41472  0.17438  0.45216  1.0000
  C   C32       1.0  0.34937  0.28152  0.40818  1.0000
  S   S9        1.0  0.33164  0.98690  0.07412  1.0000
  C   C33       1.0  0.32741  0.29015  0.40284  1.0000
  H   H49       1.0  0.42427  0.05279  0.48585  1.0000
  H   H50       1.0  0.46130  0.02953  0.18687  1.0000
  H   H51       1.0  0.39248  0.27648  0.40755  1.0000
  H   H52       1.0  0.40896  0.29750  0.44815  1.0000
  H   H53       1.0  0.36600  0.29896  0.46453  1.0000
  H   H54       1.0  0.33380  0.26755  0.46557  1.0000
  H   H55       1.0  0.32873  0.22582  0.44898  1.0000
  H   H56       1.0  0.30261  0.01497  0.25060  1.0000
  H   H57       1.0  0.28956  0.02462  0.29137  1.0000
  H   H58       1.0  0.29232  0.02647  0.16380  1.0000
  H   H59       1.0  0.34253  0.26216  0.39160  1.0000
  H   H60       1.0  0.36879  0.29819  0.39532  1.0000
  H   H61       1.0  0.41883  0.25898  0.47303  1.0000
  H   H62       1.0  0.30980  0.04498  0.12055  1.0000
  H   H63       1.0  0.42588  0.02131  0.43690  1.0000
  H   H64       1.0  0.39703  0.12336  0.11179  1.0000
  H   H65       1.0  0.45452  0.26878  0.42493  1.0000
  H   H66       1.0  0.30697  0.27336  0.41282  1.0000
  C   C34       1.0  0.44586  0.05469  0.21000  1.0000
  C   C35       1.0  0.40373  0.09439  0.46737  1.0000
  H   H67       1.0  0.45293  0.99309  0.14864  1.0000
  H   H68       1.0  0.45489  0.08157  0.46578  1.0000
  H   H69       1.0  0.45537  0.05594  0.23905  1.0000
  C   C36       1.0  0.30600  0.03258  0.26924  1.0000
  C   C37       1.0  0.29331  0.04134  0.14117  1.0000
  C   C38       1.0  0.41430  0.26170  0.44239  1.0000
  H   H70       1.0  0.32058  0.13798  0.26208  1.0000
  C   C39       1.0  0.35704  0.02456  0.13340  1.0000
  C   C40       1.0  0.36459  0.03297  0.17232  1.0000
  C   C41       1.0  0.44202  0.27926  0.42238  1.0000
  H   H71       1.0  0.44131  0.04283  0.06619  1.0000
  H   H72       1.0  0.38237  0.11067  0.19794  1.0000
  H   H73       1.0  0.46003  0.07366  0.19332  1.0000
  C   C42       1.0  0.35404  0.20918  0.46959  1.0000
  H   H74       1.0  0.41901  0.21113  0.47799  1.0000
  H   H75       1.0  0.47004  0.01501  0.28672  1.0000
  C   C43       1.0  0.47244  0.00045  0.26766  1.0000
  H   H76       1.0  0.31718  0.17473  0.44326  1.0000
  H   H77       1.0  0.38442  0.01740  0.02558  1.0000
  H   H78       1.0  0.26597  0.04093  0.09469  1.0000
  H   H79       1.0  0.41394  0.01582  0.00757  1.0000
  C   C44       1.0  0.26588  0.02724  0.11857  1.0000
  C   C45       1.0  0.47081  0.02108  0.09946  1.0000
  H   H80       1.0  0.34119  0.16540  0.46477  1.0000
  C   C46       1.0  0.42197  0.19352  0.48711  1.0000
  H   H81       1.0  0.24831  0.02203  0.13805  1.0000
  H   H82       1.0  0.44418  0.20200  0.49456  1.0000
  H   H83       1.0  0.08006  0.30481  0.01325  1.0000
  H   H84       1.0  0.26283  0.00767  0.10568  1.0000
  H   H85       1.0  0.10051  0.30947  0.18216  1.0000
  H   H86       1.0  0.41063  0.98780  0.06516  1.0000
  H   H87       1.0  0.09411  0.31041  0.07392  1.0000
  S   S10       1.0  0.37303  0.31716  0.31171  1.0000
  H   H88       1.0  0.07171  0.30994  0.15828  1.0000
  C   C47       1.0  0.09046  0.30822  0.15355  1.0000
  C   C48       1.0  0.33982  0.98490  0.19242  1.0000
  Fe  Fe6       1.0  0.42396  0.13438  0.69204  1.0000
  S   S11       1.0  0.37870  0.10310  0.69435  1.0000
  S   S12       1.0  0.44343  0.18140  0.68955  1.0000
  Fe  Fe7       1.0  0.43958  0.08881  0.68334  1.0000
  S   S13       1.0  0.39519  0.05465  0.68465  1.0000
  H   H89       1.0  0.36486  0.04952  0.87700  1.0000
  Fe  Fe8       1.0  0.38755  0.08274  0.64458  1.0000
  S   S14       1.0  0.36299  0.06940  0.58757  1.0000
  Fe  Fe9       1.0  0.39132  0.07827  0.73432  1.0000
  S   S15       1.0  0.37509  0.06398  0.79612  1.0000
  S   S16       1.0  0.43204  0.11518  0.64100  1.0000
  S   S17       1.0  0.43652  0.11135  0.73459  1.0000
  H   H90       1.0  0.41756  0.03610  0.88047  1.0000
  H   H91       1.0  0.36250  0.29977  0.81303  1.0000
  C   C49       1.0  0.40865  0.14899  0.88117  1.0000
  H   H92       1.0  0.38652  0.12982  0.76913  1.0000
  Fe  Fe10      1.0  0.40074  0.29589  0.70684  1.0000
  S   S18       1.0  0.38078  0.24910  0.71703  1.0000
  C   C50       1.0  0.35027  0.00557  0.88297  1.0000
  C   C51       1.0  0.39813  0.23050  0.70697  1.0000
  C   C52       1.0  0.38343  0.20130  0.70861  1.0000
  C   C53       1.0  0.39690  0.18591  0.70271  1.0000
  C   C54       1.0  0.42526  0.19964  0.69535  1.0000
  C   C55       1.0  0.43989  0.22879  0.69334  1.0000
  C   C56       1.0  0.42641  0.24415  0.69896  1.0000
  H   H93       1.0  0.36155  0.19055  0.71484  1.0000
  H   H94       1.0  0.38544  0.16349  0.70448  1.0000
  H   H95       1.0  0.33913  0.26255  0.81361  1.0000
  H   H96       1.0  0.43805  0.26660  0.69791  1.0000
  C   C57       1.0  0.41709  0.22158  0.55555  1.0000
  H   H97       1.0  0.41885  0.05177  0.81802  1.0000
  H   H98       1.0  0.27078  0.27093  0.88419  1.0000
  H   H99       1.0  0.42501  0.25667  0.78143  1.0000
  C   C58       1.0  0.23037  0.25134  0.81711  1.0000
  C   C59       1.0  0.37894  0.07932  0.54141  1.0000
  C   C60       1.0  0.40736  0.09749  0.53804  1.0000
  H   H100      1.0  0.07025  0.30536  0.94329  1.0000
  H   H101      1.0  0.42010  0.10541  0.56362  1.0000
  H   H102      1.0  0.41960  0.27268  0.56604  1.0000
  H   H103      1.0  0.43439  0.23386  0.53532  1.0000
  C   C61       1.0  0.36250  0.03149  0.82117  1.0000
  C   C62       1.0  0.35970  0.03064  0.86176  1.0000
  H   H104      1.0  0.35470  0.14334  0.64741  1.0000
  H   H105      1.0  0.42772  0.21224  0.77706  1.0000
  H   H106      1.0  0.43311  0.06698  0.54747  1.0000
  H   H107      1.0  0.40510  0.23179  0.61075  1.0000
  H   H108      1.0  0.37809  0.13449  0.57270  1.0000
  C   C63       1.0  0.44400  0.10163  0.84766  1.0000
  C   C64       1.0  0.27336  0.28977  0.86854  1.0000
  H   H109      1.0  0.46187  0.23962  0.68781  1.0000
  C   C65       1.0  0.44341  0.05578  0.55963  1.0000
  H   H110      1.0  0.47404  0.01054  0.77842  1.0000
  H   H111      1.0  0.43740  0.19317  0.87398  1.0000
  C   C66       1.0  0.41579  0.15137  0.92446  1.0000
  C   C67       1.0  0.41633  0.17767  0.86341  1.0000
  H   H112      1.0  0.21330  0.23694  0.75912  1.0000
  C   C68       1.0  0.43962  0.19492  0.57535  1.0000
  H   H113      1.0  0.44128  0.19736  0.60745  1.0000
  C   C69       1.0  0.26128  0.26386  0.80634  1.0000
  H   H114      1.0  0.39658  0.99807  0.92569  1.0000
  H   H115      1.0  0.41372  0.00583  0.68460  1.0000
  C   C70       1.0  0.40326  0.17801  0.52211  1.0000
  C   C71       1.0  0.32100  0.28681  0.79046  1.0000
  H   H116      1.0  0.33914  0.12335  0.76174  1.0000
  H   H117      1.0  0.41384  0.01593  0.53212  1.0000
  H   H118      1.0  0.34456  0.20560  0.49859  1.0000
  H   H119      1.0  0.41977  0.13962  0.86735  1.0000
  C   C72       1.0  0.42365  0.20895  0.80875  1.0000
  H   H120      1.0  0.26298  0.26753  0.77439  1.0000
  C   C73       1.0  0.45839  0.08483  0.84048  1.0000
  H   H121      1.0  0.43996  0.23777  0.61097  1.0000
  C   C74       1.0  0.21142  0.22841  0.78895  1.0000
  N   N4        1.0  0.28232  0.28985  0.82744  1.0000
  H   H122      1.0  0.43983  0.10930  0.81992  1.0000
  H   H123      1.0  0.42777  0.15067  0.57559  1.0000
  N   N5        1.0  0.41279  0.19258  0.56069  1.0000
  H   H124      1.0  0.44692  0.16937  0.53396  1.0000
  H   H125      1.0  0.34086  0.05469  0.50944  1.0000
  H   H126      1.0  0.40473  0.16016  0.94016  1.0000
  C   C75       1.0  0.36289  0.06882  0.50730  1.0000
  H   H127      1.0  0.34537  0.27297  0.52973  1.0000
  H   H128      1.0  0.44394  0.07024  0.78294  1.0000
  H   H129      1.0  0.42911  0.99584  0.78840  1.0000
  H   H130      1.0  0.40150  0.25777  0.81526  1.0000
  H   H131      1.0  0.42400  0.08855  0.86249  1.0000
  H   H132      1.0  0.38477  0.20965  0.79846  1.0000
  C   C76       1.0  0.44119  0.06054  0.81208  1.0000
  C   C77       1.0  0.43481  0.26984  0.58379  1.0000
  H   H133      1.0  0.43429  0.26228  0.83233  1.0000
  H   H134      1.0  0.18956  0.21934  0.79797  1.0000
  H   H135      1.0  0.37009  0.16099  0.82674  1.0000
  C   C78       1.0  0.42857  0.01547  0.78414  1.0000
  H   H136      1.0  0.30535  0.26918  0.77301  1.0000
  C   C79       1.0  0.43342  0.17118  0.80015  1.0000
  H   H137      1.0  0.25279  0.28824  0.86924  1.0000
  H   H138      1.0  0.33661  0.13224  0.60123  1.0000
  H   H139      1.0  0.34741  0.11072  0.62664  1.0000
  C   C80       1.0  0.46477  0.18940  0.80952  1.0000
  H   H140      1.0  0.43844  0.16476  0.92929  1.0000
  H   H141      1.0  0.39650  0.14594  0.61837  1.0000
  H   H142      1.0  0.45774  0.21411  0.56389  1.0000
  H   H143      1.0  0.38128  0.16962  0.77823  1.0000
  C   C81       1.0  0.42166  0.02440  0.56148  1.0000
  H   H144      1.0  0.32845  0.30609  0.77292  1.0000
  H   H145      1.0  0.22686  0.24193  0.84661  1.0000
  C   C82       1.0  0.40331  0.21959  0.81782  1.0000
  H   H146      1.0  0.39625  0.21523  0.84818  1.0000
  C   C83       1.0  0.37563  0.13037  0.79536  1.0000
  C   C84       1.0  0.38994  0.17766  0.58968  1.0000
  C   C85       1.0  0.38490  0.16097  0.80557  1.0000
  H   H147      1.0  0.21670  0.21158  0.78883  1.0000
  C   C86       1.0  0.47162  0.17503  0.58478  1.0000
  H   H148      1.0  0.44855  0.06296  0.59014  1.0000
  H   H149      1.0  0.38600  0.13471  0.87829  1.0000
  C   C87       1.0  0.38088  0.14690  0.59889  1.0000
  C   C88       1.0  0.35324  0.13258  0.61989  1.0000
  H   H150      1.0  0.45292  0.02833  0.49860  1.0000
  H   H151      1.0  0.33254  0.11267  0.81220  1.0000
  H   H152      1.0  0.32604  0.30915  0.84271  1.0000
  C   C89       1.0  0.37576  0.26430  0.50354  1.0000
  H   H153      1.0  0.39602  0.18819  0.61826  1.0000
  H   H154      1.0  0.37128  0.17869  0.57989  1.0000
  C   C90       1.0  0.44485  0.17079  0.56562  1.0000
  H   H155      1.0  0.43245  0.04234  0.73404  1.0000
  H   H156      1.0  0.35740  0.00692  0.77086  1.0000
  H   H157      1.0  0.47268  0.21113  0.79960  1.0000
  H   H158      1.0  0.40239  0.18382  0.87719  1.0000
  H   H159      1.0  0.46897  0.18930  0.84105  1.0000
  C   C91       1.0  0.35814  0.25338  0.57267  1.0000
  H   H160      1.0  0.45468  0.27887  0.56810  1.0000
  H   H161      1.0  0.33883  0.09224  0.77818  1.0000
  H   H162      1.0  0.30718  0.27249  0.84919  1.0000
  H   H163      1.0  0.40938  0.13041  0.93663  1.0000
  C   C92       1.0  0.41695  0.25097  0.81133  1.0000
  H   H164      1.0  0.26573  0.24659  0.81166  1.0000
  H   H165      1.0  0.47096  0.17677  0.61673  1.0000
  H   H166      1.0  0.39837  0.22066  0.54201  1.0000
  H   H167      1.0  0.42777  0.14939  0.80661  1.0000
  H   H168      1.0  0.37596  0.27323  0.58310  1.0000
  H   H169      1.0  0.40330  0.02673  0.61545  1.0000
  H   H170      1.0  0.22378  0.26711  0.81701  1.0000
  C   C93       1.0  0.30934  0.28964  0.82968  1.0000
  H   H171      1.0  0.43059  0.01244  0.57538  1.0000
  H   H172      1.0  0.43078  0.17185  0.76821  1.0000
  C   C94       1.0  0.34461  0.11377  0.78636  1.0000
  H   H173      1.0  0.40096  0.15699  0.52342  1.0000
  H   H174      1.0  0.39156  0.28615  0.51079  1.0000
  H   H175      1.0  0.38557  0.25199  0.51235  1.0000
  H   H176      1.0  0.44366  0.22337  0.82340  1.0000
  C   C95       1.0  0.39676  0.01945  0.58525  1.0000
  H   H177      1.0  0.38025  0.11948  0.81882  1.0000
  N   N6        1.0  0.41442  0.17912  0.81983  1.0000
  H   H178      1.0  0.38665  0.03058  0.57210  1.0000
  C   C96       1.0  0.41959  0.10515  0.50140  1.0000
  C   C97       1.0  0.35561  0.00679  0.80202  1.0000
  H   H179      1.0  0.44658  0.00538  0.84948  1.0000
  H   H180      1.0  0.35346  0.28023  0.76862  1.0000
  H   H181      1.0  0.38212  0.17421  0.51463  1.0000
  C   C98       1.0  0.34552  0.28207  0.79705  1.0000
  C   C99       1.0  0.42395  0.23913  0.59305  1.0000
  S   S19       1.0  0.47052  0.07590  0.66729  1.0000
  H   H182      1.0  0.34018  0.24824  0.59132  1.0000
  H   H183      1.0  0.36327  0.23652  0.57576  1.0000
  H   H184      1.0  0.29420  0.31530  0.77543  1.0000
  H   H185      1.0  0.46307  0.03850  0.87084  1.0000
  C   C100      1.0  0.44543  0.02477  0.85144  1.0000
  H   H186      1.0  0.46170  0.07756  0.86905  1.0000
  C   C101      1.0  0.46282  0.05139  0.49749  1.0000
  H   H187      1.0  0.33247  0.23665  0.52136  1.0000
  H   H188      1.0  0.43854  0.28149  0.61121  1.0000
  H   H189      1.0  0.34832  0.00535  0.91412  1.0000
  H   H190      1.0  0.38134  0.99691  0.58612  1.0000
  H   H191      1.0  0.24683  0.30486  0.78090  1.0000
  C   C102      1.0  0.29271  0.31547  0.89354  1.0000
  N   N7        1.0  0.44839  0.03773  0.81172  1.0000
  C   C103      1.0  0.41820  0.01714  0.87256  1.0000
  C   C104      1.0  0.35094  0.25634  0.53052  1.0000
  H   H192      1.0  0.45734  0.11973  0.86631  1.0000
  N   N8        1.0  0.46944  0.06332  0.53787  1.0000
  C   C105      1.0  0.28737  0.31556  0.80542  1.0000
  H   H193      1.0  0.45287  0.02574  0.73048  1.0000
  C   C106      1.0  0.43280  0.02293  0.74033  1.0000
  H   H194      1.0  0.43345  0.01165  0.92905  1.0000
  H   H195      1.0  0.40688  0.00968  0.79056  1.0000
  H   H196      1.0  0.40008  0.00422  0.85376  1.0000
  H   H197      1.0  0.44160  0.11935  0.49938  1.0000
  C   C107      1.0  0.41003  0.99995  0.71574  1.0000
  H   H198      1.0  0.47423  0.10298  0.52009  1.0000
  S   S20       1.0  0.37750  0.31219  0.67118  1.0000
  H   H199      1.0  0.38944  0.99697  0.72329  1.0000
  H   H200      1.0  0.27911  0.29387  0.94913  1.0000
  H   H201      1.0  0.47423  0.02850  0.55624  1.0000
  C   C108      1.0  0.28132  0.31274  0.93428  1.0000
  H   H202      1.0  0.31367  0.31805  0.89697  1.0000
  H   H203      1.0  0.26096  0.31183  0.93308  1.0000
  C   C109      1.0  0.41492  0.00072  0.90987  1.0000
  H   H204      1.0  0.47544  0.15725  0.79863  1.0000
  H   H205      1.0  0.47420  0.15693  0.57858  1.0000
  H   H206      1.0  0.07561  0.34612  0.03088  1.0000
  C   C110      1.0  0.98281  0.45930  0.05256  1.0000
  S   S21       1.0  0.09484  0.60327  0.03785  1.0000
  C   C111      1.0  0.09121  0.32480  0.99732  1.0000
  S   S22       1.0  0.42850  0.32764  0.26599  1.0000
  H   H207      1.0  0.18598  0.44831  0.01325  1.0000
  C   C112      1.0  0.09761  0.33016  0.08676  1.0000
  C   C113      1.0  0.99902  0.63556  0.15131  1.0000
  C   C114      1.0  0.99303  0.64477  0.18573  1.0000
  Fe  Fe11      1.0  0.31480  0.40685  0.03810  1.0000
  S   S23       1.0  0.32049  0.39817  0.10238  1.0000
  S   S24       1.0  0.29797  0.43597  0.02651  1.0000
  Fe  Fe12      1.0  0.03537  0.40042  0.03116  1.0000
  S   S25       1.0  0.02384  0.38900  0.09506  1.0000
  S   S26       1.0  0.42989  0.33092  0.36012  1.0000
  Fe  Fe13      1.0  0.45311  0.35955  0.31138  1.0000
  S   S27       1.0  0.42713  0.38004  0.30845  1.0000
  H   H208      1.0  0.09600  0.48037  0.13995  1.0000
  C   C115      1.0  0.11070  0.33175  0.12726  1.0000
  H   H209      1.0  0.19436  0.36935  0.03243  1.0000
  H   H210      1.0  0.98693  0.59996  0.11527  1.0000
  H   H211      1.0  0.17474  0.39528  0.06712  1.0000
  H   H212      1.0  0.11657  0.35155  0.14202  1.0000
  C   C116      1.0  0.34048  0.38638  0.12951  1.0000
  C   C117      1.0  0.33937  0.38572  0.17033  1.0000
  C   C118      1.0  0.35470  0.37656  0.19319  1.0000
  C   C119      1.0  0.37158  0.36801  0.17554  1.0000
  C   C120      1.0  0.37291  0.36895  0.13472  1.0000
  C   C121      1.0  0.35739  0.37787  0.11187  1.0000
  C   C122      1.0  0.98032  0.45962  0.00847  1.0000
  C   C123      1.0  0.43313  0.47750  0.14071  1.0000
  H   H213      1.0  0.13727  0.33369  0.04589  1.0000
  H   H214      1.0  0.35831  0.37790  0.08061  1.0000
  N   N9        1.0  0.11396  0.35414  0.05949  1.0000
  Fe  Fe14      1.0  0.40071  0.34673  0.26508  1.0000
  H   H215      1.0  0.00792  0.48733  0.18451  1.0000
  C   C124      1.0  0.00049  0.46522  0.17783  1.0000
  C   C125      1.0  0.47330  0.40837  0.21784  1.0000
  C   C126      1.0  0.16683  0.37285  0.07318  1.0000
  C   C127      1.0  0.42679  0.44210  0.19325  1.0000
  C   C128      1.0  0.18986  0.36663  0.06388  1.0000
  H   H216      1.0  0.01161  0.55774  0.10453  1.0000
  H   H217      1.0  0.45138  0.40226  0.21169  1.0000
  H   H218      1.0  0.38577  0.36232  0.12062  1.0000
  H   H219      1.0  0.19048  0.65009  0.02976  1.0000
  C   C129      1.0  0.01223  0.51893  0.10310  1.0000
  H   H220      1.0  0.44641  0.43974  0.39195  1.0000
  H   H221      1.0  0.02749  0.48509  0.04648  1.0000
  S   S28       1.0  0.38902  0.36054  0.41112  1.0000
  S   S29       1.0  0.39177  0.35640  0.20260  1.0000
  H   H222      1.0  0.07648  0.32706  0.09067  1.0000
  C   C130      1.0  0.99112  0.37299  0.16004  1.0000
  C   C131      1.0  0.99317  0.38099  0.12074  1.0000
  C   C132      1.0  0.99165  0.53892  0.21153  1.0000
  C   C133      1.0  0.41098  0.42844  0.03096  1.0000
  H   H223      1.0  0.00795  0.37152  0.17381  1.0000
  C   C134      1.0  0.40035  0.35565  0.45762  1.0000
  Fe  Fe15      1.0  0.40218  0.34906  0.35509  1.0000
  S   S30       1.0  0.35096  0.43012  0.99895  1.0000
  N   N10       1.0  0.42191  0.48566  0.10561  1.0000
  C   C135      1.0  0.39263  0.47922  0.11280  1.0000
  H   H224      1.0  0.00270  0.52813  0.22253  1.0000
  C   C136      1.0  0.43952  0.51674  0.09958  1.0000
  C   C137      1.0  0.42381  0.47169  0.06964  1.0000
  C   C138      1.0  0.40667  0.43966  0.06885  1.0000
  C   C139      1.0  0.37889  0.48858  0.08103  1.0000
  H   H225      1.0  0.37094  0.36222  0.48863  1.0000
  C   C140      1.0  0.41206  0.45220  0.16526  1.0000
  H   H226      1.0  0.45375  0.46452  0.43038  1.0000
  C   C141      1.0  0.44516  0.44219  0.42363  1.0000
  C   C142      1.0  0.34974  0.48127  0.09275  1.0000
  H   H227      1.0  0.39758  0.43430  0.14733  1.0000
  H   H228      1.0  0.39205  0.48903  0.14045  1.0000
  H   H229      1.0  0.37843  0.45658  0.11685  1.0000
  H   H230      1.0  0.99330  0.50839  0.12079  1.0000
  H   H231      1.0  0.04094  0.51450  0.14201  1.0000
  C   C143      1.0  0.42173  0.34957  0.46159  1.0000
  H   H232      1.0  0.43338  0.52334  0.07230  1.0000
  H   H233      1.0  0.41794  0.47968  0.04364  1.0000
  C   C144      1.0  0.09641  0.34957  0.02336  1.0000
  H   H234      1.0  0.38427  0.43232  0.07143  1.0000
  H   H235      1.0  0.41342  0.43058  0.09249  1.0000
  H   H236      1.0  0.39049  0.51136  0.07633  1.0000
  H   H237      1.0  0.37726  0.47810  0.05326  1.0000
  C   C145      1.0  0.10396  0.41197  0.10753  1.0000
  H   H238      1.0  0.01562  0.45942  0.18945  1.0000
  H   H239      1.0  0.39939  0.45825  0.18272  1.0000
  H   H240      1.0  0.35338  0.37605  0.22444  1.0000
  H   H241      1.0  0.22623  0.63825  0.01438  1.0000
  H   H242      1.0  0.07881  0.45057  0.10841  1.0000
  H   H243      1.0  0.44557  0.47702  0.06497  1.0000
  C   C146      1.0  0.02627  0.55011  0.11110  1.0000
  H   H244      1.0  0.10752  0.48249  0.09088  1.0000
  C   C147      1.0  0.08141  0.52659  0.00938  1.0000
  H   H245      1.0  0.33650  0.45850  0.09691  1.0000
  H   H246      1.0  0.35038  0.49193  0.12003  1.0000
  H   H247      1.0  0.34029  0.48813  0.06963  1.0000
  H   H248      1.0  0.45796  0.43240  0.47752  1.0000
  H   H249      1.0  0.44284  0.49495  0.16180  1.0000
  H   H250      1.0  0.08184  0.38268  0.06284  1.0000
  H   H251      1.0  0.01538  0.44998  0.05953  1.0000
  H   H252      1.0  0.14658  0.36417  0.01832  1.0000
  H   H253      1.0  0.04465  0.56177  0.09241  1.0000
  C   C148      1.0  0.03209  0.50769  0.11236  1.0000
  S   S31       1.0  0.03064  0.61633  0.03056  1.0000
  H   H254      1.0  0.11519  0.42922  0.08649  1.0000
  H   H255      1.0  0.05011  0.47754  0.15045  1.0000
  H   H256      1.0  0.04978  0.51931  0.09251  1.0000
  C   C149      1.0  0.01286  0.46822  0.06608  1.0000
  H   H257      1.0  0.42296  0.43070  0.43164  1.0000
  H   H258      1.0  0.06396  0.47715  0.06466  1.0000
  C   C150      1.0  0.08906  0.47355  0.10968  1.0000
  H   H259      1.0  0.98784  0.43739  0.12896  1.0000
  H   H260      1.0  0.08189  0.36756  0.10950  1.0000
  N   N11       1.0  0.02043  0.47680  0.10805  1.0000
  H   H261      1.0  0.13385  0.38693  0.10238  1.0000
  C   C151      1.0  0.09179  0.55284  0.02670  1.0000
  C   C152      1.0  0.06910  0.48319  0.09545  1.0000
  H   H262      1.0  0.08538  0.41245  0.11733  1.0000
  H   H263      1.0  0.43617  0.52792  0.12357  1.0000
  H   H264      1.0  0.11746  0.41497  0.13323  1.0000
  H   H265      1.0  0.14950  0.64396  0.00334  1.0000
  H   H266      1.0  0.03403  0.44719  0.12104  1.0000
  H   H267      1.0  0.00516  0.56161  0.21617  1.0000
  H   H268      1.0  0.43263  0.43270  0.02930  1.0000
  H   H269      1.0  0.13223  0.39868  0.05530  1.0000
  C   C153      1.0  0.09483  0.38404  0.08841  1.0000
  H   H270      1.0  0.98762  0.53533  0.17991  1.0000
  Fe  Fe16      1.0  0.07569  0.63035  0.02463  1.0000
  C   C154      1.0  0.04266  0.47019  0.12049  1.0000
  H   H271      1.0  0.10880  0.56009  0.04736  1.0000
  C   C155      1.0  0.12020  0.38162  0.07642  1.0000
  H   H272      1.0  0.08038  0.50618  0.09712  1.0000
  H   H273      1.0  0.20909  0.38112  0.07995  1.0000
  H   H274      1.0  0.03293  0.55458  0.14196  1.0000
  C   C156      1.0  0.14050  0.35511  0.04792  1.0000
  H   H275      1.0  0.43785  0.43368  0.17678  1.0000
  S   S32       1.0  0.07540  0.43987  0.01990  1.0000
  H   H276      1.0  0.41133  0.42511  0.21179  1.0000
  H   H277      1.0  0.16290  0.36940  0.10458  1.0000
  H   H278      1.0  0.45067  0.40801  0.43876  1.0000
  H   H279      1.0  0.39685  0.40561  0.02970  1.0000
  H   H280      1.0  0.12917  0.32934  0.12457  1.0000
  C   C157      1.0  0.46074  0.43026  0.44628  1.0000
  C   C158      1.0  0.47123  0.52849  0.09607  1.0000
  H   H281      1.0  0.40653  0.43808  0.00545  1.0000
  H   H282      1.0  0.99353  0.48102  0.99705  1.0000
  H   H283      1.0  0.32636  0.39215  0.18444  1.0000
  H   H284      1.0  0.97827  0.46326  0.12560  1.0000
  H   H285      1.0  0.45006  0.47364  0.13202  1.0000
  H   H286      1.0  0.43215  0.34860  0.43623  1.0000
  H   H287      1.0  0.44163  0.45921  0.21230  1.0000
  H   H288      1.0  0.10593  0.36850  0.00476  1.0000
  C   C159      1.0  0.08060  0.56995  0.01689  1.0000
  H   H289      1.0  0.22391  0.43747  0.00548  1.0000
  H   H290      1.0  0.09055  0.51385  0.01644  1.0000
  C   C160      1.0  0.98274  0.60747  0.14158  1.0000
  C   C161      1.0  0.38746  0.35740  0.49129  1.0000
  C   C162      1.0  0.99574  0.45996  0.13359  1.0000
  H   H291      1.0  0.00658  0.51631  0.07183  1.0000
  H   H292      1.0  0.18385  0.34502  0.07249  1.0000
  H   H293      1.0  0.47519  0.40385  0.24887  1.0000
  H   H294      1.0  0.97731  0.45171  0.23133  1.0000
  H   H295      1.0  0.98671  0.44560  0.99542  1.0000
  Fe  Fe17      1.0  0.32355  0.40280  0.95060  1.0000
  S   S33       1.0  0.34538  0.38454  0.91540  1.0000
  S   S34       1.0  0.30788  0.43190  0.93335  1.0000
  H   H296      1.0  0.99046  0.53605  0.88531  1.0000
  H   H297      1.0  0.18787  0.63960  0.98055  1.0000
  C   C163      1.0  0.98534  0.61792  0.88648  1.0000
  C   C164      1.0  0.05981  0.51735  0.98205  1.0000
  C   C165      1.0  0.00957  0.53156  0.74417  1.0000
  H   H298      1.0  0.37123  0.51933  0.90213  1.0000
  Fe  Fe18      1.0  0.02413  0.38852  0.94292  1.0000
  H   H299      1.0  0.33888  0.39149  0.77257  1.0000
  S   S35       1.0  0.06393  0.42720  0.92679  1.0000
  Fe  Fe19      1.0  0.39240  0.34649  0.71596  1.0000
  H   H300      1.0  0.43868  0.44245  0.94334  1.0000
  Fe  Fe20      1.0  0.45008  0.35426  0.71868  1.0000
  S   S36       1.0  0.99951  0.61785  0.93351  1.0000
  S   S37       1.0  0.43124  0.37466  0.68260  1.0000
  Fe  Fe21      1.0  0.05246  0.44825  0.97240  1.0000
  H   H301      1.0  0.46490  0.50662  0.91383  1.0000
  C   C166      1.0  0.35244  0.38108  0.86629  1.0000
  C   C167      1.0  0.36788  0.36797  0.85863  1.0000
  C   C168      1.0  0.37283  0.36325  0.82028  1.0000
  C   C169      1.0  0.36223  0.37144  0.78892  1.0000
  C   C170      1.0  0.34724  0.38506  0.79656  1.0000
  C   C171      1.0  0.34254  0.39007  0.83496  1.0000
  H   H302      1.0  0.37578  0.36104  0.88262  1.0000
  H   H303      1.0  0.38448  0.35286  0.81502  1.0000
  H   H304      1.0  0.33067  0.40022  0.84032  1.0000
  H   H305      1.0  0.98389  0.49588  0.84606  1.0000
  H   H306      1.0  0.33821  0.48968  0.89006  1.0000
  S   S38       1.0  0.22725  0.39411  0.96010  1.0000
  H   H307      1.0  0.44396  0.39063  0.77244  1.0000
  S   S39       1.0  0.42758  0.33850  0.57704  1.0000
  S   S40       1.0  0.36629  0.36438  0.73994  1.0000
  C   C172      1.0  0.15355  0.39455  0.95078  1.0000
  C   C173      1.0  0.12422  0.61645  0.94074  1.0000
  Fe  Fe22      1.0  0.03595  0.64227  0.97659  1.0000
  C   C174      1.0  0.41077  0.55090  0.98962  1.0000
  C   C175      1.0  0.04863  0.53444  0.97245  1.0000
  H   H308      1.0  0.02185  0.55251  0.73109  1.0000
  C   C176      1.0  0.98395  0.56922  0.74153  1.0000
  H   H309      1.0  0.45002  0.51038  0.97954  1.0000
  C   C177      1.0  0.98771  0.53009  0.77241  1.0000
  C   C178      1.0  0.18277  0.43152  0.99445  1.0000
  H   H310      1.0  0.00450  0.62635  0.74135  1.0000
  H   H311      1.0  0.42809  0.41195  0.77630  1.0000
  H   H312      1.0  0.03214  0.52757  0.95113  1.0000
  H   H313      1.0  0.28549  0.36562  0.80399  1.0000
  C   C179      1.0  0.99321  0.37020  0.82419  1.0000
  H   H314      1.0  0.99741  0.37746  0.76231  1.0000
  C   C180      1.0  0.20446  0.42542  0.99008  1.0000
  S   S41       1.0  0.35914  0.50443  0.98453  1.0000
  S   S42       1.0  0.44046  0.32089  0.67542  1.0000
  C   C181      1.0  0.46590  0.52145  0.89116  1.0000
  H   H315      1.0  0.01525  0.38174  0.83000  1.0000
  H   H316      1.0  0.30491  0.33422  0.81880  1.0000
  H   H317      1.0  0.38529  0.35365  0.55401  1.0000
  H   H318      1.0  0.45849  0.53490  0.90323  1.0000
  H   H319      1.0  0.40475  0.41536  0.92798  1.0000
  S   S43       1.0  0.04607  0.48493  0.95852  1.0000
  C   C182      1.0  0.39571  0.52185  0.98577  1.0000
  H   H320      1.0  0.43514  0.41510  0.91205  1.0000
  C   C183      1.0  0.41667  0.34595  0.53201  1.0000
  H   H321      1.0  0.03455  0.63572  0.77151  1.0000
  H   H322      1.0  0.28186  0.35189  0.75560  1.0000
  H   H323      1.0  0.99015  0.42701  0.91903  1.0000
  H   H324      1.0  0.16594  0.64896  0.92971  1.0000
  H   H325      1.0  0.13012  0.60414  0.96037  1.0000
  H   H326      1.0  0.04518  0.52558  0.74418  1.0000
  C   C184      1.0  0.98300  0.36759  0.78569  1.0000
  H   H327      1.0  0.97953  0.53033  0.67857  1.0000
  H   H328      1.0  0.25282  0.35139  0.77855  1.0000
  H   H329      1.0  0.10418  0.61396  0.95018  1.0000
  C   C185      1.0  0.44320  0.40682  0.78995  1.0000
  H   H330      1.0  0.98732  0.51689  0.92933  1.0000
  C   C186      1.0  0.00545  0.59142  0.76968  1.0000
  H   H331      1.0  0.99929  0.51602  0.72088  1.0000
  C   C187      1.0  0.02978  0.52454  0.76506  1.0000
  H   H332      1.0  0.36075  0.51102  0.85191  1.0000
  C   C188      1.0  0.99077  0.49750  0.87669  1.0000
  H   H333      1.0  0.04108  0.53961  0.78868  1.0000
  Fe  Fe23      1.0  0.33304  0.45730  0.98462  1.0000
  C   C189      1.0  0.01988  0.62013  0.75050  1.0000
  C   C190      1.0  0.45419  0.55086  0.98538  1.0000
  C   C191      1.0  0.01109  0.45945  0.85887  1.0000
  S   S44       1.0  0.01207  0.41029  0.98640  1.0000
  H   H334      1.0  0.99560  0.57079  0.71508  1.0000
  H   H335      1.0  0.39867  0.48505  0.97912  1.0000
  C   C192      1.0  0.39553  0.35252  0.52838  1.0000
  C   C193      1.0  0.01936  0.44004  0.83883  1.0000
  C   C194      1.0  0.05023  0.45537  0.82977  1.0000
  Fe  Fe24      1.0  0.41804  0.33884  0.64124  1.0000
  H   H336      1.0  0.12140  0.60804  0.91098  1.0000
  H   H337      1.0  0.99846  0.54174  0.79920  1.0000
  H   H338      1.0  0.45019  0.45903  0.87604  1.0000
  H   H339      1.0  0.01689  0.47724  0.83870  1.0000
  H   H340      1.0  0.02502  0.46815  0.88461  1.0000
  C   C195      1.0  0.41002  0.50735  0.98230  1.0000
  C   C196      1.0  0.15705  0.41620  0.97492  1.0000
  H   H341      1.0  0.46734  0.40345  0.50832  1.0000
  C   C197      1.0  0.17519  0.38837  0.94654  1.0000
  C   C198      1.0  0.05882  0.56052  0.98991  1.0000
  C   C199      1.0  0.97946  0.46831  0.89540  1.0000
  H   H342      1.0  0.02171  0.58639  0.77842  1.0000
  H   H343      1.0  0.01548  0.42230  0.85796  1.0000
  H   H344      1.0  0.00811  0.43252  0.81089  1.0000
  H   H345      1.0  0.05540  0.47287  0.80931  1.0000
  H   H346      1.0  0.06283  0.46353  0.85676  1.0000
  H   H347      1.0  0.05573  0.44079  0.81622  1.0000
  H   H348      1.0  0.01378  0.50889  0.87771  1.0000
  H   H349      1.0  0.17197  0.37154  0.92782  1.0000
  S   S45       1.0  0.98650  0.35955  0.90430  1.0000
  C   C200      1.0  0.20094  0.40372  0.96601  1.0000
  H   H350      1.0  0.13416  0.38252  0.93529  1.0000
  H   H351      1.0  0.43583  0.39814  0.81932  1.0000
  N   N12       1.0  0.41855  0.48515  0.86012  1.0000
  C   C201      1.0  0.44890  0.50594  0.85451  1.0000
  C   C202      1.0  0.40483  0.47121  0.82202  1.0000
  C   C203      1.0  0.40486  0.50111  0.87342  1.0000
  C   C204      1.0  0.41423  0.46372  0.89071  1.0000
  C   C205      1.0  0.42803  0.44604  0.88317  1.0000
  H   H352      1.0  0.29453  0.33467  0.88047  1.0000
  C   C206      1.0  0.37322  0.48362  0.88053  1.0000
  C   C207      1.0  0.42326  0.46809  0.79163  1.0000
  C   C208      1.0  0.40645  0.45179  0.75623  1.0000
  C   C209      1.0  0.42652  0.42873  0.91888  1.0000
  Fe  Fe25      1.0  0.27335  0.40864  0.97655  1.0000
  C   C210      1.0  0.36015  0.50211  0.88114  1.0000
  H   H353      1.0  0.45105  0.52200  0.83288  1.0000
  H   H354      1.0  0.45996  0.49599  0.84219  1.0000
  H   H355      1.0  0.38676  0.45012  0.82738  1.0000
  H   H356      1.0  0.39597  0.48287  0.80660  1.0000
  H   H357      1.0  0.40871  0.51796  0.85215  1.0000
  H   H358      1.0  0.41396  0.51181  0.90128  1.0000
  H   H359      1.0  0.42096  0.47357  0.91970  1.0000
  H   H360      1.0  0.39175  0.44854  0.89398  1.0000
  H   H361      1.0  0.01860  0.50319  0.77739  1.0000
  H   H362      1.0  0.41705  0.43143  0.85898  1.0000
  S   S46       1.0  0.12992  0.42436  0.98284  1.0000
  C   C211      1.0  0.27131  0.34909  0.78367  1.0000
  H   H363      1.0  0.36956  0.47291  0.90912  1.0000
  H   H364      1.0  0.36213  0.46755  0.85812  1.0000
  H   H365      1.0  0.43925  0.48887  0.78099  1.0000
  H   H366      1.0  0.43367  0.45722  0.80420  1.0000
  H   H367      1.0  0.39125  0.43017  0.76453  1.0000
  H   H368      1.0  0.39532  0.46174  0.74260  1.0000
  H   H369      1.0  0.42042  0.45097  0.73446  1.0000
  H   H370      1.0  0.47061  0.44761  0.81215  1.0000
  H   H371      1.0  0.03161  0.62023  0.72482  1.0000
  H   H372      1.0  0.29587  0.33114  0.95167  1.0000
  Fe  Fe26      1.0  0.08449  0.41571  0.97592  1.0000
  H   H373      1.0  0.39979  0.56227  0.99232  1.0000
  C   C212      1.0  0.98603  0.63899  0.82352  1.0000
  C   C213      1.0  0.43911  0.52178  0.98232  1.0000
  S   S47       1.0  0.04508  0.37548  0.98952  1.0000
  H   H374      1.0  0.99565  0.59325  0.79616  1.0000
  S   S48       1.0  0.28770  0.37752  0.99083  1.0000
  H   H375      1.0  0.05010  0.57354  0.98203  1.0000
  H   H376      1.0  0.45134  0.58780  0.99183  1.0000
  C   C214      1.0  0.14659  0.64710  0.94095  1.0000
  C   C215      1.0  0.99822  0.64016  0.86035  1.0000
  S   S49       1.0  0.41209  0.32778  0.75378  1.0000
  H   H377      1.0  0.08395  0.34239  0.94433  1.0000
  H   H378      1.0  0.99094  0.47130  0.92340  1.0000
  H   H379      1.0  0.46600  0.44508  0.73548  1.0000
  C   C216      1.0  0.98105  0.51489  0.89827  1.0000
  C   C217      1.0  0.42969  0.34459  0.49841  1.0000
  C   C218      1.0  0.47195  0.43256  0.79302  1.0000
  H   H380      1.0  0.44608  0.33958  0.50093  1.0000
  C   C219      1.0  0.43994  0.56540  0.98950  1.0000
  N   N13       1.0  0.98129  0.44691  0.87099  1.0000
  C   C220      1.0  0.07351  0.32294  0.96181  1.0000
  H   H381      1.0  0.05296  0.31942  0.97075  1.0000
  C   C221      1.0  0.26246  0.32042  0.80102  1.0000
  H   H382      1.0  0.47501  0.39634  0.57717  1.0000
  H   H383      1.0  0.25277  0.31922  0.82923  1.0000
  H   H384      1.0  0.11090  0.32716  0.98657  1.0000
  H   H385      1.0  0.00539  0.66638  0.19375  1.0000
  H   H386      1.0  0.99609  0.72421  0.10056  1.0000
  C   C222      1.0  0.08767  0.77573  0.03005  1.0000
  C   C223      1.0  0.44758  0.92508  0.03725  1.0000
  H   H387      1.0  0.04298  0.71760  0.07307  1.0000
  H   H388      1.0  0.37698  0.94787  0.09864  1.0000
  Fe  Fe27      1.0  0.32414  0.94850  0.03928  1.0000
  S   S50       1.0  0.32291  0.90932  0.06005  1.0000
  H   H389      1.0  0.19510  0.71978  0.03103  1.0000
  H   H390      1.0  0.13313  0.76085  0.12168  1.0000
  H   H391      1.0  0.04510  0.75061  0.07511  1.0000
  H   H392      1.0  0.03732  0.74760  0.14387  1.0000
  S   S51       1.0  0.39991  0.92828  0.03517  1.0000
  H   H393      1.0  0.34695  0.92878  0.15607  1.0000
  Fe  Fe28      1.0  0.35629  0.91911  0.01630  1.0000
  H   H394      1.0  0.45342  0.77329  0.05389  1.0000
  C   C224      1.0  0.42054  0.91363  0.02174  1.0000
  C   C225      1.0  0.45489  0.89130  0.00306  1.0000
  C   C226      1.0  0.38660  0.94731  0.12679  1.0000
  C   C227      1.0  0.11976  0.73830  0.11614  1.0000
  H   H395      1.0  0.19175  0.68117  0.06885  1.0000
  H   H396      1.0  0.45525  0.94244  0.05688  1.0000
  H   H397      1.0  0.08046  0.72412  0.14467  1.0000
  H   H398      1.0  0.10492  0.80081  0.21437  1.0000
  H   H399      1.0  0.08757  0.73710  0.03986  1.0000
  H   H400      1.0  0.45496  0.80584  0.06199  1.0000
  H   H401      1.0  0.24203  0.67449  0.02662  1.0000
  C   C228      1.0  0.17979  0.76771  0.03779  1.0000
  C   C229      1.0  0.20648  0.79132  0.04400  1.0000
  H   H402      1.0  0.15460  0.66091  0.06098  1.0000
  S   S52       1.0  0.35856  0.95905  0.99767  1.0000
  C   C230      1.0  0.41087  0.89107  0.99654  1.0000
  H   H403      1.0  0.17145  0.75118  0.05907  1.0000
  H   H404      1.0  0.21804  0.79249  0.07014  1.0000
  C   C231      1.0  0.36402  0.92436  0.15133  1.0000
  H   H405      1.0  0.08628  0.80778  0.17675  1.0000
  H   H406      1.0  0.06589  0.76420  0.01942  1.0000
  H   H407      1.0  0.16600  0.68322  0.12458  1.0000
  H   H408      1.0  0.15859  0.70394  0.02452  1.0000
  S   S53       1.0  0.08987  0.66788  0.06242  1.0000
  H   H409      1.0  0.35534  0.90423  0.13593  1.0000
  H   H410      1.0  0.32012  0.95464  0.14655  1.0000
  H   H411      1.0  0.18620  0.71708  0.10260  1.0000
  Fe  Fe29      1.0  0.29128  0.88676  0.01149  1.0000
  H   H412      1.0  0.07623  0.75865  0.17623  1.0000
  C   C232      1.0  0.10285  0.80257  0.18251  1.0000
  C   C233      1.0  0.33270  0.97645  0.15344  1.0000
  H   H413      1.0  0.12124  0.72688  0.17655  1.0000
  H   H414      1.0  0.99069  0.70632  0.14645  1.0000
  H   H415      1.0  0.07771  0.70944  0.09908  1.0000
  H   H416      1.0  0.99739  0.69231  0.10408  1.0000
  H   H417      1.0  0.03841  0.71568  0.14836  1.0000
  H   H418      1.0  0.12566  0.73379  0.08773  1.0000
  H   H419      1.0  0.11726  0.76695  0.05818  1.0000
  H   H420      1.0  0.12819  0.79757  0.00274  1.0000
  H   H421      1.0  0.08103  0.78732  0.11192  1.0000
  H   H422      1.0  0.37257  0.92239  0.17978  1.0000
  C   C234      1.0  0.00257  0.71190  0.11914  1.0000
  S   S54       1.0  0.25277  0.84293  0.02632  1.0000
  Fe  Fe30      1.0  0.04462  0.65537  0.06434  1.0000
  H   H423      1.0  0.11220  0.77039  0.17148  1.0000
  H   H424      1.0  0.14918  0.69718  0.09418  1.0000
  H   H425      1.0  0.38253  0.97916  0.15629  1.0000
  H   H426      1.0  0.22047  0.70164  0.00305  1.0000
  H   H427      1.0  0.12281  0.81965  0.17150  1.0000
  C   C235      1.0  0.17266  0.68220  0.06300  1.0000
  C   C236      1.0  0.46753  0.79609  0.05480  1.0000
  H   H428      1.0  0.11477  0.79218  0.10888  1.0000
  H   H429      1.0  0.33273  0.96936  0.21522  1.0000
  H   H430      1.0  0.14823  0.72858  0.14687  1.0000
  C   C237      1.0  0.21845  0.81344  0.01688  1.0000
  H   H431      1.0  0.40235  0.94115  0.12149  1.0000
  S   S55       1.0  0.02690  0.66005  0.12172  1.0000
  H   H432      1.0  0.09098  0.79435  0.04600  1.0000
  H   H433      1.0  0.44004  0.97825  0.10260  1.0000
  C   C238      1.0  0.09562  0.77509  0.16336  1.0000
  C   C239      1.0  0.08860  0.72954  0.11485  1.0000
  H   H434      1.0  0.11342  0.69956  0.14215  1.0000
  N   N14       1.0  0.08186  0.75022  0.09613  1.0000
  C   C240      1.0  0.05082  0.73666  0.09108  1.0000
  C   C241      1.0  0.09428  0.75666  0.05612  1.0000
  C   C242      1.0  0.09342  0.77702  0.11855  1.0000
  C   C243      1.0  0.12595  0.72228  0.14737  1.0000
  S   S56       1.0  0.04781  0.68119  0.01111  1.0000
  C   C244      1.0  0.03357  0.72859  0.12853  1.0000
  H   H435      1.0  0.45917  0.97899  0.27884  1.0000
  C   C245      1.0  0.16430  0.76544  0.00400  1.0000
  Fe  Fe31      1.0  0.09275  0.69137  0.00746  1.0000
  H   H436      1.0  0.40874  0.97286  0.17519  1.0000
  H   H437      1.0  0.42540  0.78262  0.00922  1.0000
  C   C246      1.0  0.22884  0.65861  0.00482  1.0000
  C   C247      1.0  0.39971  0.97574  0.14773  1.0000
  C   C248      1.0  0.17604  0.69950  0.02584  1.0000
  C   C249      1.0  0.16828  0.69586  0.09819  1.0000
  C   C250      1.0  0.20052  0.65656  0.00124  1.0000
  C   C251      1.0  0.46466  0.91399  0.02802  1.0000
  H   H438      1.0  0.37617  0.77776  0.93294  1.0000
  H   H439      1.0  0.23940  0.66414  0.97642  1.0000
  H   H440      1.0  0.22204  0.77551  0.92524  1.0000
  H   H441      1.0  0.18015  0.69887  0.92722  1.0000
  C   C252      1.0  0.17899  0.70684  0.95607  1.0000
  C   C253      1.0  0.42796  0.87998  0.98731  1.0000
  H   H442      1.0  0.99630  0.65632  0.80365  1.0000
  H   H443      1.0  0.13964  0.65817  0.92056  1.0000
  C   C254      1.0  0.41756  0.78626  0.94875  1.0000
  H   H444      1.0  0.45161  0.75759  0.94482  1.0000
  H   H445      1.0  0.15969  0.70824  0.95536  1.0000
  C   C255      1.0  0.20280  0.81124  0.98331  1.0000
  C   C256      1.0  0.43760  0.79558  0.98427  1.0000
  C   C257      1.0  0.17615  0.78761  0.97706  1.0000
  S   S57       1.0  0.08069  0.65401  0.96895  1.0000
  H   H446      1.0  0.42635  0.80196  0.92510  1.0000
  C   C258      1.0  0.20485  0.75374  0.92212  1.0000
  H   H447      1.0  0.21130  0.82779  0.96198  1.0000
  H   H448      1.0  0.16472  0.78649  0.95080  1.0000
  H   H449      1.0  0.39014  0.88205  0.98440  1.0000
  C   C259      1.0  0.46943  0.72618  0.97887  1.0000
  C   C260      1.0  0.34595  0.98167  0.82317  1.0000
  C   C261      1.0  0.34324  0.98080  0.86381  1.0000
  H   H450      1.0  0.44306  0.96702  0.94524  1.0000
  H   H451      1.0  0.01757  0.65829  0.86853  1.0000
  H   H452      1.0  0.42018  0.86243  0.96799  1.0000
  C   C262      1.0  0.38981  0.78362  0.95910  1.0000
  C   C263      1.0  0.15117  0.65984  0.98204  1.0000
  H   H453      1.0  0.37929  0.76735  0.98165  1.0000
  H   H454      1.0  0.13304  0.66230  0.98815  1.0000
  H   H455      1.0  0.46286  0.93122  0.90527  1.0000
  N   N15       1.0  0.46373  0.79399  0.97999  1.0000
  H   H456      1.0  0.39293  0.80376  0.96993  1.0000
  Fe  Fe32      1.0  0.32601  0.93466  0.95317  1.0000
  C   C264      1.0  0.20320  0.68440  0.98656  1.0000
  H   H457      1.0  0.41361  0.76592  0.93771  1.0000
  S   S58       1.0  0.32526  0.89444  0.96911  1.0000
  H   H458      1.0  0.21075  0.68697  0.95628  1.0000
  C   C265      1.0  0.44096  0.95104  0.92434  1.0000
  H   H459      1.0  0.40999  0.98007  0.72016  1.0000
  H   H460      1.0  0.42279  0.93090  0.93286  1.0000
  C   C266      1.0  0.20400  0.73693  0.95807  1.0000
  H   H461      1.0  0.20830  0.74479  0.89569  1.0000
  H   H462      1.0  0.34053  0.96271  0.80793  1.0000
  S   S59       1.0  0.33196  0.94851  0.88886  1.0000
  H   H463      1.0  0.43702  0.95642  0.89468  1.0000
  C   C267      1.0  0.45600  0.76383  0.97583  1.0000
  H   H464      1.0  0.22390  0.73697  0.96020  1.0000
  H   H465      1.0  0.44281  0.81721  0.99124  1.0000
  H   H466      1.0  0.18517  0.75411  0.91872  1.0000
  N   N16       1.0  0.17758  0.68715  0.98792  1.0000
  H   H467      1.0  0.46514  0.80118  0.91791  1.0000
  H   H468      1.0  0.20256  0.74813  0.98333  1.0000
  H   H469      1.0  0.41115  0.97967  0.90299  1.0000
  H   H470      1.0  0.43624  0.74988  0.99087  1.0000
  S   S60       1.0  0.13066  0.73535  0.99346  1.0000
  H   H471      1.0  0.10092  0.79939  0.97633  1.0000
  H   H472      1.0  0.10228  0.76768  0.97627  1.0000
  S   S61       1.0  0.29079  0.92608  0.99315  1.0000
  H   H473      1.0  0.44844  0.71069  0.98892  1.0000
  S   S62       1.0  0.47540  0.87624  0.99110  1.0000
  H   H474      1.0  0.46964  0.94274  0.95514  1.0000
  C   C268      1.0  0.46694  0.94840  0.92517  1.0000
  C   C269      1.0  0.10593  0.78566  0.99424  1.0000
  H   H475      1.0  0.47013  0.72532  0.94679  1.0000
  Fe  Fe33      1.0  0.64150  0.06896  0.27782  1.0000
  S   S63       1.0  0.62741  0.10065  0.27402  1.0000
  S   S64       1.0  0.64038  0.05218  0.21666  1.0000
  Fe  Fe34      1.0  0.64968  0.07661  0.36740  1.0000
  S   S65       1.0  0.63504  0.10732  0.36775  1.0000
  S   S66       1.0  0.66369  0.06835  0.42637  1.0000
  Fe  Fe35      1.0  0.60217  0.07875  0.32590  1.0000
  S   S67       1.0  0.55616  0.06079  0.33287  1.0000
  Fe  Fe36      1.0  0.66230  0.12626  0.31594  1.0000
  S   S68       1.0  0.68843  0.17364  0.31677  1.0000
  S   S69       1.0  0.61476  0.04624  0.32880  1.0000
  S   S70       1.0  0.67847  0.09651  0.31668  1.0000
  C   C270      1.0  0.78829  0.24416  0.18466  1.0000
  Fe  Fe37      1.0  0.84438  0.29158  0.28887  1.0000
  S   S71       1.0  0.81823  0.24430  0.28644  1.0000
  H   H476      1.0  0.76488  0.19388  0.37311  1.0000
  S   S72       1.0  0.49512  0.12414  0.27041  1.0000
  H   H477      1.0  0.75056  0.31448  0.34384  1.0000
  C   C271      1.0  0.78865  0.24494  0.43027  1.0000
  H   H478      1.0  0.75811  0.23975  0.22589  1.0000
  C   C272      1.0  0.53942  0.07804  0.31339  1.0000
  C   C273      1.0  0.55358  0.10237  0.29143  1.0000
  C   C274      1.0  0.53967  0.11621  0.27796  1.0000
  C   C275      1.0  0.51169  0.10586  0.28658  1.0000
  C   C276      1.0  0.49760  0.08144  0.30838  1.0000
  C   C277      1.0  0.51141  0.06754  0.32161  1.0000
  H   H479      1.0  0.57523  0.11065  0.28510  1.0000
  H   H480      1.0  0.55067  0.13513  0.26111  1.0000
  C   C278      1.0  0.68393  0.14738  0.47658  1.0000
  H   H481      1.0  0.50044  0.04880  0.33881  1.0000
  C   C279      1.0  0.64911  0.07099  0.47044  1.0000
  H   H482      1.0  0.85225  0.24911  0.36378  1.0000
  C   C280      1.0  0.62675  0.07579  0.47051  1.0000
  H   H483      1.0  0.77713  0.15165  0.41523  1.0000
  H   H484      1.0  0.61783  0.07751  0.44330  1.0000
  C   C281      1.0  0.72466  0.19253  0.30928  1.0000
  C   C282      1.0  0.73892  0.18016  0.29400  1.0000
  C   C283      1.0  0.76755  0.19625  0.28707  1.0000
  C   C284      1.0  0.78222  0.22478  0.29554  1.0000
  C   C285      1.0  0.76810  0.23694  0.31178  1.0000
  C   C286      1.0  0.73945  0.22097  0.31833  1.0000
  H   H485      1.0  0.72782  0.15829  0.28688  1.0000
  H   H486      1.0  0.77832  0.18657  0.27472  1.0000
  H   H487      1.0  0.77937  0.25872  0.31920  1.0000
  H   H488      1.0  0.72862  0.23065  0.33042  1.0000
  C   C287      1.0  0.62337  0.01933  0.19263  1.0000
  N   N17       1.0  0.55949  0.12181  0.41794  1.0000
  H   H489      1.0  0.51333  0.12518  0.44283  1.0000
  H   H490      1.0  0.52152  0.98875  0.15616  1.0000
  H   H491      1.0  0.55176  0.15337  0.39276  1.0000
  H   H492      1.0  0.80241  0.24186  0.37322  1.0000
  H   H493      1.0  0.80789  0.26057  0.17182  1.0000
  C   C288      1.0  0.55781  0.02243  0.23153  1.0000
  C   C289      1.0  0.55573  0.03683  0.19397  1.0000
  H   H494      1.0  0.56024  0.02780  0.16858  1.0000
  H   H495      1.0  0.62635  0.15463  0.33839  1.0000
  C   C290      1.0  0.61858  0.01860  0.15228  1.0000
  H   H496      1.0  0.68804  0.13646  0.45318  1.0000
  C   C291      1.0  0.57700  0.06783  0.19428  1.0000
  H   H497      1.0  0.52427  0.08423  0.43981  1.0000
  C   C292      1.0  0.86614  0.22171  0.34540  1.0000
  H   H498      1.0  0.78708  0.30598  0.25944  1.0000
  H   H499      1.0  0.79577  0.24635  0.46081  1.0000
  C   C293      1.0  0.55804  0.07678  0.44366  1.0000
  C   C294      1.0  0.54142  0.13034  0.39516  1.0000
  H   H500      1.0  0.52010  0.03770  0.45570  1.0000
  H   H501      1.0  0.55887  0.03521  0.25676  1.0000
  H   H502      1.0  0.57854  0.02417  0.23096  1.0000
  C   C295      1.0  0.86408  0.29426  0.47645  1.0000
  H   H503      1.0  0.79248  0.26741  0.23558  1.0000
  H   H504      1.0  0.86606  0.20244  0.35469  1.0000
  H   H505      1.0  0.48214  0.05842  0.48108  1.0000
  C   C296      1.0  0.71093  0.24280  0.22519  1.0000
  H   H506      1.0  0.55149  0.03586  0.45844  1.0000
  C   C297      1.0  0.85033  0.22916  0.37401  1.0000
  H   H507      1.0  0.61194  0.15970  0.46251  1.0000
  C   C298      1.0  0.77085  0.27837  0.19143  1.0000
  H   H508      1.0  0.59832  0.07104  0.19649  1.0000
  H   H509      1.0  0.57524  0.07768  0.16695  1.0000
  H   H510      1.0  0.57346  0.07820  0.21902  1.0000
  H   H511      1.0  0.62501  0.03786  0.13668  1.0000
  H   H512      1.0  0.66269  0.13335  0.48721  1.0000
  H   H513      1.0  0.81383  0.28991  0.42259  1.0000
  H   H514      1.0  0.63936  0.18998  0.35303  1.0000
  H   H515      1.0  0.78471  0.27316  0.38927  1.0000
  H   H516      1.0  0.88795  0.23888  0.34399  1.0000
  H   H517      1.0  0.57808  0.08265  0.43018  1.0000
  H   H518      1.0  0.86058  0.23242  0.40290  1.0000
  C   C299      1.0  0.77672  0.25689  0.21238  1.0000
  H   H519      1.0  0.71660  0.24243  0.25603  1.0000
  H   H520      1.0  0.81910  0.18599  0.37868  1.0000
  H   H521      1.0  0.62005  0.99444  0.24272  1.0000
  H   H522      1.0  0.53739  0.03774  0.41187  1.0000
  H   H523      1.0  0.86259  0.29948  0.41410  1.0000
  H   H524      1.0  0.59974  0.12536  0.40947  1.0000
  C   C300      1.0  0.87290  0.30894  0.44107  1.0000
  C   C301      1.0  0.61547  0.99424  0.21210  1.0000
  H   H525      1.0  0.77735  0.17122  0.47540  1.0000
  C   C302      1.0  0.73510  0.13701  0.39589  1.0000
  H   H526      1.0  0.84682  0.27330  0.47675  1.0000
  H   H527      1.0  0.67221  0.24084  0.24054  1.0000
  H   H528      1.0  0.77191  0.31287  0.13730  1.0000
  C   C303      1.0  0.81941  0.20613  0.37573  1.0000
  H   H529      1.0  0.71661  0.22968  0.20812  1.0000
  H   H530      1.0  0.56777  0.15660  0.45480  1.0000
  H   H531      1.0  0.82807  0.25374  0.41025  1.0000
  H   H532      1.0  0.51054  0.15771  0.39409  1.0000
  H   H533      1.0  0.67220  0.22801  0.19251  1.0000
  H   H534      1.0  0.53506  0.03488  0.19034  1.0000
  C   C304      1.0  0.79189  0.27322  0.41955  1.0000
  H   H535      1.0  0.58860  0.16340  0.35566  1.0000
  C   C305      1.0  0.54056  0.04510  0.44229  1.0000
  H   H536      1.0  0.57884  0.11643  0.36764  1.0000
  H   H537      1.0  0.53844  0.12263  0.36480  1.0000
  H   H538      1.0  0.72769  0.13632  0.42571  1.0000
  C   C306      1.0  0.60051  0.16032  0.37956  1.0000
  H   H539      1.0  0.50830  0.00482  0.29742  1.0000
  C   C307      1.0  0.62877  0.16809  0.36339  1.0000
  H   H540      1.0  0.75921  0.27253  0.26890  1.0000
  H   H541      1.0  0.54282  0.99771  0.29937  1.0000
  H   H542      1.0  0.77283  0.15563  0.36411  1.0000
  C   C308      1.0  0.51225  0.12055  0.41147  1.0000
  H   H543      1.0  0.49864  0.09787  0.40707  1.0000
  H   H544      1.0  0.51545  0.03001  0.25940  1.0000
  C   C309      1.0  0.56656  0.13598  0.45695  1.0000
  C   C310      1.0  0.80631  0.23784  0.40374  1.0000
  C   C311      1.0  0.77252  0.18790  0.39959  1.0000
  H   H545      1.0  0.53593  0.08066  0.39403  1.0000
  H   H546      1.0  0.75911  0.18755  0.42307  1.0000
  C   C312      1.0  0.58474  0.12968  0.39390  1.0000
  H   H547      1.0  0.68497  0.16644  0.46414  1.0000
  H   H548      1.0  0.73910  0.31060  0.14602  1.0000
  H   H549      1.0  0.49098  0.99673  0.08923  1.0000
  C   C313      1.0  0.60580  0.99323  0.13177  1.0000
  H   H550      1.0  0.83155  0.22491  0.45562  1.0000
  H   H551      1.0  0.85672  0.21876  0.31590  1.0000
  H   H552      1.0  0.71452  0.28356  0.21971  1.0000
  H   H553      1.0  0.76631  0.22950  0.42787  1.0000
  H   H554      1.0  0.77925  0.27797  0.43913  1.0000
  H   H555      1.0  0.60352  0.17490  0.40322  1.0000
  H   H556      1.0  0.73088  0.11583  0.38853  1.0000
  H   H557      1.0  0.72785  0.29204  0.28203  1.0000
  C   C314      1.0  0.81325  0.20503  0.44607  1.0000
  H   H558      1.0  0.77305  0.23261  0.16119  1.0000
  H   H559      1.0  0.82131  0.19036  0.44364  1.0000
  C   C315      1.0  0.49840  0.13484  0.39023  1.0000
  N   N18       1.0  0.80255  0.20902  0.40725  1.0000
  H   H560      1.0  0.56120  0.08261  0.47467  1.0000
  H   H561      1.0  0.58558  0.99998  0.27515  1.0000
  H   H562      1.0  0.67000  0.20761  0.23487  1.0000
  C   C316      1.0  0.76612  0.15764  0.39344  1.0000
  H   H563      1.0  0.72328  0.14282  0.37514  1.0000
  C   C317      1.0  0.67941  0.22911  0.22302  1.0000
  H   H564      1.0  0.64209  0.16599  0.38600  1.0000
  C   C318      1.0  0.50274  0.00772  0.26740  1.0000
  C   C319      1.0  0.49596  0.01702  0.10188  1.0000
  H   H565      1.0  0.53419  0.00923  0.04750  1.0000
  H   H566      1.0  0.79280  0.22939  0.20087  1.0000
  H   H567      1.0  0.54951  0.12380  0.47760  1.0000
  C   C320      1.0  0.76417  0.29281  0.25631  1.0000
  C   C321      1.0  0.79244  0.19359  0.47992  1.0000
  H   H568      1.0  0.81000  0.20544  0.34673  1.0000
  H   H569      1.0  0.71962  0.27012  0.17666  1.0000
  C   C322      1.0  0.54321  0.09062  0.42279  1.0000
  N   N19       1.0  0.75591  0.29005  0.21396  1.0000
  C   C323      1.0  0.72499  0.27265  0.20810  1.0000
  H   H570      1.0  0.75949  0.26890  0.16387  1.0000
  S   S73       1.0  0.89100  0.31276  0.29527  1.0000
  H   H571      1.0  0.60238  0.99314  0.10080  1.0000
  H   H572      1.0  0.50276  0.01788  0.13252  1.0000
  H   H573      1.0  0.79172  0.29539  0.18269  1.0000
  C   C324      1.0  0.59425  0.14165  0.47663  1.0000
  C   C325      1.0  0.75990  0.30523  0.32538  1.0000
  H   H574      1.0  0.75312  0.28385  0.33601  1.0000
  H   H575      1.0  0.47697  0.04150  0.11246  1.0000
  H   H576      1.0  0.78055  0.20448  0.48242  1.0000
  C   C326      1.0  0.53421  0.99330  0.02856  1.0000
  H   H577      1.0  0.51331  0.03389  0.08553  1.0000
  C   C327      1.0  0.75075  0.30480  0.28320  1.0000
  H   H578      1.0  0.55544  0.99621  0.02916  1.0000
  C   C328      1.0  0.50701  0.98942  0.23791  1.0000
  H   H579      1.0  0.47748  0.12726  0.40196  1.0000
  N   N20       1.0  0.53552  0.99257  0.23714  1.0000
  H   H580      1.0  0.59797  0.12396  0.47457  1.0000
  H   H581      1.0  0.49617  0.13003  0.35878  1.0000
  H   H582      1.0  0.50105  0.99440  0.20936  1.0000
  S   S74       1.0  0.83876  0.31706  0.33384  1.0000
  H   H583      1.0  0.78278  0.31807  0.32825  1.0000
  H   H584      1.0  0.47611  0.07330  0.31514  1.0000
  H   H585      1.0  0.56762  0.04321  0.81658  1.0000
  C   C329      1.0  0.52808  0.04652  0.56617  1.0000
  C   C330      1.0  0.60943  0.00518  0.81038  1.0000
  H   H586      1.0  0.75169  0.29204  0.73590  1.0000
  H   H587      1.0  0.53895  0.02240  0.91514  1.0000
  Fe  Fe38      1.0  0.83812  0.30021  0.68569  1.0000
  S   S75       1.0  0.79490  0.27464  0.71124  1.0000
  S   S76       1.0  0.87088  0.28908  0.67272  1.0000
  Fe  Fe39      1.0  0.62554  0.08239  0.64862  1.0000
  S   S77       1.0  0.64330  0.12531  0.67328  1.0000
  S   S78       1.0  0.61199  0.07901  0.58480  1.0000
  Fe  Fe40      1.0  0.62628  0.05710  0.73004  1.0000
  S   S79       1.0  0.64472  0.09869  0.75899  1.0000
  S   S80       1.0  0.61419  0.01548  0.76053  1.0000
  Fe  Fe41      1.0  0.61395  0.10439  0.72232  1.0000
  S   S81       1.0  0.58807  0.12098  0.74809  1.0000
  Fe  Fe42      1.0  0.67245  0.11582  0.70699  1.0000
  S   S82       1.0  0.71963  0.14233  0.70592  1.0000
  S   S83       1.0  0.59406  0.06201  0.69598  1.0000
  S   S84       1.0  0.65610  0.07361  0.67997  1.0000
  C   C331      1.0  0.55592  0.10999  0.72461  1.0000
  C   C332      1.0  0.53683  0.11660  0.74014  1.0000
  C   C333      1.0  0.51068  0.10697  0.72232  1.0000
  C   C334      1.0  0.50350  0.09033  0.68930  1.0000
  C   C335      1.0  0.52270  0.08408  0.67364  1.0000
  C   C336      1.0  0.54890  0.09411  0.69093  1.0000
  H   H588      1.0  0.54227  0.12908  0.76605  1.0000
  H   H589      1.0  0.49599  0.11199  0.73446  1.0000
  H   H590      1.0  0.51729  0.07129  0.64815  1.0000
  H   H591      1.0  0.56359  0.08940  0.67822  1.0000
  H   H592      1.0  0.70561  0.13552  0.51752  1.0000
  C   C337      1.0  0.54227  0.00583  0.90316  1.0000
  C   C338      1.0  0.74001  0.17915  0.70723  1.0000
  C   C339      1.0  0.76782  0.19202  0.69588  1.0000
  C   C340      1.0  0.78477  0.22119  0.69643  1.0000
  C   C341      1.0  0.77418  0.23784  0.70886  1.0000
  C   C342      1.0  0.74635  0.22496  0.72024  1.0000
  C   C343      1.0  0.72930  0.19580  0.71927  1.0000
  H   H593      1.0  0.77636  0.17936  0.68665  1.0000
  H   H594      1.0  0.80616  0.23076  0.68774  1.0000
  H   H595      1.0  0.73796  0.23761  0.73006  1.0000
  H   H596      1.0  0.70799  0.18619  0.72827  1.0000
  H   H597      1.0  0.75489  0.09587  0.75635  1.0000
  H   H598      1.0  0.80566  0.25643  0.60459  1.0000
  H   H599      1.0  0.80436  0.11477  0.77138  1.0000
  H   H600      1.0  0.67679  0.14984  0.55490  1.0000
  C   C344      1.0  0.62689  0.07558  0.54156  1.0000
  S   S85       1.0  0.86588  0.28726  0.55538  1.0000
  H   H601      1.0  0.65720  0.06753  0.56886  1.0000
  C   C345      1.0  0.70399  0.05304  0.73751  1.0000
  H   H602      1.0  0.69608  0.21151  0.66983  1.0000
  C   C346      1.0  0.56368  0.04094  0.84823  1.0000
  H   H603      1.0  0.66311  0.18770  0.64742  1.0000
  H   H604      1.0  0.78153  0.26122  0.57460  1.0000
  C   C347      1.0  0.70520  0.15474  0.50951  1.0000
  H   H605      1.0  0.50460  0.10082  0.51611  1.0000
  N   N21       1.0  0.70982  0.06969  0.80902  1.0000
  C   C348      1.0  0.70855  0.09534  0.79734  1.0000
  H   H606      1.0  0.67492  0.05863  0.84633  1.0000
  C   C349      1.0  0.48154  0.17865  0.78883  1.0000
  C   C350      1.0  0.73914  0.07502  0.81338  1.0000
  C   C351      1.0  0.76143  0.09803  0.78716  1.0000
  C   C352      1.0  0.71934  0.11860  0.82827  1.0000
  C   C353      1.0  0.60221  0.98698  0.88921  1.0000
  C   C354      1.0  0.47791  0.05000  0.79897  1.0000
  H   H607      1.0  0.49121  0.02210  0.82465  1.0000
  C   C355      1.0  0.78866  0.09769  0.78954  1.0000
  C   C356      1.0  0.72559  0.14645  0.81039  1.0000
  C   C357      1.0  0.68450  0.02927  0.71078  1.0000
  H   H608      1.0  0.68679  0.08964  0.79046  1.0000
  H   H609      1.0  0.71970  0.10450  0.77000  1.0000
  H   H610      1.0  0.59859  0.08182  0.50558  1.0000
  H   H611      1.0  0.71611  0.28781  0.78200  1.0000
  H   H612      1.0  0.50392  0.19233  0.79540  1.0000
  H   H613      1.0  0.70751  0.07492  0.87073  1.0000
  H   H614      1.0  0.74696  0.08111  0.84367  1.0000
  C   C358      1.0  0.66013  0.06825  0.50624  1.0000
  H   H615      1.0  0.76587  0.11888  0.79657  1.0000
  H   H616      1.0  0.66326  0.02625  0.71126  1.0000
  H   H617      1.0  0.70332  0.11309  0.85065  1.0000
  H   H618      1.0  0.73837  0.12133  0.84309  1.0000
  H   H619      1.0  0.68362  0.00957  0.71985  1.0000
  C   C359      1.0  0.48639  0.09453  0.53484  1.0000
  H   H620      1.0  0.70532  0.07237  0.72583  1.0000
  C   C360      1.0  0.69356  0.04716  0.77970  1.0000
  H   H621      1.0  0.66543  0.02923  0.91114  1.0000
  H   H622      1.0  0.69321  0.02758  0.78808  1.0000
  C   C361      1.0  0.68341  0.02652  0.90502  1.0000
  H   H623      1.0  0.79662  0.10080  0.81991  1.0000
  H   H624      1.0  0.70700  0.14453  0.79504  1.0000
  H   H625      1.0  0.73185  0.16226  0.83348  1.0000
  H   H626      1.0  0.74281  0.15380  0.78953  1.0000
  H   H627      1.0  0.48532  0.05476  0.59128  1.0000
  H   H628      1.0  0.47900  0.09904  0.82794  1.0000
  H   H629      1.0  0.49233  0.99335  0.92567  1.0000
  N   N22       1.0  0.71815  0.17709  0.57803  1.0000
  H   H630      1.0  0.55404  0.05347  0.85614  1.0000
  C   C362      1.0  0.70465  0.18182  0.61224  1.0000
  H   H631      1.0  0.71748  0.18560  0.63892  1.0000
  C   C363      1.0  0.72710  0.15646  0.58974  1.0000
  C   C364      1.0  0.70353  0.12704  0.60084  1.0000
  H   H632      1.0  0.73717  0.21848  0.55288  1.0000
  C   C365      1.0  0.76588  0.21911  0.59712  1.0000
  C   C366      1.0  0.69796  0.20570  0.60782  1.0000
  C   C367      1.0  0.68297  0.20738  0.64338  1.0000
  C   C368      1.0  0.71478  0.10723  0.60779  1.0000
  C   C369      1.0  0.61639  0.02426  0.84042  1.0000
  C   C370      1.0  0.78925  0.24671  0.58186  1.0000
  H   H633      1.0  0.52424  0.00359  0.84437  1.0000
  C   C371      1.0  0.73559  0.28887  0.79241  1.0000
  H   H634      1.0  0.68477  0.16268  0.61866  1.0000
  H   H635      1.0  0.50544  0.10111  0.59383  1.0000
  C   C372      1.0  0.75861  0.30424  0.76305  1.0000
  H   H636      1.0  0.47850  0.10970  0.58880  1.0000
  H   H637      1.0  0.73958  0.15449  0.56652  1.0000
  H   H638      1.0  0.74105  0.16394  0.61568  1.0000
  C   C373      1.0  0.61286  0.01521  0.87947  1.0000
  H   H639      1.0  0.69350  0.12774  0.62786  1.0000
  C   C374      1.0  0.69030  0.03093  0.86192  1.0000
  H   H640      1.0  0.67839  0.22458  0.63957  1.0000
  H   H641      1.0  0.77532  0.20648  0.60665  1.0000
  H   H642      1.0  0.75736  0.22376  0.62286  1.0000
  H   H643      1.0  0.75376  0.19960  0.54153  1.0000
  H   H644      1.0  0.50456  0.99360  0.98831  1.0000
  H   H645      1.0  0.49226  0.06615  0.81972  1.0000
  H   H646      1.0  0.52796  0.04786  0.59823  1.0000
  C   C375      1.0  0.48852  0.02911  0.79538  1.0000
  H   H647      1.0  0.73040  0.11491  0.63176  1.0000
  H   H648      1.0  0.69764  0.08638  0.61604  1.0000
  H   H649      1.0  0.72427  0.10505  0.58105  1.0000
  C   C376      1.0  0.64897  0.07034  0.54162  1.0000
  H   H650      1.0  0.62457  0.04601  0.83355  1.0000
  H   H651      1.0  0.68738  0.11809  0.57794  1.0000
  C   C377      1.0  0.52576  0.99657  0.98725  1.0000
  H   H652      1.0  0.68437  0.20242  0.58221  1.0000
  H   H653      1.0  0.72574  0.17001  0.49801  1.0000
  H   H654      1.0  0.58391  0.04925  0.86367  1.0000
  H   H655      1.0  0.67719  0.06418  0.50659  1.0000
  C   C378      1.0  0.54460  0.01031  0.85845  1.0000
  H   H656      1.0  0.81915  0.18503  0.51788  1.0000
  H   H657      1.0  0.61846  0.03024  0.90239  1.0000
  C   C379      1.0  0.74329  0.20371  0.56541  1.0000
  H   H658      1.0  0.79210  0.18723  0.54232  1.0000
  H   H659      1.0  0.56314  0.01041  0.91393  1.0000
  C   C380      1.0  0.51809  0.14067  0.56748  1.0000
  C   C381      1.0  0.51643  0.04253  0.77514  1.0000
  H   H660      1.0  0.71714  0.22609  0.60470  1.0000
  C   C382      1.0  0.80736  0.19628  0.51867  1.0000
  H   H661      1.0  0.54991  0.05537  0.55706  1.0000
  H   H662      1.0  0.55348  0.99838  0.84539  1.0000
  H   H663      1.0  0.51644  0.02435  0.55748  1.0000
  Fe  Fe43      1.0  0.87301  0.30873  0.61384  1.0000
  H   H664      1.0  0.67156  0.04213  0.77921  1.0000
  C   C383      1.0  0.51554  0.06277  0.54694  1.0000
  H   H665      1.0  0.48102  0.06130  0.77094  1.0000
  H   H666      1.0  0.79871  0.24354  0.55583  1.0000
  C   C384      1.0  0.69544  0.05974  0.84751  1.0000
  S   S86       1.0  0.83878  0.31723  0.62629  1.0000
  H   H667      1.0  0.74169  0.29938  0.82098  1.0000
  H   H668      1.0  0.52872  0.08486  0.55533  1.0000
  C   C385      1.0  0.59513  0.14834  0.51962  1.0000
  H   H669      1.0  0.53719  0.14227  0.55558  1.0000
  H   H670      1.0  0.82192  0.21850  0.52541  1.0000
  H   H671      1.0  0.51691  0.06131  0.51522  1.0000
  H   H672      1.0  0.77724  0.30406  0.77452  1.0000
  C   C386      1.0  0.69746  0.16641  0.54479  1.0000
  H   H673      1.0  0.69204  0.03418  0.68056  1.0000
  H   H674      1.0  0.54034  0.01818  0.97805  1.0000
  H   H675      1.0  0.69387  0.18321  0.53341  1.0000
  C   C387      1.0  0.49626  0.11025  0.57393  1.0000
  C   C388      1.0  0.61582  0.07812  0.50581  1.0000
  H   H676      1.0  0.73956  0.05544  0.80859  1.0000
  H   H677      1.0  0.57875  0.13017  0.53549  1.0000
  H   H678      1.0  0.67237  0.01414  0.84589  1.0000
  H   H679      1.0  0.72451  0.05450  0.73602  1.0000
  H   H680      1.0  0.52343  0.15177  0.59561  1.0000
  H   H681      1.0  0.78576  0.07768  0.77866  1.0000
  H   H682      1.0  0.53198  0.06149  0.79066  1.0000
  H   H683      1.0  0.48974  0.19411  0.57338  1.0000
  H   H684      1.0  0.61548  0.15316  0.53246  1.0000
  H   H685      1.0  0.51417  0.04827  0.74486  1.0000
  H   H686      1.0  0.73171  0.26732  0.79629  1.0000
  H   H687      1.0  0.59231  0.16658  0.52350  1.0000
  H   H688      1.0  0.67799  0.00507  0.91374  1.0000
  H   H689      1.0  0.70144  0.04140  0.92284  1.0000
  H   H690      1.0  0.70869  0.02861  0.85750  1.0000
  C   C389      1.0  0.48512  0.05148  0.55947  1.0000
  H   H691      1.0  0.52419  0.02762  0.77410  1.0000
  C   C390      1.0  0.87745  0.30662  0.51161  1.0000
  H   H692      1.0  0.51017  0.15090  0.54719  1.0000
  H   H693      1.0  0.47840  0.17869  0.75693  1.0000
  H   H694      1.0  0.81103  0.30852  0.49728  1.0000
  C   C391      1.0  0.84064  0.35253  0.49089  1.0000
  C   C392      1.0  0.75767  0.61711  0.18932  1.0000
  C   C393      1.0  0.69754  0.56854  0.20565  1.0000
  C   C394      1.0  0.49211  0.43927  0.20898  1.0000
  Fe  Fe44      1.0  0.88521  0.33982  0.33810  1.0000
  Fe  Fe45      1.0  0.84522  0.34674  0.28484  1.0000
  S   S87       1.0  0.81913  0.36652  0.27144  1.0000
  S   S88       1.0  0.89117  0.37179  0.29226  1.0000
  H   H695      1.0  0.47698  0.39042  0.44842  1.0000
  H   H696      1.0  0.55208  0.45911  0.07834  1.0000
  C   C395      1.0  0.91024  0.58312  0.47796  1.0000
  Fe  Fe46      1.0  0.86748  0.52026  0.33899  1.0000
  S   S89       1.0  0.91307  0.55028  0.33826  1.0000
  S   S90       1.0  0.85662  0.47786  0.36252  1.0000
  Fe  Fe47      1.0  0.85320  0.56675  0.32655  1.0000
  S   S91       1.0  0.89845  0.59966  0.32456  1.0000
  S   S92       1.0  0.82306  0.58311  0.33217  1.0000
  Fe  Fe48      1.0  0.90398  0.56996  0.28655  1.0000
  S   S93       1.0  0.92638  0.57378  0.22905  1.0000
  Fe  Fe49      1.0  0.90329  0.57670  0.37606  1.0000
  S   S94       1.0  0.92640  0.59631  0.43256  1.0000
  S   S95       1.0  0.85803  0.53810  0.28556  1.0000
  S   S96       1.0  0.85833  0.54576  0.37922  1.0000
  Fe  Fe50      1.0  0.65208  0.58599  0.28216  1.0000
  S   S97       1.0  0.63379  0.53980  0.27841  1.0000
  S   S98       1.0  0.66035  0.60855  0.22340  1.0000
  Fe  Fe51      1.0  0.66004  0.58418  0.37175  1.0000
  S   S99       1.0  0.64184  0.53798  0.37262  1.0000
  S   S100      1.0  0.68007  0.60686  0.42792  1.0000
  Fe  Fe52      1.0  0.66772  0.54493  0.32001  1.0000
  S   S101      1.0  0.69224  0.52288  0.31029  1.0000
  Fe  Fe53      1.0  0.61026  0.53797  0.33126  1.0000
  S   S102      1.0  0.56392  0.51203  0.33657  1.0000
  S   S103      1.0  0.68757  0.59114  0.32083  1.0000
  S   S104      1.0  0.62671  0.58409  0.33340  1.0000
  C   C396      1.0  0.66176  0.59880  0.47203  1.0000
  C   C397      1.0  0.51774  0.41781  0.32296  1.0000
  C   C398      1.0  0.63305  0.58134  0.47340  1.0000
  H   H697      1.0  0.80631  0.50932  0.42116  1.0000
  H   H698      1.0  0.62141  0.57257  0.44688  1.0000
  C   C399      1.0  0.54690  0.47582  0.33195  1.0000
  C   C400      1.0  0.56140  0.46150  0.32814  1.0000
  C   C401      1.0  0.54679  0.43247  0.32377  1.0000
  H   H699      1.0  0.47984  0.52219  0.12091  1.0000
  C   C402      1.0  0.50339  0.43219  0.32747  1.0000
  C   C403      1.0  0.51793  0.46110  0.33185  1.0000
  H   H700      1.0  0.58380  0.47277  0.32842  1.0000
  H   H701      1.0  0.55799  0.42139  0.32042  1.0000
  H   H702      1.0  0.67856  0.52899  0.17505  1.0000
  H   H703      1.0  0.50665  0.47214  0.33491  1.0000
  C   C404      1.0  0.94760  0.37675  0.12530  1.0000
  H   H704      1.0  0.78746  0.33300  0.20591  1.0000
  H   H705      1.0  0.76528  0.55545  0.20162  1.0000
  H   H706      1.0  0.56203  0.56725  0.25100  1.0000
  C   C405      1.0  0.78642  0.56423  0.33024  1.0000
  C   C406      1.0  0.77185  0.57695  0.34378  1.0000
  C   C407      1.0  0.74287  0.56397  0.33947  1.0000
  C   C408      1.0  0.72823  0.53841  0.32059  1.0000
  C   C409      1.0  0.74270  0.52528  0.30813  1.0000
  C   C410      1.0  0.77166  0.53804  0.31310  1.0000
  H   H707      1.0  0.78313  0.59726  0.35687  1.0000
  H   H708      1.0  0.73198  0.57413  0.34973  1.0000
  H   H709      1.0  0.73153  0.50540  0.29380  1.0000
  H   H710      1.0  0.78264  0.52806  0.30248  1.0000
  H   H711      1.0  0.78338  0.58727  0.17382  1.0000
  S   S105      1.0  0.56364  0.61129  0.00526  1.0000
  H   H712      1.0  0.50924  0.56821  0.09057  1.0000
  C   C411      1.0  0.60018  0.62381  0.14612  1.0000
  C   C412      1.0  0.63625  0.61324  0.19396  1.0000
  C   C413      1.0  0.61227  0.61122  0.20923  1.0000
  C   C414      1.0  0.75967  0.64790  0.30814  1.0000
  H   H713      1.0  0.76312  0.36163  0.15770  1.0000
  H   H714      1.0  0.49072  0.35674  0.40210  1.0000
  H   H715      1.0  0.76978  0.58074  0.26112  1.0000
  S   S106      1.0  0.49993  0.38178  0.31503  1.0000
  C   C415      1.0  0.83062  0.39824  0.29524  1.0000
  C   C416      1.0  0.84944  0.40585  0.32625  1.0000
  C   C417      1.0  0.85763  0.43068  0.34603  1.0000
  C   C418      1.0  0.84757  0.44834  0.33446  1.0000
  C   C419      1.0  0.82917  0.44106  0.30295  1.0000
  C   C420      1.0  0.82056  0.41591  0.28348  1.0000
  H   H716      1.0  0.85714  0.39226  0.33567  1.0000
  H   H717      1.0  0.87166  0.43615  0.37057  1.0000
  H   H718      1.0  0.82094  0.45437  0.29438  1.0000
  H   H719      1.0  0.80591  0.41003  0.25956  1.0000
  H   H720      1.0  0.96601  0.42502  0.19525  1.0000
  S   S107      1.0  0.90714  0.35517  0.39660  1.0000
  C   C421      1.0  0.74374  0.60868  0.25935  1.0000
  H   H721      1.0  0.75376  0.32806  0.21277  1.0000
  S   S108      1.0  0.53125  0.63961  0.04505  1.0000
  H   H722      1.0  0.85751  0.61967  0.40972  1.0000
  H   H723      1.0  0.82562  0.35706  0.47573  1.0000
  H   H724      1.0  0.91670  0.49201  0.36623  1.0000
  H   H725      1.0  0.48110  0.42114  0.32730  1.0000
  H   H726      1.0  0.65452  0.53859  0.19366  1.0000
  H   H727      1.0  0.81328  0.56727  0.19152  1.0000
  C   C422      1.0  0.78140  0.57775  0.20295  1.0000
  C   C423      1.0  0.97121  0.38285  0.10349  1.0000
  C   C424      1.0  0.80873  0.57885  0.21337  1.0000
  H   H728      1.0  0.77565  0.53511  0.46060  1.0000
  C   C425      1.0  0.55242  0.48279  0.44386  1.0000
  C   C426      1.0  0.77830  0.58405  0.45559  1.0000
  H   H729      1.0  0.90884  0.64486  0.40541  1.0000
  H   H730      1.0  0.91249  0.45013  0.18243  1.0000
  C   C427      1.0  0.94537  0.36834  0.16448  1.0000
  H   H731      1.0  0.58610  0.49301  0.40411  1.0000
  H   H732      1.0  0.68939  0.53211  0.40099  1.0000
  H   H733      1.0  0.87745  0.38907  0.44004  1.0000
  H   H734      1.0  0.94368  0.49310  0.19575  1.0000
  C   C428      1.0  0.59449  0.61663  0.18555  1.0000
  H   H735      1.0  0.93870  0.41854  0.41901  1.0000
  N   N23       1.0  0.91647  0.48480  0.24407  1.0000
  H   H736      1.0  0.81632  0.60814  0.42637  1.0000
  C   C429      1.0  0.90273  0.45353  0.24332  1.0000
  C   C430      1.0  0.90042  0.49496  0.21987  1.0000
  C   C431      1.0  0.91782  0.49391  0.28536  1.0000
  H   H737      1.0  0.84317  0.46764  0.46011  1.0000
  H   H738      1.0  0.90509  0.39527  0.47164  1.0000
  C   C432      1.0  0.86975  0.48329  0.23086  1.0000
  C   C433      1.0  0.89489  0.44010  0.20252  1.0000
  C   C434      1.0  0.88597  0.40928  0.20464  1.0000
  H   H739      1.0  0.69610  0.55959  0.45927  1.0000
  H   H740      1.0  0.86786  0.60038  0.49005  1.0000
  C   C435      1.0  0.85529  0.49347  0.20247  1.0000
  H   H741      1.0  0.96688  0.63386  0.23620  1.0000
  H   H742      1.0  0.76992  0.49316  0.43077  1.0000
  H   H743      1.0  0.91642  0.44662  0.25747  1.0000
  H   H744      1.0  0.88364  0.44386  0.26103  1.0000
  H   H745      1.0  0.90123  0.49093  0.18857  1.0000
  H   H746      1.0  0.91013  0.51782  0.22202  1.0000
  H   H747      1.0  0.92571  0.51667  0.28648  1.0000
  H   H748      1.0  0.89676  0.48426  0.29764  1.0000
  H   H749      1.0  0.85152  0.34737  0.46875  1.0000
  C   C436      1.0  0.96738  0.36658  0.18173  1.0000
  H   H750      1.0  0.75318  0.60525  0.16183  1.0000
  H   H751      1.0  0.72146  0.62388  0.19085  1.0000
  H   H752      1.0  0.86833  0.49049  0.26007  1.0000
  H   H753      1.0  0.85808  0.46030  0.23064  1.0000
  C   C437      1.0  0.69530  0.52585  0.42865  1.0000
  H   H754      1.0  0.95600  0.48632  0.23976  1.0000
  H   H755      1.0  0.87991  0.39994  0.17534  1.0000
  H   H756      1.0  0.90328  0.40647  0.21563  1.0000
  C   C438      1.0  0.93488  0.48641  0.31412  1.0000
  H   H757      1.0  0.80746  0.56917  0.24226  1.0000
  Fe  Fe54      1.0  0.57178  0.64043  0.05441  1.0000
  C   C439      1.0  0.78874  0.51322  0.42399  1.0000
  Fe  Fe55      1.0  0.89319  0.34307  0.24859  1.0000
  C   C440      1.0  0.68661  0.53681  0.46288  1.0000
  H   H758      1.0  0.81921  0.56785  0.41621  1.0000
  H   H759      1.0  0.83363  0.48552  0.21166  1.0000
  H   H760      1.0  0.86607  0.51656  0.20206  1.0000
  H   H761      1.0  0.85495  0.48586  0.17277  1.0000
  H   H762      1.0  0.94838  0.52249  0.35123  1.0000
  C   C441      1.0  0.77353  0.35201  0.14232  1.0000
  H   H763      1.0  0.48964  0.44262  0.17773  1.0000
  C   C442      1.0  0.89555  0.33591  0.44043  1.0000
  H   H764      1.0  0.92451  0.46354  0.31844  1.0000
  C   C443      1.0  0.97114  0.62633  0.20998  1.0000
  C   C444      1.0  0.76513  0.31896  0.19864  1.0000
  C   C445      1.0  0.82026  0.56272  0.44734  1.0000
  C   C446      1.0  0.76582  0.60260  0.44646  1.0000
  C   C447      1.0  0.77394  0.59292  0.23371  1.0000
  H   H765      1.0  0.94830  0.56749  0.15759  1.0000
  C   C448      1.0  0.86039  0.44233  0.48115  1.0000
  H   H766      1.0  0.48462  0.45077  0.22640  1.0000
  C   C449      1.0  0.62389  0.62527  0.13059  1.0000
  C   C450      1.0  0.72534  0.56949  0.21414  1.0000
  N   N24       1.0  0.82538  0.58692  0.47259  1.0000
  H   H767      1.0  0.95852  0.45252  0.99991  1.0000
  H   H768      1.0  0.59279  0.51976  0.43853  1.0000
  H   H769      1.0  0.81762  0.43339  0.47630  1.0000
  H   H770      1.0  0.87742  0.44185  0.18965  1.0000
  C   C451      1.0  0.90923  0.34806  0.47551  1.0000
  H   H771      1.0  0.97237  0.38891  0.07334  1.0000
  H   H772      1.0  0.72192  0.55453  0.23826  1.0000
  H   H773      1.0  0.49360  0.44820  0.40440  1.0000
  S   S109      1.0  0.57756  0.63186  0.11855  1.0000
  H   H774      1.0  0.81662  0.62076  0.47292  1.0000
  N   N25       1.0  0.54394  0.47815  0.20980  1.0000
  C   C452      1.0  0.52262  0.44851  0.21951  1.0000
  C   C453      1.0  0.57217  0.48447  0.22500  1.0000
  C   C454      1.0  0.53586  0.49691  0.23020  1.0000
  C   C455      1.0  0.54463  0.48419  0.16694  1.0000
  C   C456      1.0  0.55070  0.46605  0.13980  1.0000
  H   H775      1.0  0.92601  0.44737  0.45992  1.0000
  C   C457      1.0  0.55751  0.52850  0.23017  1.0000
  C   C458      1.0  0.57883  0.46038  0.22471  1.0000
  C   C459      1.0  0.60905  0.47056  0.23558  1.0000
  C   C460      1.0  0.54692  0.47182  0.09729  1.0000
  H   H776      1.0  0.75695  0.32652  0.27518  1.0000
  C   C461      1.0  0.54608  0.54491  0.25030  1.0000
  H   H777      1.0  0.52347  0.44494  0.25118  1.0000
  H   H778      1.0  0.52732  0.43348  0.20571  1.0000
  H   H779      1.0  0.58883  0.50265  0.20933  1.0000
  H   H780      1.0  0.57476  0.49082  0.25598  1.0000
  H   H781      1.0  0.53105  0.49042  0.26104  1.0000
  H   H782      1.0  0.51654  0.49494  0.21718  1.0000
  H   H783      1.0  0.52489  0.48293  0.15715  1.0000
  H   H784      1.0  0.56086  0.50597  0.16071  1.0000
  H   H785      1.0  0.53676  0.44357  0.14506  1.0000
  H   H786      1.0  0.57256  0.47123  0.14362  1.0000
  H   H787      1.0  0.79313  0.61309  0.23927  1.0000
  C   C462      1.0  0.88516  0.55814  0.48052  1.0000
  H   H788      1.0  0.56304  0.53693  0.20034  1.0000
  H   H789      1.0  0.57677  0.53273  0.24591  1.0000
  H   H790      1.0  0.56599  0.44423  0.24630  1.0000
  H   H791      1.0  0.57461  0.45016  0.19621  1.0000
  H   H792      1.0  0.62296  0.48644  0.21451  1.0000
  H   H793      1.0  0.61383  0.47944  0.26522  1.0000
  H   H794      1.0  0.61303  0.45286  0.23525  1.0000
  H   H795      1.0  0.51348  0.35149  0.43451  1.0000
  H   H796      1.0  0.56083  0.49409  0.09002  1.0000
  H   H797      1.0  0.92729  0.36860  0.47523  1.0000
  H   H798      1.0  0.68487  0.50281  0.42965  1.0000
  H   H799      1.0  0.93077  0.37822  0.11159  1.0000
  H   H800      1.0  0.86800  0.39803  0.22401  1.0000
  H   H801      1.0  0.89747  0.43950  0.42687  1.0000
  H   H802      1.0  0.52757  0.54274  0.23447  1.0000
  H   H803      1.0  0.54047  0.53759  0.28067  1.0000
  N   N26       1.0  0.50909  0.43374  0.45168  1.0000
  C   C463      1.0  0.76886  0.63424  0.27828  1.0000
  C   C464      1.0  0.53793  0.45114  0.43589  1.0000
  C   C465      1.0  0.85602  0.60792  0.47213  1.0000
  H   H804      1.0  0.96966  0.53399  0.26392  1.0000
  C   C466      1.0  0.51577  0.39141  0.44070  1.0000
  C   C467      1.0  0.95473  0.59827  0.20012  1.0000
  C   C468      1.0  0.49953  0.36034  0.43205  1.0000
  H   H805      1.0  0.54321  0.49260  0.42508  1.0000
  H   H806      1.0  0.74854  0.63311  0.33210  1.0000
  H   H807      1.0  0.53770  0.44849  0.40397  1.0000
  H   H808      1.0  0.55188  0.44385  0.44797  1.0000
  H   H809      1.0  0.91064  0.41226  0.38581  1.0000
  C   C469      1.0  0.92559  0.42697  0.40750  1.0000
  H   H810      1.0  0.96852  0.43780  0.06296  1.0000
  H   H811      1.0  0.86018  0.62771  0.48570  1.0000
  H   H812      1.0  0.78236  0.62769  0.29378  1.0000
  H   H813      1.0  0.59399  0.48921  0.45410  1.0000
  H   H814      1.0  0.55048  0.48702  0.47461  1.0000
  C   C470      1.0  0.91026  0.43146  0.44032  1.0000
  H   H815      1.0  0.72928  0.56068  0.18792  1.0000
  H   H816      1.0  0.79609  0.36385  0.14906  1.0000
  C   C471      1.0  0.96449  0.52870  0.23285  1.0000
  H   H817      1.0  0.77051  0.35344  0.11063  1.0000
  H   H818      1.0  0.94960  0.49377  0.37392  1.0000
  H   H819      1.0  0.60789  0.60632  0.23963  1.0000
  H   H820      1.0  0.73481  0.59219  0.28194  1.0000
  H   H821      1.0  0.83805  0.55896  0.44994  1.0000
  H   H822      1.0  0.69877  0.57993  0.17843  1.0000
  C   C472      1.0  0.93747  0.49948  0.35374  1.0000
  C   C473      1.0  0.48677  0.56026  0.09445  1.0000
  H   H823      1.0  0.93914  0.44698  0.39263  1.0000
  C   C474      1.0  0.96080  0.58905  0.16575  1.0000
  C   C475      1.0  0.58321  0.49698  0.43462  1.0000
  S   S110      1.0  0.91511  0.36142  0.19045  1.0000
  H   H824      1.0  0.47592  0.52130  0.06891  1.0000
  H   H825      1.0  0.48408  0.56896  0.12172  1.0000
  H   H826      1.0  0.69155  0.57724  0.22982  1.0000
  C   C476      1.0  0.67419  0.53866  0.19983  1.0000
  H   H827      1.0  0.66044  0.62206  0.14230  1.0000
  H   H828      1.0  0.77148  0.56848  0.43205  1.0000
  H   H829      1.0  0.47923  0.56776  0.06959  1.0000
  H   H830      1.0  0.67160  0.52614  0.22647  1.0000
  H   H831      1.0  0.52512  0.46627  0.09118  1.0000
  C   C477      1.0  0.94509  0.49694  0.22746  1.0000
  H   H832      1.0  0.48251  0.34945  0.45301  1.0000
  C   C478      1.0  0.81025  0.60125  0.45679  1.0000
  H   H833      1.0  0.83462  0.43805  0.43036  1.0000
  S   S111      1.0  0.84687  0.31938  0.23936  1.0000
  H   H834      1.0  0.95611  0.49379  0.30368  1.0000
  H   H835      1.0  0.66379  0.52768  0.46106  1.0000
  H   H836      1.0  0.73904  0.63409  0.12332  1.0000
  C   C479      1.0  0.86981  0.61555  0.43164  1.0000
  H   H837      1.0  0.82607  0.60066  0.21390  1.0000
  H   H838      1.0  0.96614  0.36032  0.21180  1.0000
  H   H839      1.0  0.77430  0.61444  0.41913  1.0000
  H   H840      1.0  0.71807  0.53459  0.42870  1.0000
  H   H841      1.0  0.79859  0.52529  0.48350  1.0000
  H   H842      1.0  0.87237  0.59830  0.42075  1.0000
  C   C480      1.0  0.64191  0.62030  0.15448  1.0000
  H   H843      1.0  0.87607  0.54570  0.45502  1.0000
  C   C481      1.0  0.89181  0.40394  0.46215  1.0000
  H   H844      1.0  0.53318  0.40101  0.42000  1.0000
  N   N27       1.0  0.74997  0.59751  0.22369  1.0000
  C   C482      1.0  0.74404  0.63564  0.18624  1.0000
  H   H845      1.0  0.77022  0.61741  0.47047  1.0000
  H   H846      1.0  0.74307  0.58967  0.44269  1.0000
  H   H847      1.0  0.72736  0.61408  0.25349  1.0000
  C   C483      1.0  0.79463  0.53397  0.45643  1.0000
  H   H848      1.0  0.84590  0.40281  0.45243  1.0000
  C   C484      1.0  0.49727  0.40480  0.43562  1.0000
  H   H849      1.0  0.78519  0.52113  0.39591  1.0000
  H   H850      1.0  0.47868  0.39546  0.19968  1.0000
  H   H851      1.0  0.78042  0.63183  0.18909  1.0000
  H   H852      1.0  0.95487  0.54064  0.22125  1.0000
  H   H853      1.0  0.62861  0.63070  0.10038  1.0000
  H   H854      1.0  0.52450  0.39437  0.47057  1.0000
  H   H855      1.0  0.87995  0.45611  0.46612  1.0000
  H   H856      1.0  0.57634  0.61554  0.19803  1.0000
  H   H857      1.0  0.95737  0.45222  0.18983  1.0000
  H   H858      1.0  0.76973  0.57341  0.48350  1.0000
  H   H859      1.0  0.50001  0.46745  0.44777  1.0000
  C   C485      1.0  0.76136  0.32156  0.15433  1.0000
  C   C486      1.0  0.49193  0.44608  0.43652  1.0000
  C   C487      1.0  0.89853  0.64141  0.43381  1.0000
  H   H860      1.0  0.91160  0.63874  0.45626  1.0000
  C   C488      1.0  0.97361  0.44749  0.19978  1.0000
  C   C489      1.0  0.83746  0.44540  0.46076  1.0000
  H   H861      1.0  0.50642  0.64886  0.15659  1.0000
  C   C490      1.0  0.85341  0.41149  0.48197  1.0000
  H   H862      1.0  0.49287  0.40476  0.40391  1.0000
  H   H863      1.0  0.97534  0.47286  0.06382  1.0000
  C   C491      1.0  0.74892  0.64982  0.14659  1.0000
  H   H864      1.0  0.78146  0.65000  0.25616  1.0000
  H   H865      1.0  0.53580  0.52894  0.78906  1.0000
  Fe  Fe56      1.0  0.87173  0.35820  0.64891  1.0000
  S   S112      1.0  0.87025  0.39584  0.62615  1.0000
  S   S113      1.0  0.90631  0.35105  0.63276  1.0000
  Fe  Fe57      1.0  0.84371  0.55428  0.73136  1.0000
  S   S114      1.0  0.87757  0.59004  0.69874  1.0000
  S   S115      1.0  0.80701  0.55333  0.76043  1.0000
  Fe  Fe58      1.0  0.87193  0.51912  0.72478  1.0000
  S   S116      1.0  0.90737  0.55198  0.69088  1.0000
  S   S117      1.0  0.87144  0.48054  0.74759  1.0000
  Fe  Fe59      1.0  0.90707  0.58147  0.73501  1.0000
  S   S118      1.0  0.94695  0.61489  0.76469  1.0000
  Fe  Fe60      1.0  0.87482  0.55722  0.65799  1.0000
  S   S119      1.0  0.86392  0.55279  0.59330  1.0000
  S   S120      1.0  0.87329  0.54821  0.77010  1.0000
  S   S121      1.0  0.83927  0.52185  0.68953  1.0000
  Fe  Fe61      1.0  0.62511  0.56569  0.73345  1.0000
  S   S122      1.0  0.64404  0.53763  0.73738  1.0000
  S   S123      1.0  0.59976  0.57213  0.78033  1.0000
  Fe  Fe62      1.0  0.63049  0.57044  0.64384  1.0000
  S   S124      1.0  0.64952  0.54357  0.64277  1.0000
  S   S125      1.0  0.61605  0.58158  0.58773  1.0000
  Fe  Fe63      1.0  0.61738  0.51595  0.68500  1.0000
  S   S126      1.0  0.59398  0.47175  0.66293  1.0000
  Fe  Fe64      1.0  0.67500  0.56760  0.69409  1.0000
  S   S127      1.0  0.72078  0.58369  0.68241  1.0000
  S   S128      1.0  0.59674  0.54155  0.68358  1.0000
  S   S129      1.0  0.65762  0.59691  0.69296  1.0000
  C   C492      1.0  0.51921  0.40352  0.72665  1.0000
  C   C493      1.0  0.51797  0.40692  0.68656  1.0000
  C   C494      1.0  0.54124  0.42765  0.66718  1.0000
  C   C495      1.0  0.56544  0.44564  0.68794  1.0000
  C   C496      1.0  0.56677  0.44194  0.72791  1.0000
  C   C497      1.0  0.54377  0.42080  0.74715  1.0000
  H   H866      1.0  0.49918  0.39349  0.67049  1.0000
  H   H867      1.0  0.54036  0.43004  0.63611  1.0000
  H   H868      1.0  0.58567  0.45520  0.74389  1.0000
  H   H869      1.0  0.54493  0.41797  0.77808  1.0000
  C   C498      1.0  0.78198  0.55925  0.73634  1.0000
  C   C499      1.0  0.78688  0.57226  0.69999  1.0000
  C   C500      1.0  0.76771  0.57923  0.68369  1.0000
  C   C501      1.0  0.74315  0.57264  0.70301  1.0000
  C   C502      1.0  0.73785  0.55882  0.73873  1.0000
  C   C503      1.0  0.75733  0.55247  0.75547  1.0000
  H   H870      1.0  0.80582  0.57775  0.68505  1.0000
  H   H871      1.0  0.77203  0.59002  0.65613  1.0000
  H   H872      1.0  0.71914  0.55376  0.75398  1.0000
  H   H873      1.0  0.75342  0.54252  0.78365  1.0000
  C   C504      1.0  0.66284  0.60449  0.54236  1.0000
  C   C505      1.0  0.63412  0.58729  0.54376  1.0000
  H   H874      1.0  0.57226  0.50558  0.83547  1.0000
  H   H875      1.0  0.67437  0.61404  0.56867  1.0000
  H   H876      1.0  0.85155  0.37823  0.54261  1.0000
  H   H877      1.0  0.91417  0.32705  0.80170  1.0000
  C   C506      1.0  0.90912  0.58880  0.54820  1.0000
  C   C507      1.0  0.88353  0.56425  0.55027  1.0000
  H   H878      1.0  0.93151  0.42199  0.52049  1.0000
  H   H879      1.0  0.52877  0.62907  0.86199  1.0000
  H   H880      1.0  0.85201  0.52995  0.51749  1.0000
  H   H881      1.0  0.96462  0.40421  0.81421  1.0000
  C   C508      1.0  0.96088  0.61558  0.81210  1.0000
  C   C509      1.0  0.85089  0.36541  0.79669  1.0000
  H   H882      1.0  0.80275  0.61626  0.75447  1.0000
  C   C510      1.0  0.60519  0.59310  0.82192  1.0000
  C   C511      1.0  0.58213  0.58809  0.84396  1.0000
  C   C512      1.0  0.58483  0.60529  0.87542  1.0000
  H   H883      1.0  0.56191  0.57101  0.83633  1.0000
  H   H884      1.0  0.56680  0.60148  0.89152  1.0000
  C   C513      1.0  0.87115  0.41954  0.66011  1.0000
  C   C514      1.0  0.86539  0.44030  0.64772  1.0000
  C   C515      1.0  0.86542  0.45917  0.67438  1.0000
  C   C516      1.0  0.87130  0.45734  0.71350  1.0000
  C   C517      1.0  0.87711  0.43660  0.72592  1.0000
  C   C518      1.0  0.87724  0.41785  0.69921  1.0000
  H   H885      1.0  0.86077  0.44176  0.61745  1.0000
  H   H886      1.0  0.86088  0.47511  0.66465  1.0000
  H   H887      1.0  0.88171  0.43517  0.75619  1.0000
  H   H888      1.0  0.88220  0.40221  0.70878  1.0000
  C   C519      1.0  0.93615  0.33924  0.80770  1.0000
  C   C520      1.0  0.96013  0.59455  0.87504  1.0000
  C   C521      1.0  0.56954  0.63817  0.78106  1.0000
  C   C522      1.0  0.60634  0.64391  0.73785  1.0000
  H   H889      1.0  0.93342  0.39517  0.83862  1.0000
  H   H890      1.0  0.56801  0.48844  0.75016  1.0000
  S   S130      1.0  0.54374  0.64897  0.95230  1.0000
  C   C523      1.0  0.59794  0.60984  0.68386  1.0000
  H   H891      1.0  0.91894  0.41525  0.78275  1.0000
  H   H892      1.0  0.92332  0.52713  0.86031  1.0000
  H   H893      1.0  0.93181  0.36615  0.91016  1.0000
  H   H894      1.0  0.74867  0.52189  0.62091  1.0000
  S   S131      1.0  0.86859  0.34250  0.70995  1.0000
  C   C524      1.0  0.52928  0.47447  0.78173  1.0000
  H   H895      1.0  0.85157  0.58909  0.81670  1.0000
  H   H896      1.0  0.85820  0.55464  0.85850  1.0000
  C   C525      1.0  0.51684  0.48166  0.63883  1.0000
  H   H897      1.0  0.86804  0.37777  0.77642  1.0000
  C   C526      1.0  0.87171  0.54903  0.51623  1.0000
  H   H898      1.0  0.82732  0.57843  0.59441  1.0000
  H   H899      1.0  0.89141  0.56670  0.88195  1.0000
  H   H900      1.0  0.76265  0.62151  0.56163  1.0000
  H   H901      1.0  0.91836  0.60087  0.57411  1.0000
  H   H902      1.0  0.53575  0.53201  0.73672  1.0000
  Fe  Fe65      1.0  0.52436  0.61241  0.99377  1.0000
  C   C527      1.0  0.85270  0.63195  0.79031  1.0000
  H   H903      1.0  0.91706  0.37373  0.95089  1.0000
  H   H904      1.0  0.85350  0.60488  0.86191  1.0000
  C   C528      1.0  0.93466  0.40871  0.77992  1.0000
  H   H905      1.0  0.80623  0.35336  0.59577  1.0000
  S   S132      1.0  0.94294  0.34977  0.72764  1.0000
  S   S133      1.0  0.49017  0.37870  0.75223  1.0000
  H   H906      1.0  0.92930  0.40916  0.89847  1.0000
  H   H907      1.0  0.94997  0.42186  0.75777  1.0000
  C   C529      1.0  0.79099  0.42312  0.75268  1.0000
  H   H908      1.0  0.56677  0.60636  0.72229  1.0000
  H   H909      1.0  0.91789  0.50190  0.65605  1.0000
  H   H910      1.0  0.78291  0.61352  0.79642  1.0000
  H   H911      1.0  0.57678  0.64705  0.84352  1.0000
  H   H912      1.0  0.95759  0.46090  0.90326  1.0000
  H   H913      1.0  0.48334  0.49254  0.74026  1.0000
  H   H914      1.0  0.80723  0.37709  0.65591  1.0000
  H   H915      1.0  0.48741  0.42991  0.73748  1.0000
  H   H916      1.0  0.94181  0.61753  0.51056  1.0000
  H   H917      1.0  0.96891  0.57603  0.73240  1.0000
  C   C530      1.0  0.94928  0.52004  0.72569  1.0000
  H   H918      1.0  0.52734  0.56630  0.76908  1.0000
  H   H919      1.0  0.89954  0.49084  0.85104  1.0000
  H   H920      1.0  0.88189  0.42683  0.55005  1.0000
  H   H921      1.0  0.50264  0.47947  0.61439  1.0000
  H   H922      1.0  0.94823  0.42356  0.94267  1.0000
  H   H923      1.0  0.56997  0.61862  0.78732  1.0000
  C   C531      1.0  0.93646  0.44642  0.57072  1.0000
  H   H924      1.0  0.52807  0.45387  0.78359  1.0000
  H   H925      1.0  0.81473  0.59768  0.81550  1.0000
  Fe  Fe66      1.0  0.58335  0.64875  0.96641  1.0000
  H   H926      1.0  0.84645  0.34354  0.79708  1.0000
  C   C532      1.0  0.82283  0.60002  0.54382  1.0000
  H   H927      1.0  0.72628  0.58176  0.59802  1.0000
  H   H928      1.0  0.93205  0.33086  0.86929  1.0000
  C   C533      1.0  0.58512  0.62335  0.70775  1.0000
  H   H929      1.0  0.95818  0.50520  0.89629  1.0000
  N   N28       1.0  0.87608  0.63405  0.81582  1.0000
  C   C534      1.0  0.80395  0.62459  0.78389  1.0000
  H   H930      1.0  0.63936  0.49849  0.51665  1.0000
  N   N29       1.0  0.50874  0.47377  0.75174  1.0000
  C   C535      1.0  0.52095  0.47854  0.71180  1.0000
  H   H931      1.0  0.95238  0.38100  0.95355  1.0000
  C   C536      1.0  0.95849  0.52700  0.68283  1.0000
  H   H932      1.0  0.89356  0.62246  0.76946  1.0000
  H   H933      1.0  0.90976  0.40318  0.56073  1.0000
  H   H934      1.0  0.93683  0.54718  0.77919  1.0000
  H   H935      1.0  0.57567  0.47678  0.81789  1.0000
  H   H936      1.0  0.79237  0.57136  0.58520  1.0000
  H   H937      1.0  0.94988  0.57724  0.89495  1.0000
  H   H938      1.0  0.52827  0.46355  0.70686  1.0000
  H   H939      1.0  0.53964  0.49931  0.70919  1.0000
  C   C537      1.0  0.96226  0.44039  0.83593  1.0000
  C   C538      1.0  0.61068  0.62802  0.88510  1.0000
  C   C539      1.0  0.89993  0.33373  0.51101  1.0000
  H   H940      1.0  0.79302  0.39174  0.78717  1.0000
  H   H941      1.0  0.81035  0.60995  0.53607  1.0000
  C   C540      1.0  0.67650  0.61049  0.50662  1.0000
  C   C541      1.0  0.56044  0.49524  0.77479  1.0000
  H   H942      1.0  0.83836  0.32187  0.53325  1.0000
  H   H943      1.0  0.53486  0.50313  0.63830  1.0000
  C   C542      1.0  0.95441  0.35215  0.77705  1.0000
  H   H944      1.0  0.74244  0.55362  0.57768  1.0000
  C   C543      1.0  0.94641  0.34155  0.84614  1.0000
  H   H945      1.0  0.94444  0.44335  0.84262  1.0000
  Fe  Fe67      1.0  0.90169  0.33277  0.69335  1.0000
  H   H946      1.0  0.92873  0.57518  0.83004  1.0000
  C   C544      1.0  0.57811  0.49740  0.81039  1.0000
  C   C545      1.0  0.93263  0.51057  0.80941  1.0000
  H   H947      1.0  0.94635  0.50879  0.62549  1.0000
  H   H948      1.0  0.52431  0.46673  0.63449  1.0000
  H   H949      1.0  0.78072  0.42526  0.72596  1.0000
  H   H950      1.0  0.90464  0.44791  0.51321  1.0000
  H   H951      1.0  0.87744  0.37141  0.52568  1.0000
  C   C546      1.0  0.94915  0.41067  0.81881  1.0000
  H   H952      1.0  0.59697  0.56321  0.50969  1.0000
  C   C547      1.0  0.93626  0.38098  0.93408  1.0000
  H   H953      1.0  0.84500  0.61622  0.54545  1.0000
  H   H954      1.0  0.92077  0.49395  0.78808  1.0000
  H   H955      1.0  0.70089  0.59057  0.58224  1.0000
  C   C548      1.0  0.86594  0.60638  0.83618  1.0000
  H   H956      1.0  0.61314  0.63181  0.75666  1.0000
  C   C549      1.0  0.94801  0.59335  0.83820  1.0000
  C   C550      1.0  0.76442  0.33440  0.75625  1.0000
  H   H957      1.0  0.84934  0.61833  0.76490  1.0000
  C   C551      1.0  0.79027  0.34204  0.61807  1.0000
  C   C552      1.0  0.63391  0.63243  0.86392  1.0000
  H   H958      1.0  0.97567  0.50795  0.78159  1.0000
  H   H959      1.0  0.89657  0.59412  0.82301  1.0000
  H   H960      1.0  0.69856  0.62456  0.50562  1.0000
  H   H961      1.0  0.94582  0.50455  0.82659  1.0000
  C   C553      1.0  0.97374  0.42186  0.89645  1.0000
  H   H962      1.0  0.81074  0.32976  0.53611  1.0000
  C   C554      1.0  0.51032  0.54446  0.76598  1.0000
  C   C555      1.0  0.88802  0.59849  0.84897  1.0000
  H   H963      1.0  0.70965  0.58446  0.51259  1.0000
  H   H964      1.0  0.86741  0.57596  0.90153  1.0000
  H   H965      1.0  0.77166  0.34359  0.61036  1.0000
  H   H966      1.0  0.71216  0.49679  0.61862  1.0000
  H   H967      1.0  0.49694  0.53888  0.79174  1.0000
  C   C556      1.0  0.92233  0.59824  0.51212  1.0000
  C   C557      1.0  0.89452  0.42659  0.52556  1.0000
  C   C558      1.0  0.82508  0.36678  0.78457  1.0000
  C   C559      1.0  0.52263  0.52541  0.76280  1.0000
  H   H968      1.0  0.76767  0.34380  0.78534  1.0000
  H   H969      1.0  0.93684  0.48359  0.66419  1.0000
  C   C560      1.0  0.63121  0.61517  0.83248  1.0000
  C   C561      1.0  0.93866  0.50380  0.65564  1.0000
  H   H970      1.0  0.51153  0.42023  0.57303  1.0000
  H   H971      1.0  0.76020  0.38082  0.76368  1.0000
  C   C562      1.0  0.81453  0.58765  0.58455  1.0000
  C   C563      1.0  0.95071  0.53922  0.78959  1.0000
  N   N30       1.0  0.78805  0.35243  0.72967  1.0000
  C   C564      1.0  0.79110  0.38105  0.72496  1.0000
  C   C565      1.0  0.91813  0.42259  0.54334  1.0000
  C   C566      1.0  0.81491  0.35470  0.74355  1.0000
  H   H972      1.0  0.94660  0.46653  0.55478  1.0000
  H   H973      1.0  0.52393  0.47831  0.81105  1.0000
  H   H974      1.0  0.97326  0.45540  0.81204  1.0000
  H   H975      1.0  0.49410  0.49081  0.67963  1.0000
  H   H976      1.0  0.81274  0.39663  0.71693  1.0000
  H   H977      1.0  0.77796  0.38133  0.70033  1.0000
  H   H978      1.0  0.51720  0.62231  0.81209  1.0000
  H   H979      1.0  0.73739  0.63094  0.54487  1.0000
  H   H980      1.0  0.72905  0.52035  0.55510  1.0000
  H   H981      1.0  0.83189  0.36836  0.72377  1.0000
  C   C567      1.0  0.61926  0.57606  0.50903  1.0000
  C   C568      1.0  0.69521  0.52897  0.50210  1.0000
  H   H982      1.0  0.81792  0.60420  0.60527  1.0000
  C   C569      1.0  0.50158  0.47579  0.67720  1.0000
  H   H983      1.0  0.68150  0.50662  0.57284  1.0000
  H   H984      1.0  0.90330  0.64814  0.89380  1.0000
  H   H985      1.0  0.48569  0.42595  0.80759  1.0000
  H   H986      1.0  0.63973  0.50124  0.56870  1.0000
  C   C570      1.0  0.49971  0.49450  0.76104  1.0000
  C   C571      1.0  0.78101  0.33878  0.69034  1.0000
  C   C572      1.0  0.49076  0.41505  0.56155  1.0000
  C   C573      1.0  0.78298  0.39280  0.75973  1.0000
  H   H987      1.0  0.72417  0.53000  0.64156  1.0000
  H   H988      1.0  0.95278  0.44279  0.58370  1.0000
  H   H989      1.0  0.83091  0.38901  0.78477  1.0000
  H   H990      1.0  0.82112  0.35429  0.66297  1.0000
  C   C574      1.0  0.49645  0.54039  0.88161  1.0000
  H   H991      1.0  0.60025  0.51200  0.80416  1.0000
  C   C575      1.0  0.87538  0.57233  0.87429  1.0000
  H   H992      1.0  0.90566  0.61514  0.86508  1.0000
  H   H993      1.0  0.91068  0.34334  0.53778  1.0000
  H   H994      1.0  0.56439  0.51618  0.76736  1.0000
  C   C576      1.0  0.82420  0.32663  0.51599  1.0000
  H   H995      1.0  0.48699  0.43247  0.56749  1.0000
  N   N31       1.0  0.96846  0.53971  0.75671  1.0000
  H   H996      1.0  0.81374  0.43623  0.74973  1.0000
  H   H997      1.0  0.85772  0.37410  0.82623  1.0000
  H   H998      1.0  0.78456  0.43094  0.77758  1.0000
  H   H999      1.0  0.64920  0.61926  0.81605  1.0000
  N   N32       1.0  0.69289  0.54324  0.53751  1.0000
  C   C577      1.0  0.71484  0.57359  0.53574  1.0000
  H   H1000     1.0  0.89791  0.51689  0.82133  1.0000
  C   C578      1.0  0.66494  0.54128  0.53872  1.0000
  C   C579      1.0  0.69663  0.52929  0.57313  1.0000
  C   C580      1.0  0.72549  0.53174  0.57837  1.0000
  C   C581      1.0  0.71982  0.59044  0.57353  1.0000
  C   C582      1.0  0.63959  0.51147  0.54087  1.0000
  H   H1001     1.0  0.61144  0.52423  0.56360  1.0000
  C   C583      1.0  0.53315  0.62364  0.83313  1.0000
  C   C584      1.0  0.72767  0.51930  0.61721  1.0000
  C   C585      1.0  0.74281  0.62056  0.56840  1.0000
  H   H1002     1.0  0.96354  0.55325  0.81336  1.0000
  C   C586      1.0  0.91217  0.51154  0.83725  1.0000
  H   H1003     1.0  0.73506  0.57602  0.52721  1.0000
  H   H1004     1.0  0.82975  0.56709  0.52443  1.0000
  H   H1005     1.0  0.66195  0.55222  0.51345  1.0000
  C   C587      1.0  0.94583  0.41006  0.91784  1.0000
  H   H1006     1.0  0.66370  0.55251  0.56415  1.0000
  H   H1007     1.0  0.69186  0.53709  0.59977  1.0000
  H   H1008     1.0  0.80914  0.35521  0.80667  1.0000
  H   H1009     1.0  0.74565  0.63202  0.59579  1.0000
  H   H1010     1.0  0.94470  0.49840  0.73174  1.0000
  C   C588      1.0  0.86198  0.37735  0.51584  1.0000
  H   H1011     1.0  0.55183  0.63228  0.76052  1.0000
  H   H1012     1.0  0.58243  0.59501  0.66285  1.0000
  H   H1013     1.0  0.92871  0.51873  0.72629  1.0000
  C   C589      1.0  0.82408  0.62032  0.80989  1.0000
  C   C590      1.0  0.48852  0.40922  0.51806  1.0000
  H   H1014     1.0  0.48972  0.48977  0.78976  1.0000
  H   H1015     1.0  0.51102  0.45350  0.50615  1.0000
  H   H1016     1.0  0.59471  0.49055  0.54121  1.0000
  H   H1017     1.0  0.53191  0.60310  0.83563  1.0000
  H   H1018     1.0  0.92406  0.38687  0.76964  1.0000
  C   C591      1.0  0.61249  0.51204  0.53909  1.0000
  H   H1019     1.0  0.76013  0.33467  0.68056  1.0000
  H   H1020     1.0  0.95844  0.54621  0.67345  1.0000
  H   H1021     1.0  0.49110  0.39086  0.51409  1.0000
  H   H1022     1.0  0.61067  0.52142  0.51137  1.0000
  H   H1023     1.0  0.83490  0.40078  0.50082  1.0000
  H   H1024     1.0  0.92399  0.44757  0.59461  1.0000
  C   C592      1.0  0.80183  0.35501  0.65768  1.0000
  H   H1025     1.0  0.74495  0.33301  0.74472  1.0000
  H   H1026     1.0  0.81387  0.33419  0.74195  1.0000
  H   H1027     1.0  0.53113  0.43703  0.50588  1.0000
  H   H1028     1.0  0.86242  0.45007  0.51124  1.0000
  H   H1029     1.0  0.68270  0.50597  0.50532  1.0000
  C   C593      1.0  0.48328  0.44513  0.75232  1.0000
  H   H1030     1.0  0.79582  0.56107  0.51648  1.0000
  H   H1031     1.0  0.57805  0.63406  0.68709  1.0000
  H   H1032     1.0  0.48353  0.45443  0.67551  1.0000
  H   H1033     1.0  0.60482  0.59822  0.70309  1.0000
  C   C594      1.0  0.56204  0.64579  0.82046  1.0000
  H   H1034     1.0  0.50557  0.52823  0.87001  1.0000
  H   H1035     1.0  0.61594  0.62572  0.66732  1.0000
  H   H1036     1.0  0.50817  0.55104  0.90836  1.0000
  H   H1037     1.0  0.49802  0.54300  0.73948  1.0000
  H   H1038     1.0  0.82560  0.63050  0.83784  1.0000
  H   H1039     1.0  0.97327  0.40472  0.87982  1.0000
  H   H1040     1.0  0.49885  0.55654  0.86022  1.0000
  H   H1041     1.0  0.71690  0.53347  0.49913  1.0000
  C   C595      1.0  0.97497  0.35727  0.85485  1.0000
  C   C596      1.0  0.81786  0.57729  0.51404  1.0000
  H   H1042     1.0  0.91766  0.64118  0.80633  1.0000
  H   H1043     1.0  0.81064  0.64702  0.78137  1.0000
  C   C597      1.0  0.89990  0.64008  0.78975  1.0000
  S   S134      1.0  0.49057  0.56774  0.98146  1.0000
  H   H1044     1.0  0.65405  0.64978  0.87129  1.0000
  C   C598      1.0  0.51099  0.43466  0.49552  1.0000
  N   N33       1.0  0.87586  0.40543  0.49593  1.0000
  H   H1045     1.0  0.77992  0.31824  0.69168  1.0000
  H   H1046     1.0  0.78480  0.31987  0.61805  1.0000
  C   C599      1.0  0.59760  0.96810  0.15137  1.0000
  C   C600      1.0  0.51731  0.66835  0.13935  1.0000
  C   C601      1.0  0.63254  0.75599  0.17930  1.0000
  C   C602      1.0  0.63613  0.71760  0.10572  1.0000
  C   C603      1.0  0.60625  0.70515  0.12126  1.0000
  H   H1047     1.0  0.49133  0.96727  0.24368  1.0000
  Fe  Fe68      1.0  0.57043  0.92205  0.06353  1.0000
  S   S135      1.0  0.53846  0.87703  0.05158  1.0000
  S   S136      1.0  0.58041  0.93518  0.12755  1.0000
  H   H1048     1.0  0.54719  0.96875  0.12660  1.0000
  H   H1049     1.0  0.51281  0.66303  0.10816  1.0000
  C   C604      1.0  0.60180  0.73589  0.16883  1.0000
  C   C605      1.0  0.56443  0.70902  0.12243  1.0000
  H   H1050     1.0  0.52985  0.95292  0.21778  1.0000
  H   H1051     1.0  0.58830  0.96836  0.32271  1.0000
  Fe  Fe69      1.0  0.56680  0.87791  0.00524  1.0000
  C   C606      1.0  0.60691  0.74804  0.09796  1.0000
  H   H1052     1.0  0.50115  0.80661  0.01465  1.0000
  C   C607      1.0  0.59731  0.76979  0.10074  1.0000
  H   H1053     1.0  0.52675  0.74797  0.05272  1.0000
  H   H1054     1.0  0.63196  0.67822  0.08788  1.0000
  C   C608      1.0  0.54132  0.76078  0.03080  1.0000
  H   H1055     1.0  0.64543  0.68856  0.13667  1.0000
  H   H1056     1.0  0.55156  0.68742  0.17905  1.0000
  H   H1057     1.0  0.53816  0.79719  0.04426  1.0000
  H   H1058     1.0  0.65766  0.78251  0.22654  1.0000
  H   H1059     1.0  0.56605  0.96462  0.25900  1.0000
  H   H1060     1.0  0.63542  0.80608  0.08141  1.0000
  C   C609      1.0  0.53686  0.97421  0.20611  1.0000
  C   C610      1.0  0.54843  0.68245  0.14773  1.0000
  H   H1061     1.0  0.62628  0.75218  0.24186  1.0000
  H   H1062     1.0  0.51125  0.94923  0.11267  1.0000
  C   C611      1.0  0.63540  0.76870  0.21929  1.0000
  S   S137      1.0  0.60004  0.92241  0.01937  1.0000
  C   C612      1.0  0.60251  0.96886  0.19168  1.0000
  H   H1063     1.0  0.62496  0.78129  0.21961  1.0000
  H   H1064     1.0  0.64249  0.77340  0.15832  1.0000
  H   H1065     1.0  0.58962  0.74614  0.17582  1.0000
  H   H1066     1.0  0.59660  0.94966  0.20717  1.0000
  C   C613      1.0  0.52603  0.95474  0.13748  1.0000
  H   H1067     1.0  0.57504  0.76029  0.09303  1.0000
  C   C614      1.0  0.56903  0.96959  0.32050  1.0000
  H   H1068     1.0  0.52488  0.93539  0.14894  1.0000
  H   H1069     1.0  0.60459  0.69308  0.14818  1.0000
  H   H1070     1.0  0.77808  0.66629  0.32065  1.0000
  H   H1071     1.0  0.60447  0.80813  0.07284  1.0000
  Fe  Fe70      1.0  0.52122  0.89429  0.00648  1.0000
  C   C615      1.0  0.61323  0.79402  0.07270  1.0000
  H   H1072     1.0  0.49667  0.95557  0.17567  1.0000
  H   H1073     1.0  0.62984  0.75982  0.09876  1.0000
  C   C616      1.0  0.64566  0.69614  0.10662  1.0000
  N   N34       1.0  0.59553  0.72500  0.12792  1.0000
  H   H1074     1.0  0.50250  0.82505  0.09070  1.0000
  C   C617      1.0  0.55393  0.74930  0.00814  1.0000
  H   H1075     1.0  0.50916  0.68219  0.14728  1.0000
  H   H1076     1.0  0.64401  0.74445  0.18067  1.0000
  H   H1077     1.0  0.55531  0.72234  0.12851  1.0000
  H   H1078     1.0  0.59298  0.68922  0.09947  1.0000
  H   H1079     1.0  0.66706  0.70563  0.09556  1.0000
  H   H1080     1.0  0.60125  0.73894  0.06827  1.0000
  H   H1081     1.0  0.55907  0.70251  0.09162  1.0000
  H   H1082     1.0  0.61161  0.78635  0.04271  1.0000
  H   H1083     1.0  0.48518  0.92265  0.04066  1.0000
  H   H1084     1.0  0.55112  0.94861  0.32617  1.0000
  H   H1085     1.0  0.59482  0.71843  0.18994  1.0000
  H   H1086     1.0  0.63679  0.72432  0.07506  1.0000
  H   H1087     1.0  0.60070  0.77860  0.13026  1.0000
  S   S138      1.0  0.55063  0.93859  0.02181  1.0000
  H   H1088     1.0  0.55511  0.66714  0.14184  1.0000
  H   H1089     1.0  0.65135  0.73581  0.12247  1.0000
  H   H1090     1.0  0.52238  0.96248  0.28417  1.0000
  H   H1091     1.0  0.89692  0.66000  0.44074  1.0000
  H   H1092     1.0  0.47748  0.75537  0.02394  1.0000
  C   C618      1.0  0.51890  0.96922  0.16879  1.0000
  C   C619      1.0  0.54766  0.78881  0.02599  1.0000
  H   H1093     1.0  0.48900  0.83030  0.01480  1.0000
  C   C620      1.0  0.56660  0.97980  0.28000  1.0000
  H   H1094     1.0  0.75307  0.65222  0.20842  1.0000
  S   S139      1.0  0.54568  0.71374  0.01676  1.0000
  S   S140      1.0  0.59488  0.67881  0.01678  1.0000
  Fe  Fe71      1.0  0.55389  0.67691  0.00502  1.0000
  H   H1095     1.0  0.50075  0.79204  0.08291  1.0000
  C   C621      1.0  0.54050  0.98294  0.27621  1.0000
  H   H1096     1.0  0.55869  0.98234  0.19724  1.0000
  C   C622      1.0  0.48841  0.80235  0.08787  1.0000
  H   H1097     1.0  0.47728  0.79439  0.11559  1.0000
  H   H1098     1.0  0.77143  0.66281  0.14107  1.0000
  H   H1099     1.0  0.73956  0.66341  0.14570  1.0000
  H   H1100     1.0  0.74592  0.65486  0.29447  1.0000
  C   C623      1.0  0.56646  0.80602  0.99785  1.0000
  C   C624      1.0  0.48179  0.80762  0.01518  1.0000
  H   H1101     1.0  0.57002  0.98417  0.34299  1.0000
  H   H1102     1.0  0.51952  0.97244  0.04040  1.0000
  C   C625      1.0  0.59218  0.67902  0.73633  1.0000
  H   H1103     1.0  0.64675  0.71203  0.76016  1.0000
  H   H1104     1.0  0.59357  0.80734  0.95321  1.0000
  Fe  Fe72      1.0  0.57834  0.93684  0.97637  1.0000
  S   S141      1.0  0.54771  0.89292  0.95912  1.0000
  C   C626      1.0  0.47819  0.81055  0.94422  1.0000
  H   H1105     1.0  0.61084  0.69151  0.71839  1.0000
  C   C627      1.0  0.66685  0.71107  0.81336  1.0000
  H   H1106     1.0  0.48453  0.72058  0.99146  1.0000
  C   C628      1.0  0.51853  0.83011  0.89798  1.0000
  H   H1107     1.0  0.89973  0.68945  0.91095  1.0000
  C   C629      1.0  0.59876  0.97694  0.82008  1.0000
  H   H1108     1.0  0.52690  0.92871  0.93629  1.0000
  C   C630      1.0  0.50639  0.81313  0.93498  1.0000
  N   N35       1.0  0.59639  0.65940  0.76253  1.0000
  H   H1109     1.0  0.59337  0.96195  0.79715  1.0000
  H   H1110     1.0  0.68781  0.72604  0.80262  1.0000
  H   H1111     1.0  0.92722  0.66788  0.85565  1.0000
  C   C631      1.0  0.58464  0.69916  0.75600  1.0000
  H   H1112     1.0  0.66856  0.69595  0.83303  1.0000
  C   C632      1.0  0.57891  0.79448  0.97501  1.0000
  C   C633      1.0  0.61819  0.67461  0.79342  1.0000
  C   C634      1.0  0.51018  0.90567  0.88379  1.0000
  C   C635      1.0  0.64746  0.69608  0.77911  1.0000
  H   H1113     1.0  0.50543  0.81900  0.87241  1.0000
  H   H1114     1.0  0.50258  0.88523  0.89840  1.0000
  H   H1115     1.0  0.49158  0.91833  0.92664  1.0000
  H   H1116     1.0  0.61187  0.68571  0.81361  1.0000
  H   H1117     1.0  0.58691  0.94609  0.86598  1.0000
  C   C636      1.0  0.47708  0.75537  0.99179  1.0000
  C   C637      1.0  0.59505  0.96785  0.85915  1.0000
  H   H1118     1.0  0.65911  0.72271  0.83004  1.0000
  H   H1119     1.0  0.59893  0.71061  0.78031  1.0000
  H   H1120     1.0  0.52149  0.82358  0.95885  1.0000
  C   C638      1.0  0.52222  0.95572  0.89394  1.0000
  H   H1121     1.0  0.49841  0.76968  0.98232  1.0000
  C   C639      1.0  0.91724  0.69152  0.89359  1.0000
  H   H1122     1.0  0.62041  0.65931  0.81193  1.0000
  H   H1123     1.0  0.52017  0.85078  0.89989  1.0000
  H   H1124     1.0  0.49547  0.90308  0.85987  1.0000
  C   C640      1.0  0.57280  0.76654  0.98008  1.0000
  H   H1125     1.0  0.65682  0.68574  0.76303  1.0000
  H   H1126     1.0  0.57956  0.73457  0.74161  1.0000
  C   C641      1.0  0.93645  0.67167  0.74175  1.0000
  H   H1127     1.0  0.93053  0.65402  0.72175  1.0000
  H   H1128     1.0  0.56274  0.66601  0.81955  1.0000
  S   S142      1.0  0.61460  0.65290  0.92053  1.0000
  H   H1129     1.0  0.53091  0.91235  0.87165  1.0000
  H   H1130     1.0  0.51135  0.95274  0.86546  1.0000
  H   H1131     1.0  0.53961  0.83326  0.89372  1.0000
  H   H1132     1.0  0.92395  0.70928  0.87307  1.0000
  H   H1133     1.0  0.60714  0.73396  0.71618  1.0000
  C   C642      1.0  0.51200  0.92685  0.91313  1.0000
  H   H1134     1.0  0.56311  0.68748  0.76661  1.0000
  H   H1135     1.0  0.57518  0.66720  0.71505  1.0000
  H   H1136     1.0  0.62486  0.65866  0.72108  1.0000
  H   H1137     1.0  0.91839  0.68552  0.78382  1.0000
  H   H1138     1.0  0.93482  0.69605  0.91364  1.0000
  H   H1139     1.0  0.57140  0.71064  0.70221  1.0000
  C   C643      1.0  0.58578  0.72085  0.72709  1.0000
  H   H1140     1.0  0.48144  0.83203  0.94630  1.0000
  H   H1141     1.0  0.95342  0.67371  0.76137  1.0000
  H   H1142     1.0  0.89573  0.66602  0.74401  1.0000
  H   H1143     1.0  0.58283  0.75840  0.96229  1.0000
  C   C644      1.0  0.90883  0.66469  0.87164  1.0000
  H   H1144     1.0  0.94428  0.69100  0.72422  1.0000
  C   C645      1.0  0.88361  0.65708  0.84453  1.0000
  S   S143      1.0  0.59812  0.97705  0.93924  1.0000
  S   S144      1.0  0.57522  0.84181  0.98997  1.0000
  H   H1145     1.0  0.54422  0.96291  0.88710  1.0000
  C   C646      1.0  0.91151  0.66710  0.76512  1.0000
  H   H1146     1.0  0.88701  0.67630  0.82923  1.0000
  H   H1147     1.0  0.51191  0.95437  0.97178  1.0000
  H   H1148     1.0  0.50400  0.79245  0.92964  1.0000
  H   H1149     1.0  0.86609  0.65172  0.86416  1.0000
  H   H1150     1.0  0.85808  0.65266  0.77806  1.0000
  H   H1151     1.0  0.54730  0.97707  0.96254  1.0000
  H   H1152     1.0  0.48865  0.97775  0.88025  1.0000
  N   N36       1.0  0.52029  0.97750  0.91734  1.0000
  C   C647      1.0  0.52646  0.97515  0.95963  1.0000
  C   C648      1.0  0.49250  0.97559  0.91146  1.0000
