data_image0
_chemical_formula_structural       FeH2FeS2FeSFeCS2FeS2FeSCFeSFeS3H2C3H2SHC2HCH2CHCH2C6H5CSNHC5HC2H3C2H2CHSH7C2H2SHCH2C2HCH4C2H5CH4CH2CHCNH5CH2C2H11C5H3CH2NHNH5CHCH3C3H4CHCH5C2H2SHCHCH2FeCH4CHC5H3SH5CHNC2HCH3CHC2H2C2HCHC2HCSCHCH3SC2H2CH3CH2CHSC2H3CH2SCH4CH2SHFeH4CH3NH3CH2C2H2CHCH2CFeHCSH4SCH3CH4SH2CH3C2H3CHSH3SCNC2HC2HCSCH2C2H2CHCH2C2HNHC4H2C2H3CH9C2H8CH4CHC4H2CH4CH15C2HCH2CH2C2H2C2NH2C2FeS2FeS2FeCFeS3FeS2FeSCFeSFeHSC2HCHSH3C6H2C7H4NH2C2HC2H2NC6HCHC2H7C2H5SH2C2H7C2N2C2H4CH3SHCHCH3C2H5C2HCHCH2CH7C2H5C2HCH3C2H5CH3C2H2CH3CH4C2H3C2H2CH3CHCH5CH2CH3CHCH3CHCHC2H5C2H4CH2CHC2H9C3H3NH5CH10C3H4CH3CH2C2HCHFeS2H4SFeS2C3SHFeS2HCS2FeS2HCH3FeCHFeHC6H2SH3NC6H7C2HNC8SCHCH14CSH7CH4CNC12H24C2H2SHC3H2FeHS2CHCHC2HSFeH5C2HCHC2SH2C3H2FeCH4CH3CH2FeH2CHCH3FeCSCH2FeS2HCFeHS5CFeS2FeCSHC2H4SFeS2CHNHCHC6H4CH2C7H2CH6CHC3H3CHSH3NC11H23CHCH5C2FeHFeCHSH2SFeH2CSHFeC2H3CHCHCSHFeHSH2SHFeH3CFeH4CH4CH4SCH3CNHC2HC3H17C2HCH2C2HCFeSHFeS2FeSFeS2HFeSHFeS2FeSFeS3H5NHC2HC6H4C2HCHCHC2H2CH3C3H4C2H4CHCH2C2HCHCH7CHCHNCHCH3CHC3H2CHCHCSHCH6CHCHCH2C2H4NH4SH2CHCNHC3H2CHCH2CH7SHC2H2CHC2H3CH2CHCSHCFeS2H3CH2C2H2CH2C5H2CH3NC8HC2H4CH12CH8CH10CH4SC3H2CH4CH4CFeH6C3H4C2H2CNH2SC2H3FeS2CH3CHCHNH2CHCHCHC4H2SCH2C2HC3H2CHCH2CH3CH2FeCHCNCH2C2H2CH3CHNHCH2C5HC2H2C2H4FeH4CH2SH8C2H12FeHCFeSNFeS2FeSFeS3FeSHFeS2FeSFeSHSCH3CHCH2C6H4CHC3H2C3H10SH2CH2C5HC6H2C4HSH3SH10C2HC2NHCHC4HC3HNC4H2CH9CHCH3C2HC2H10CHCHSH3C2H10C2H3CH18C2
_chemical_formula_sum              "Fe64 H1024 S128 C576 N32"
_cell_length_a       44.1769
_cell_length_b       40.3742
_cell_length_c       38.994
_cell_angle_alpha    89.9184
_cell_angle_beta     89.1342
_cell_angle_gamma    90.3032

_space_group_name_H-M_alt    "P 1"
_space_group_IT_number       1

loop_
  _space_group_symop_operation_xyz
  'x, y, z'

loop_
  _atom_site_type_symbol
  _atom_site_label
  _atom_site_symmetry_multiplicity
  _atom_site_fract_x
  _atom_site_fract_y
  _atom_site_fract_z
  _atom_site_occupancy
  Fe  Fe1       1.0  0.16334  0.41101  0.47811  1.0000
  H   H1        1.0  0.03286  0.47426  0.03445  1.0000
  H   H2        1.0  0.01719  0.41976  0.08085  1.0000
  Fe  Fe2       1.0  0.17865  0.38801  0.40470  1.0000
  S   S1        1.0  0.15615  0.33880  0.41273  1.0000
  S   S2        1.0  0.19735  0.40511  0.35257  1.0000
  Fe  Fe3       1.0  0.11862  0.36769  0.43814  1.0000
  S   S3        1.0  0.07085  0.36101  0.41788  1.0000
  Fe  Fe4       1.0  0.17882  0.33812  0.46443  1.0000
  C   C1        1.0  0.29474  0.34353  0.13504  1.0000
  S   S4        1.0  0.14008  0.41724  0.42773  1.0000
  S   S5        1.0  0.20434  0.38576  0.45469  1.0000
  Fe  Fe5       1.0  0.17026  0.36380  0.15332  1.0000
  S   S6        1.0  0.14620  0.33268  0.11409  1.0000
  S   S7        1.0  0.17105  0.33973  0.20654  1.0000
  Fe  Fe6       1.0  0.18557  0.41742  0.09930  1.0000
  S   S8        1.0  0.16395  0.38874  0.05693  1.0000
  C   C2        1.0  0.09654  0.41466  0.33620  1.0000
  Fe  Fe7       1.0  0.12590  0.37989  0.09503  1.0000
  S   S9        1.0  0.07837  0.39707  0.08203  1.0000
  Fe  Fe8       1.0  0.18661  0.34364  0.07944  1.0000
  S   S10       1.0  0.20410  0.29957  0.04708  1.0000
  S   S11       1.0  0.14682  0.41013  0.13678  1.0000
  S   S12       1.0  0.21133  0.37317  0.11945  1.0000
  H   H3        1.0  0.10086  0.29165  0.43347  1.0000
  H   H4        1.0  0.26887  0.21548  0.17042  1.0000
  C   C3        1.0  0.04358  0.37515  0.08468  1.0000
  C   C4        1.0  0.25736  0.29596  0.14261  1.0000
  C   C5        1.0  0.04231  0.34063  0.08710  1.0000
  H   H5        1.0  0.27783  0.28533  0.21962  1.0000
  H   H6        1.0  0.06305  0.32657  0.08821  1.0000
  S   S13       1.0  0.20040  0.47155  0.09482  1.0000
  H   H7        1.0  0.10384  0.24836  0.42275  1.0000
  C   C6        1.0  0.27613  0.23993  0.15970  1.0000
  C   C7        1.0  0.04162  0.38794  0.29682  1.0000
  H   H8        1.0  0.09624  0.48099  0.11944  1.0000
  C   C8        1.0  0.23914  0.27881  0.03869  1.0000
  H   H9        1.0  0.06180  0.34425  0.19020  1.0000
  H   H10       1.0  0.30790  0.06083  0.03406  1.0000
  C   C9        1.0  0.03585  0.35467  0.43968  1.0000
  H   H11       1.0  0.15006  0.25693  0.11342  1.0000
  C   C10       1.0  0.03392  0.34833  0.47492  1.0000
  H   H12       1.0  0.13549  0.26937  0.44188  1.0000
  H   H13       1.0  0.11930  0.39078  0.29318  1.0000
  C   C11       1.0  0.18887  0.38687  0.31227  1.0000
  C   C12       1.0  0.19056  0.40637  0.28233  1.0000
  C   C13       1.0  0.18479  0.39256  0.24979  1.0000
  C   C14       1.0  0.17776  0.35887  0.24680  1.0000
  C   C15       1.0  0.17625  0.33935  0.27669  1.0000
  C   C16       1.0  0.18169  0.35323  0.30922  1.0000
  H   H14       1.0  0.19644  0.43234  0.28432  1.0000
  H   H15       1.0  0.18621  0.40790  0.22704  1.0000
  H   H16       1.0  0.17109  0.31321  0.27467  1.0000
  H   H17       1.0  0.18084  0.33779  0.33191  1.0000
  H   H18       1.0  0.13056  0.29103  0.50118  1.0000
  C   C17       1.0  0.25798  0.26925  0.22484  1.0000
  S   S14       1.0  0.32849  0.22157  0.01836  1.0000
  N   N1        1.0  0.24936  0.26305  0.15875  1.0000
  H   H19       1.0  0.09243  0.42093  0.28170  1.0000
  C   C18       1.0  0.10711  0.33000  0.32303  1.0000
  C   C19       1.0  0.09094  0.48099  0.04807  1.0000
  C   C20       1.0  0.31766  0.01570  0.06174  1.0000
  C   C21       1.0  0.10627  0.30081  0.34800  1.0000
  C   C22       1.0  0.20928  0.48294  0.02505  1.0000
  H   H20       1.0  0.04912  0.39241  0.22769  1.0000
  C   C23       1.0  0.30629  0.27460  0.46604  1.0000
  C   C24       1.0  0.09810  0.25816  0.47722  1.0000
  H   H21       1.0  0.10794  0.23389  0.48408  1.0000
  H   H22       1.0  0.28993  0.20894  0.47161  1.0000
  H   H23       1.0  0.11900  0.45386  0.36438  1.0000
  C   C25       1.0  0.17201  0.24374  0.11462  1.0000
  C   C26       1.0  0.31795  0.16795  0.48516  1.0000
  H   H24       1.0  0.14162  0.43643  0.33024  1.0000
  H   H25       1.0  0.12330  0.34844  0.33313  1.0000
  C   C27       1.0  0.19442  0.26403  0.13562  1.0000
  H   H26       1.0  0.11868  0.42606  0.02135  1.0000
  S   S15       1.0  0.13911  0.36305  0.49017  1.0000
  H   H27       1.0  0.09759  0.30887  0.37348  1.0000
  H   H28       1.0  0.30447  0.15049  0.46949  1.0000
  H   H29       1.0  0.28872  0.27187  0.48659  1.0000
  H   H30       1.0  0.29829  0.25911  0.44436  1.0000
  H   H31       1.0  0.08847  0.40423  0.22812  1.0000
  H   H32       1.0  0.07665  0.46244  0.06197  1.0000
  H   H33       1.0  0.05425  0.34832  0.48981  1.0000
  C   C28       1.0  0.10595  0.28533  0.50379  1.0000
  C   C29       1.0  0.26558  0.22970  0.01615  1.0000
  H   H34       1.0  0.03714  0.39543  0.32386  1.0000
  H   H35       1.0  0.25600  0.31398  0.45283  1.0000
  S   S16       1.0  0.19672  0.28831  0.48440  1.0000
  H   H36       1.0  0.09434  0.30811  0.49509  1.0000
  C   C30       1.0  0.11840  0.44408  0.33781  1.0000
  H   H37       1.0  0.27530  0.34506  0.42754  1.0000
  H   H38       1.0  0.06692  0.42728  0.01366  1.0000
  C   C31       1.0  0.29369  0.24336  0.02465  1.0000
  C   C32       1.0  0.07777  0.36538  0.19302  1.0000
  H   H39       1.0  0.30349  0.33342  0.11034  1.0000
  C   C33       1.0  0.07260  0.38286  0.22740  1.0000
  H   H40       1.0  0.30105  0.25714  0.11337  1.0000
  H   H41       1.0  0.30531  0.02323  0.08458  1.0000
  H   H42       1.0  0.10387  0.39603  0.35524  1.0000
  H   H43       1.0  0.06427  0.33621  0.25410  1.0000
  C   C34       1.0  0.26727  0.29275  0.04647  1.0000
  C   C35       1.0  0.11982  0.48396  0.07004  1.0000
  H   H44       1.0  0.01402  0.34254  0.30340  1.0000
  H   H45       1.0  0.22194  0.29092  0.19505  1.0000
  H   H46       1.0  0.19687  0.28862  0.12326  1.0000
  H   H47       1.0  0.27339  0.30306  0.41211  1.0000
  H   H48       1.0  0.33662  0.22227  0.14615  1.0000
  C   C36       1.0  0.28383  0.31553  0.15866  1.0000
  H   H49       1.0  0.25803  0.28165  0.27907  1.0000
  H   H50       1.0  0.27604  0.32703  0.18308  1.0000
  H   H51       1.0  0.21978  0.24740  0.20084  1.0000
  H   H52       1.0  0.23760  0.31280  0.14371  1.0000
  C   C37       1.0  0.24215  0.28216  0.25727  1.0000
  H   H53       1.0  0.22153  0.22066  0.14571  1.0000
  H   H54       1.0  0.23471  0.30816  0.25347  1.0000
  C   C38       1.0  0.23586  0.26794  0.19432  1.0000
  H   H55       1.0  0.13012  0.45914  0.07357  1.0000
  C   C39       1.0  0.22561  0.24661  0.13688  1.0000
  N   N2        1.0  0.33652  0.26239  0.47856  1.0000
  H   H56       1.0  0.22210  0.26659  0.26397  1.0000
  H   H57       1.0  0.27727  0.22152  0.10612  1.0000
  H   H58       1.0  0.30370  0.29975  0.16359  1.0000
  H   H59       1.0  0.23346  0.24491  0.10969  1.0000
  H   H60       1.0  0.21702  0.23617  0.01693  1.0000
  C   C40       1.0  0.29249  0.23362  0.12473  1.0000
  H   H61       1.0  0.26640  0.24392  0.23035  1.0000
  H   H62       1.0  0.29373  0.24892  0.17740  1.0000
  C   C41       1.0  0.07817  0.35895  0.25789  1.0000
  C   C42       1.0  0.11037  0.26754  0.44167  1.0000
  H   H63       1.0  0.31243  0.18645  0.13949  1.0000
  H   H64       1.0  0.31332  0.35748  0.14748  1.0000
  H   H65       1.0  0.04009  0.41126  0.28167  1.0000
  H   H66       1.0  0.07401  0.38303  0.17161  1.0000
  H   H67       1.0  0.00971  0.22374  0.16244  1.0000
  H   H68       1.0  0.01955  0.24866  0.12557  1.0000
  H   H69       1.0  0.07402  0.42388  0.34439  1.0000
  H   H70       1.0  0.21446  0.45687  0.02288  1.0000
  H   H71       1.0  0.05982  0.32470  0.31267  1.0000
  H   H72       1.0  0.26219  0.29278  0.11485  1.0000
  H   H73       1.0  0.18070  0.24030  0.08798  1.0000
  C   C43       1.0  0.29425  0.27499  0.03989  1.0000
  C   C44       1.0  0.09606  0.39981  0.29947  1.0000
  C   C45       1.0  0.30531  0.31113  0.45363  1.0000
  C   C46       1.0  0.31914  0.03710  0.03315  1.0000
  C   C47       1.0  0.27569  0.31861  0.43541  1.0000
  H   H74       1.0  0.30652  0.32824  0.47587  1.0000
  H   H75       1.0  0.12952  0.29102  0.35117  1.0000
  H   H76       1.0  0.11104  0.46429  0.32054  1.0000
  C   C48       1.0  0.33148  0.22853  0.49422  1.0000
  H   H77       1.0  0.07321  0.25526  0.47505  1.0000
  H   H78       1.0  0.26826  0.31726  0.05759  1.0000
  N   N3        1.0  0.07279  0.37303  0.29332  1.0000
  H   H79       1.0  0.06765  0.35398  0.34507  1.0000
  N   N4        1.0  0.09502  0.47137  0.01068  1.0000
  H   H80       1.0  0.11589  0.32058  0.29818  1.0000
  H   H81       1.0  0.31580  0.28593  0.04653  1.0000
  H   H82       1.0  0.18423  0.26750  0.16153  1.0000
  H   H83       1.0  0.27609  0.36105  0.12985  1.0000
  H   H84       1.0  0.32435  0.31673  0.43564  1.0000
  C   C49       1.0  0.31970  0.21085  0.12893  1.0000
  H   H85       1.0  0.16798  0.21912  0.12662  1.0000
  C   C50       1.0  0.01642  0.39305  0.08275  1.0000
  H   H86       1.0  0.09160  0.28062  0.33822  1.0000
  H   H87       1.0  0.10141  0.35620  0.19084  1.0000
  H   H88       1.0  0.10210  0.35076  0.25487  1.0000
  C   C51       1.0  0.07530  0.34545  0.31925  1.0000
  C   C52       1.0  0.23857  0.24726  0.02323  1.0000
  C   C53       1.0  0.31452  0.20320  0.47152  1.0000
  H   H89       1.0  0.01040  0.35999  0.39327  1.0000
  H   H90       1.0  0.32300  0.20396  0.44461  1.0000
  H   H91       1.0  0.14306  0.46056  0.01583  1.0000
  H   H92       1.0  0.22180  0.22656  0.50697  1.0000
  C   C54       1.0  0.01409  0.32418  0.08694  1.0000
  H   H93       1.0  0.01611  0.35743  0.25988  1.0000
  C   C55       1.0  0.01468  0.36510  0.28715  1.0000
  H   H94       1.0  0.02954  0.26284  0.16769  1.0000
  H   H95       1.0  0.33071  0.20672  0.10346  1.0000
  H   H96       1.0  0.01331  0.29744  0.08780  1.0000
  H   H97       1.0  0.01045  0.42229  0.01201  1.0000
  H   H98       1.0  0.34204  0.16024  0.48377  1.0000
  C   C56       1.0  0.01197  0.24956  0.15284  1.0000
  C   C57       1.0  0.00918  0.35517  0.42056  1.0000
  H   H99       1.0  0.26497  0.23078  0.78439  1.0000
  H   H100      1.0  0.03421  0.49148  0.99176  1.0000
  S   S17       1.0  0.30524  0.25386  0.58619  1.0000
  H   H101      1.0  0.15311  0.39275  0.98097  1.0000
  C   C58       1.0  0.09113  0.33887  0.56081  1.0000
  H   H102      1.0  0.22938  0.23843  0.80592  1.0000
  C   C59       1.0  0.06742  0.45172  0.00018  1.0000
  H   H103      1.0  0.26324  0.00126  0.93271  1.0000
  H   H104      1.0  0.17713  0.31290  0.94486  1.0000
  Fe  Fe9       1.0  0.32898  0.20537  0.60111  1.0000
  C   C60       1.0  0.11205  0.24610  0.55245  1.0000
  H   H105      1.0  0.06807  0.33602  0.57210  1.0000
  H   H106      1.0  0.32862  0.28866  0.52600  1.0000
  H   H107      1.0  0.20905  0.15807  0.92286  1.0000
  H   H108      1.0  0.17753  0.42894  0.97866  1.0000
  C   C61       1.0  0.25382  0.26192  0.86746  1.0000
  H   H109      1.0  0.32034  0.19357  0.72886  1.0000
  C   C62       1.0  0.01032  0.44542  0.99649  1.0000
  C   C63       1.0  0.29856  0.26668  0.90298  1.0000
  C   C64       1.0  0.12989  0.43864  0.96844  1.0000
  C   C65       1.0  0.15773  0.41633  0.96709  1.0000
  C   C66       1.0  0.27385  0.26259  0.55920  1.0000
  H   H110      1.0  0.32559  0.21722  0.78736  1.0000
  H   H111      1.0  0.15194  0.24219  0.51798  1.0000
  H   H112      1.0  0.08869  0.34728  0.53405  1.0000
  S   S18       1.0  0.33065  0.18804  0.85399  1.0000
  H   H113      1.0  0.24129  0.16526  0.94962  1.0000
  H   H114      1.0  0.05697  0.24258  0.58899  1.0000
  H   H115      1.0  0.24669  0.15527  0.90463  1.0000
  H   H116      1.0  0.21460  0.30549  0.89897  1.0000
  H   H117      1.0  0.26325  0.21198  0.54671  1.0000
  C   C67       1.0  0.32283  0.17738  0.75072  1.0000
  H   H118      1.0  0.22060  0.20777  0.88895  1.0000
  N   N5        1.0  0.26546  0.25697  0.90336  1.0000
  C   C68       1.0  0.32217  0.14307  0.74589  1.0000
  C   C69       1.0  0.26309  0.22132  0.91476  1.0000
  H   H119      1.0  0.06831  0.44603  0.97232  1.0000
  C   C70       1.0  0.33405  0.02718  0.00302  1.0000
  H   H120      1.0  0.25514  0.27249  0.79646  1.0000
  H   H121      1.0  0.26065  0.30399  0.93021  1.0000
  H   H122      1.0  0.20190  0.26588  0.91454  1.0000
  C   C71       1.0  0.25755  0.23768  0.54249  1.0000
  H   H123      1.0  0.19802  0.28689  0.97339  1.0000
  C   C72       1.0  0.24248  0.30422  0.53057  1.0000
  C   C73       1.0  0.23109  0.20564  0.91448  1.0000
  H   H124      1.0  0.22032  0.49382  0.97204  1.0000
  H   H125      1.0  0.09387  0.38975  0.57854  1.0000
  C   C74       1.0  0.10706  0.36649  0.58049  1.0000
  C   C75       1.0  0.26601  0.29586  0.55313  1.0000
  H   H126      1.0  0.31697  0.23953  0.94671  1.0000
  C   C76       1.0  0.21551  0.28802  0.92098  1.0000
  H   H127      1.0  0.27866  0.20548  0.89932  1.0000
  C   C77       1.0  0.22630  0.27935  0.51372  1.0000
  C   C78       1.0  0.05088  0.26786  0.58030  1.0000
  H   H128      1.0  0.26728  0.21394  0.84480  1.0000
  C   C79       1.0  0.24902  0.27946  0.92853  1.0000
  S   S19       1.0  0.31721  0.12541  0.70463  1.0000
  C   C80       1.0  0.06369  0.27419  0.54360  1.0000
  H   H129      1.0  0.30197  0.27939  0.95829  1.0000
  C   C81       1.0  0.23223  0.16881  0.92345  1.0000
  H   H130      1.0  0.16353  0.41035  0.94000  1.0000
  H   H131      1.0  0.24995  0.26904  0.95495  1.0000
  H   H132      1.0  0.21645  0.21763  0.93415  1.0000
  S   S20       1.0  0.30830  0.15437  0.60517  1.0000
  C   C82       1.0  0.32468  0.12223  0.77466  1.0000
  C   C83       1.0  0.20021  0.30470  0.95177  1.0000
  H   H133      1.0  0.22923  0.25663  0.86616  1.0000
  H   H134      1.0  0.10827  0.24276  0.58054  1.0000
  C   C84       1.0  0.26892  0.24076  0.83879  1.0000
  H   H135      1.0  0.27842  0.31540  0.56579  1.0000
  H   H136      1.0  0.27103  0.21865  0.94153  1.0000
  H   H137      1.0  0.29306  0.24767  0.83507  1.0000
  C   C85       1.0  0.15939  0.21203  0.56216  1.0000
  H   H138      1.0  0.25641  0.28845  0.85993  1.0000
  H   H139      1.0  0.10904  0.35982  0.60800  1.0000
  C   C86       1.0  0.25355  0.24608  0.80436  1.0000
  H   H140      1.0  0.10976  0.29849  0.59015  1.0000
  S   S21       1.0  0.31024  0.15035  0.94833  1.0000
  C   C87       1.0  0.03016  0.43192  0.52389  1.0000
  C   C88       1.0  0.32562  0.19065  0.78394  1.0000
  H   H141      1.0  0.21339  0.32664  0.96026  1.0000
  H   H142      1.0  0.30145  0.29210  0.89215  1.0000
  H   H143      1.0  0.13302  0.31194  0.55564  1.0000
  C   C89       1.0  0.31457  0.26557  0.93815  1.0000
  H   H144      1.0  0.13004  0.37130  0.56949  1.0000
  H   H145      1.0  0.04325  0.45541  0.52165  1.0000
  S   S22       1.0  0.16223  0.44566  0.52436  1.0000
  C   C90       1.0  0.10906  0.30592  0.56267  1.0000
  H   H146      1.0  0.18414  0.21069  0.55694  1.0000
  H   H147      1.0  0.31196  0.24999  0.88604  1.0000
  H   H148      1.0  0.13513  0.46068  0.95234  1.0000
  H   H149      1.0  0.11107  0.42459  0.95678  1.0000
  C   C91       1.0  0.14671  0.24339  0.54587  1.0000
  H   H150      1.0  0.02563  0.42631  0.55139  1.0000
  H   H151      1.0  0.15572  0.21233  0.59040  1.0000
  S   S23       1.0  0.33286  0.05133  0.96498  1.0000
  H   H152      1.0  0.15902  0.26487  0.55672  1.0000
  Fe  Fe10      1.0  0.33366  0.15028  0.65514  1.0000
  H   H153      1.0  0.05577  0.25289  0.52802  1.0000
  H   H154      1.0  0.01225  0.43890  0.96888  1.0000
  H   H155      1.0  0.26460  0.20527  0.00486  1.0000
  H   H156      1.0  0.05976  0.28581  0.59916  1.0000
  C   C92       1.0  0.32804  0.13550  0.80787  1.0000
  H   H157      1.0  0.00906  0.29558  0.57366  1.0000
  H   H158      1.0  0.32985  0.11917  0.82975  1.0000
  H   H159      1.0  0.10099  0.22422  0.54051  1.0000
  N   N6        1.0  0.09761  0.27784  0.54066  1.0000
  H   H160      1.0  0.32401  0.09565  0.77121  1.0000
  H   H161      1.0  0.23694  0.32994  0.52614  1.0000
  H   H162      1.0  0.26941  0.00279  0.60410  1.0000
  C   C93       1.0  0.03626  0.46835  0.00689  1.0000
  H   H163      1.0  0.04420  0.41167  0.51290  1.0000
  H   H164      1.0  0.14852  0.18962  0.55121  1.0000
  C   C94       1.0  0.23400  0.24606  0.51993  1.0000
  C   C95       1.0  0.32819  0.16982  0.81269  1.0000
  H   H165      1.0  0.05231  0.29618  0.53239  1.0000
  H   H166      1.0  0.31820  0.23061  0.51852  1.0000
  C   C96       1.0  0.16517  0.48953  0.52432  1.0000
  H   H167      1.0  0.16160  0.49262  0.57942  1.0000
  C   C97       1.0  0.01634  0.27027  0.58103  1.0000
  H   H168      1.0  0.30978  0.16625  0.51222  1.0000
  H   H169      1.0  0.27248  0.00791  0.97696  1.0000
  C   C98       1.0  0.12212  0.44904  0.00587  1.0000
  Fe  Fe11      1.0  0.34137  0.10711  0.95946  1.0000
  H   H170      1.0  0.25540  0.89273  0.36380  1.0000
  C   C99       1.0  0.28120  0.89876  0.03963  1.0000
  S   S24       1.0  0.30681  0.80379  0.46476  1.0000
  H   H171      1.0  0.24512  0.83874  0.47836  1.0000
  H   H172      1.0  0.23252  0.77306  0.35566  1.0000
  H   H173      1.0  0.28395  0.74408  0.37130  1.0000
  H   H174      1.0  0.08422  0.58359  0.02122  1.0000
  S   S25       1.0  0.32624  0.86103  0.12232  1.0000
  C   C100      1.0  0.28020  0.82878  0.37096  1.0000
  H   H175      1.0  0.13712  0.58553  0.43437  1.0000
  H   H176      1.0  0.23387  0.90356  0.11261  1.0000
  H   H177      1.0  0.23508  0.85291  0.02554  1.0000
  C   C101      1.0  0.19481  0.53016  0.05947  1.0000
  H   H178      1.0  0.28063  0.76298  0.31669  1.0000
  H   H179      1.0  0.26274  0.80194  0.31544  1.0000
  H   H180      1.0  0.22696  0.77038  0.06875  1.0000
  H   H181      1.0  0.21215  0.63281  0.04345  1.0000
  S   S26       1.0  0.20653  0.72602  0.01611  1.0000
  H   H182      1.0  0.06808  0.57481  0.43634  1.0000
  H   H183      1.0  0.32351  0.85631  0.01404  1.0000
  C   C102      1.0  0.17080  0.54257  0.49519  1.0000
  H   H184      1.0  0.28478  0.77048  0.40748  1.0000
  H   H185      1.0  0.08762  0.61375  0.43791  1.0000
  H   H186      1.0  0.32666  0.71861  0.13990  1.0000
  C   C103      1.0  0.20096  0.49607  0.05698  1.0000
  C   C104      1.0  0.24924  0.86564  0.47435  1.0000
  H   H187      1.0  0.13688  0.50042  0.05789  1.0000
  H   H188      1.0  0.27637  0.79764  0.08072  1.0000
  H   H189      1.0  0.19206  0.57699  0.03268  1.0000
  C   C105      1.0  0.28014  0.89163  0.36826  1.0000
  H   H190      1.0  0.25154  0.76633  0.47081  1.0000
  S   S27       1.0  0.33555  0.79480  0.04451  1.0000
  H   H191      1.0  0.28731  0.77368  0.25231  1.0000
  H   H192      1.0  0.31672  0.82641  0.29811  1.0000
  H   H193      1.0  0.25901  0.67243  0.01277  1.0000
  S   S28       1.0  0.33351  0.89341  0.44463  1.0000
  C   C106      1.0  0.32571  0.79439  0.36561  1.0000
  N   N7        1.0  0.29219  0.79574  0.35885  1.0000
  C   C107      1.0  0.26040  0.76874  0.49635  1.0000
  C   C108      1.0  0.24235  0.74596  0.02258  1.0000
  H   H194      1.0  0.06630  0.59315  0.06181  1.0000
  C   C109      1.0  0.24192  0.76934  0.38160  1.0000
  C   C110      1.0  0.11606  0.57208  0.42747  1.0000
  H   H195      1.0  0.25536  0.83029  0.36725  1.0000
  C   C111      1.0  0.27256  0.58666  0.05931  1.0000
  S   S29       1.0  0.32671  0.95734  0.09637  1.0000
  C   C112      1.0  0.25405  0.91072  0.06209  1.0000
  H   H196      1.0  0.10636  0.65428  0.47001  1.0000
  H   H197      1.0  0.33175  0.74683  0.33814  1.0000
  C   C113      1.0  0.19699  0.55091  0.03042  1.0000
  C   C114      1.0  0.26975  0.64955  0.02282  1.0000
  H   H198      1.0  0.00979  0.59512  0.06521  1.0000
  H   H199      1.0  0.25426  0.62938  0.01487  1.0000
  C   C115      1.0  0.29815  0.68824  0.10747  1.0000
  H   H200      1.0  0.23825  0.73183  0.42191  1.0000
  C   C116      1.0  0.27402  0.78218  0.05827  1.0000
  H   H201      1.0  0.09458  0.71326  0.47556  1.0000
  H   H202      1.0  0.03993  0.61717  0.46516  1.0000
  C   C117      1.0  0.29904  0.77723  0.03643  1.0000
  C   C118      1.0  0.28461  0.78983  0.32160  1.0000
  H   H203      1.0  0.17376  0.55640  0.47161  1.0000
  N   N8        1.0  0.27225  0.65145  0.06139  1.0000
  H   H204      1.0  0.27454  0.90443  0.11195  1.0000
  C   C119      1.0  0.24218  0.66197  0.07665  1.0000
  C   C120      1.0  0.29501  0.67846  0.06922  1.0000
  C   C121      1.0  0.28262  0.61928  0.07723  1.0000
  C   C122      1.0  0.03594  0.57299  0.02332  1.0000
  H   H205      1.0  0.22724  0.87880  0.47466  1.0000
  H   H206      1.0  0.33026  0.80234  0.39242  1.0000
  C   C123      1.0  0.21493  0.63859  0.07091  1.0000
  C   C124      1.0  0.18544  0.65423  0.08376  1.0000
  H   H207      1.0  0.28591  0.58283  0.03531  1.0000
  H   H208      1.0  0.27627  0.81681  0.25557  1.0000
  H   H209      1.0  0.27289  0.90632  0.49709  1.0000
  C   C125      1.0  0.08873  0.58750  0.44576  1.0000
  H   H210      1.0  0.13373  0.49868  0.12081  1.0000
  H   H211      1.0  0.24356  0.66434  0.10496  1.0000
  H   H212      1.0  0.23619  0.68703  0.06694  1.0000
  H   H213      1.0  0.27057  0.53364  0.06825  1.0000
  H   H214      1.0  0.28428  0.89301  0.39617  1.0000
  H   H215      1.0  0.31803  0.67121  0.06013  1.0000
  H   H216      1.0  0.27516  0.61800  0.10462  1.0000
  H   H217      1.0  0.03947  0.54744  0.03274  1.0000
  H   H218      1.0  0.24851  0.58684  0.05216  1.0000
  C   C126      1.0  0.24598  0.76658  0.05142  1.0000
  C   C127      1.0  0.22911  0.73685  0.39604  1.0000
  H   H219      1.0  0.29111  0.91350  0.35583  1.0000
  H   H220      1.0  0.27786  0.70208  0.11642  1.0000
  H   H221      1.0  0.06605  0.66141  0.46812  1.0000
  H   H222      1.0  0.21786  0.61528  0.08559  1.0000
  H   H223      1.0  0.18669  0.66001  0.11155  1.0000
  H   H224      1.0  0.18073  0.67736  0.06934  1.0000
  H   H225      1.0  0.16635  0.63671  0.07979  1.0000
  H   H226      1.0  0.25521  0.93807  0.06524  1.0000
  C   C128      1.0  0.27734  0.55645  0.08220  1.0000
  H   H227      1.0  0.23214  0.90448  0.05010  1.0000
  H   H228      1.0  0.18842  0.54056  0.08407  1.0000
  H   H229      1.0  0.25438  0.86811  0.09671  1.0000
  H   H230      1.0  0.28942  0.70153  0.05498  1.0000
  C   C129      1.0  0.25433  0.89560  0.09798  1.0000
  H   H231      1.0  0.26309  0.55816  0.10585  1.0000
  C   C130      1.0  0.08581  0.66104  0.48515  1.0000
  C   C131      1.0  0.06344  0.59367  0.03356  1.0000
  C   C132      1.0  0.29531  0.79916  0.25808  1.0000
  C   C133      1.0  0.27705  0.76907  0.38047  1.0000
  H   H232      1.0  0.28384  0.83147  0.39909  1.0000
  H   H233      1.0  0.28467  0.87204  0.04481  1.0000
  C   C134      1.0  0.30844  0.80088  0.29407  1.0000
  H   H234      1.0  0.12389  0.53674  0.01843  1.0000
  H   H235      1.0  0.23381  0.78961  0.39862  1.0000
  H   H236      1.0  0.33837  0.81242  0.34943  1.0000
  H   H237      1.0  0.08738  0.55607  0.48949  1.0000
  C   C135      1.0  0.29351  0.85996  0.35304  1.0000
  H   H238      1.0  0.31839  0.86141  0.35587  1.0000
  H   H239      1.0  0.30151  0.55430  0.08927  1.0000
  H   H240      1.0  0.28771  0.86010  0.32551  1.0000
  H   H241      1.0  0.23489  0.71586  0.37880  1.0000
  H   H242      1.0  0.11449  0.58844  0.49288  1.0000
  H   H243      1.0  0.26017  0.86905  0.44878  1.0000
  H   H244      1.0  0.20406  0.73846  0.39828  1.0000
  H   H245      1.0  0.30190  0.91090  0.04977  1.0000
  H   H246      1.0  0.31487  0.62677  0.01586  1.0000
  H   H247      1.0  0.06093  0.61977  0.02505  1.0000
  H   H248      1.0  0.32846  0.78443  0.29444  1.0000
  H   H249      1.0  0.30781  0.61827  0.07801  1.0000
  H   H250      1.0  0.10311  0.52290  0.10402  1.0000
  H   H251      1.0  0.11330  0.57379  0.39927  1.0000
  H   H252      1.0  0.30100  0.66602  0.12387  1.0000
  C   C136      1.0  0.09075  0.58316  0.48521  1.0000
  C   C137      1.0  0.16846  0.50776  0.49396  1.0000
  H   H253      1.0  0.07832  0.50468  0.05035  1.0000
  C   C138      1.0  0.03837  0.60493  0.49055  1.0000
  H   H254      1.0  0.02982  0.57950  0.48496  1.0000
  H   H255      1.0  0.29233  0.86743  0.49896  1.0000
  C   C139      1.0  0.26994  0.87944  0.50202  1.0000
  H   H256      1.0  0.11835  0.54555  0.43461  1.0000
  H   H257      1.0  0.31305  0.80602  0.23886  1.0000
  C   C140      1.0  0.33153  0.98445  0.06081  1.0000
  C   C141      1.0  0.32538  0.71119  0.11254  1.0000
  H   H258      1.0  0.32315  0.73401  0.09677  1.0000
  H   H259      1.0  0.28751  0.95733  0.01342  1.0000
  C   C142      1.0  0.09012  0.69654  0.49772  1.0000
  C   C143      1.0  0.28770  0.78618  0.50116  1.0000
  N   N9        1.0  0.06889  0.60279  0.50737  1.0000
  H   H260      1.0  0.16949  0.49501  0.46959  1.0000
  H   H261      1.0  0.33532  0.74422  0.38387  1.0000
  C   C144      1.0  0.11259  0.49754  0.10575  1.0000
  C   C145      1.0  0.34051  0.75985  0.36100  1.0000
  Fe  Fe12      1.0  0.12634  0.69251  0.59820  1.0000
  S   S30       1.0  0.13093  0.63880  0.61100  1.0000
  S   S31       1.0  0.08053  0.71634  0.58889  1.0000
  Fe  Fe13      1.0  0.19555  0.70458  0.59763  1.0000
  S   S32       1.0  0.20461  0.65104  0.61097  1.0000
  S   S33       1.0  0.23481  0.74232  0.59436  1.0000
  Fe  Fe14      1.0  0.16895  0.63848  0.57221  1.0000
  C   C146      1.0  0.32368  0.89180  0.59870  1.0000
  Fe  Fe15      1.0  0.16568  0.65584  0.64901  1.0000
  S   S34       1.0  0.16247  0.63034  0.70141  1.0000
  S   S35       1.0  0.16234  0.69175  0.55672  1.0000
  S   S36       1.0  0.15881  0.70997  0.63853  1.0000
  Fe  Fe16      1.0  0.13223  0.65050  0.95098  1.0000
  S   S37       1.0  0.16021  0.62180  0.91269  1.0000
  S   S38       1.0  0.08387  0.63063  0.94726  1.0000
  Fe  Fe17      1.0  0.18936  0.68785  0.97675  1.0000
  S   S39       1.0  0.22001  0.66080  0.94001  1.0000
  C   C147      1.0  0.25690  0.87205  0.53842  1.0000
  Fe  Fe18      1.0  0.18377  0.66957  0.90083  1.0000
  S   S40       1.0  0.19338  0.69119  0.84759  1.0000
  Fe  Fe19      1.0  0.19317  0.61523  0.95541  1.0000
  H   H262      1.0  0.25870  0.88275  0.95713  1.0000
  S   S41       1.0  0.15416  0.69931  0.93674  1.0000
  C   C148      1.0  0.29561  0.63398  0.96609  1.0000
  C   C149      1.0  0.04850  0.64877  0.95727  1.0000
  H   H263      1.0  0.31698  0.88697  0.54473  1.0000
  C   C150      1.0  0.04580  0.67743  0.97711  1.0000
  H   H264      1.0  0.03544  0.57241  0.99484  1.0000
  S   S42       1.0  0.17173  0.60346  0.52642  1.0000
  H   H265      1.0  0.25235  0.64901  0.67207  1.0000
  H   H266      1.0  0.22126  0.60364  0.66589  1.0000
  H   H267      1.0  0.30705  0.84618  0.97305  1.0000
  C   C151      1.0  0.26087  0.69025  0.70562  1.0000
  C   C152      1.0  0.30878  0.89938  0.98424  1.0000
  C   C153      1.0  0.23862  0.83765  0.64454  1.0000
  C   C154      1.0  0.08646  0.56009  0.59518  1.0000
  C   C155      1.0  0.04657  0.69286  0.59040  1.0000
  C   C156      1.0  0.04588  0.66066  0.60358  1.0000
  H   H268      1.0  0.20191  0.55022  0.68927  1.0000
  H   H269      1.0  0.06629  0.64974  0.61331  1.0000
  C   C157      1.0  0.08179  0.63658  0.51554  1.0000
  C   C158      1.0  0.16853  0.64866  0.74209  1.0000
  C   C159      1.0  0.16565  0.62887  0.77171  1.0000
  C   C160      1.0  0.17220  0.64179  0.80436  1.0000
  C   C161      1.0  0.18223  0.67453  0.80762  1.0000
  C   C162      1.0  0.18465  0.69446  0.77808  1.0000
  C   C163      1.0  0.17758  0.68173  0.74551  1.0000
  H   H270      1.0  0.15869  0.60325  0.76932  1.0000
  H   H271      1.0  0.17044  0.62616  0.82686  1.0000
  H   H272      1.0  0.19234  0.71984  0.78037  1.0000
  H   H273      1.0  0.17986  0.69727  0.72297  1.0000
  N   N10       1.0  0.27860  0.90567  0.00171  1.0000
  H   H274      1.0  0.25104  0.70085  0.72958  1.0000
  H   H275      1.0  0.29739  0.95806  0.95174  1.0000
  C   C164      1.0  0.27021  0.92674  0.56078  1.0000
  C   C165      1.0  0.09331  0.57202  0.55866  1.0000
  H   H276      1.0  0.21484  0.84639  0.64370  1.0000
  C   C166      1.0  0.28257  0.77510  0.56248  1.0000
  C   C167      1.0  0.25512  0.75786  0.55771  1.0000
  H   H277      1.0  0.25917  0.58781  0.66422  1.0000
  H   H278      1.0  0.29148  0.77737  0.58805  1.0000
  N   N11       1.0  0.06696  0.67316  0.83790  1.0000
  C   C168      1.0  0.08811  0.64642  0.85002  1.0000
  C   C169      1.0  0.07923  0.70710  0.84717  1.0000
  C   C170      1.0  0.03496  0.76893  0.65383  1.0000
  C   C171      1.0  0.06111  0.67078  0.79995  1.0000
  C   C172      1.0  0.08924  0.67140  0.77579  1.0000
  C   C173      1.0  0.07815  0.61012  0.84323  1.0000
  H   H279      1.0  0.28191  0.61082  0.96522  1.0000
  C   C174      1.0  0.11415  0.71170  0.84706  1.0000
  H   H280      1.0  0.25073  0.85072  0.66534  1.0000
  C   C175      1.0  0.08048  0.66440  0.73869  1.0000
  C   C176      1.0  0.10231  0.58571  0.85474  1.0000
  H   H281      1.0  0.22318  0.74152  0.52018  1.0000
  H   H282      1.0  0.09166  0.64908  0.87808  1.0000
  H   H283      1.0  0.11101  0.64924  0.83833  1.0000
  H   H284      1.0  0.26650  0.60987  0.84277  1.0000
  H   H285      1.0  0.07189  0.71404  0.87373  1.0000
  H   H286      1.0  0.10615  0.56484  0.96426  1.0000
  H   H287      1.0  0.28607  0.94541  0.61102  1.0000
  C   C177      1.0  0.01688  0.68989  0.98557  1.0000
  C   C178      1.0  0.01234  0.69474  0.84949  1.0000
  H   H288      1.0  0.10602  0.65250  0.78304  1.0000
  H   H289      1.0  0.09998  0.69626  0.77604  1.0000
  H   H290      1.0  0.05023  0.75311  0.66914  1.0000
  H   H291      1.0  0.23182  0.89920  0.98624  1.0000
  H   H292      1.0  0.06806  0.64885  0.53591  1.0000
  S   S43       1.0  0.16427  0.64136  0.99439  1.0000
  H   H293      1.0  0.12407  0.69731  0.86838  1.0000
  H   H294      1.0  0.12485  0.70320  0.82290  1.0000
  C   C179      1.0  0.26722  0.74152  0.00040  1.0000
  C   C180      1.0  0.24422  0.75463  0.52436  1.0000
  H   H295      1.0  0.26490  0.72608  0.97793  1.0000
  H   H296      1.0  0.10100  0.66584  0.72188  1.0000
  H   H297      1.0  0.07068  0.63913  0.73634  1.0000
  H   H298      1.0  0.06393  0.68292  0.72955  1.0000
  H   H299      1.0  0.12415  0.59052  0.84109  1.0000
  H   H300      1.0  0.10567  0.58770  0.88284  1.0000
  H   H301      1.0  0.09495  0.56001  0.84894  1.0000
  C   C181      1.0  0.02217  0.63299  0.94561  1.0000
  C   C182      1.0  0.16408  0.50653  0.55581  1.0000
  N   N12       1.0  0.27212  0.88980  0.56764  1.0000
  N   N13       1.0  0.26020  0.62779  0.72229  1.0000
  C   C183      1.0  0.24113  0.59717  0.71661  1.0000
  C   C184      1.0  0.25614  0.63877  0.75910  1.0000
  H   H302      1.0  0.01488  0.71182  0.00134  1.0000
  H   H303      1.0  0.22303  0.65653  0.70234  1.0000
  H   H304      1.0  0.02084  0.72037  0.85310  1.0000
  H   H305      1.0  0.20454  0.84427  0.97255  1.0000
  C   C185      1.0  0.20681  0.53810  0.99888  1.0000
  H   H306      1.0  0.26905  0.66195  0.76400  1.0000
  H   H307      1.0  0.23194  0.64481  0.76424  1.0000
  H   H308      1.0  0.10320  0.55084  0.54433  1.0000
  S   S44       1.0  0.21355  0.56398  0.96267  1.0000
  H   H309      1.0  0.05718  0.60376  0.85783  1.0000
  C   C186      1.0  0.12756  0.55070  0.96560  1.0000
  H   H310      1.0  0.24988  0.57562  0.73091  1.0000
  C   C187      1.0  0.26811  0.95022  0.59224  1.0000
  H   H311      1.0  0.30747  0.64075  0.72786  1.0000
  H   H312      1.0  0.07768  0.58078  0.61119  1.0000
  H   H313      1.0  0.31290  0.88582  0.62380  1.0000
  C   C188      1.0  0.21269  0.50397  0.99631  1.0000
  C   C189      1.0  0.22422  0.55176  0.67576  1.0000
  H   H314      1.0  0.11465  0.76347  0.83090  1.0000
  H   H315      1.0  0.25857  0.84474  0.54136  1.0000
  H   H316      1.0  0.27789  0.83360  0.61211  1.0000
  H   H317      1.0  0.21789  0.60087  0.72740  1.0000
  H   H318      1.0  0.29725  0.57015  0.69958  1.0000
  C   C190      1.0  0.16974  0.55955  0.52665  1.0000
  C   C191      1.0  0.25259  0.71355  0.67638  1.0000
  H   H319      1.0  0.32611  0.91679  0.99441  1.0000
  C   C192      1.0  0.22601  0.83081  0.97689  1.0000
  H   H320      1.0  0.24585  0.94699  0.60554  1.0000
  C   C193      1.0  0.30646  0.58761  0.71880  1.0000
  H   H321      1.0  0.31441  0.75287  0.99024  1.0000
  H   H322      1.0  0.29150  0.61240  0.78657  1.0000
  C   C194      1.0  0.23733  0.58671  0.67862  1.0000
  H   H323      1.0  0.23246  0.62737  0.82601  1.0000
  H   H324      1.0  0.06591  0.68966  0.98644  1.0000
  H   H325      1.0  0.06963  0.72642  0.83012  1.0000
  H   H326      1.0  0.11073  0.59167  0.56001  1.0000
  H   H327      1.0  0.26664  0.65206  0.82752  1.0000
  H   H328      1.0  0.04961  0.56214  0.53717  1.0000
  H   H329      1.0  0.07749  0.51816  0.99283  1.0000
  C   C195      1.0  0.24804  0.65493  0.69960  1.0000
  C   C196      1.0  0.25459  0.84336  0.60999  1.0000
  H   H330      1.0  0.14609  0.56827  0.97171  1.0000
  H   H331      1.0  0.24214  0.82844  0.59089  1.0000
  H   H332      1.0  0.28590  0.68996  0.70756  1.0000
  H   H333      1.0  0.31791  0.62918  0.95360  1.0000
  H   H334      1.0  0.28419  0.65371  0.95138  1.0000
  C   C197      1.0  0.29332  0.62282  0.71335  1.0000
  C   C198      1.0  0.03709  0.66854  0.85687  1.0000
  H   H335      1.0  0.11371  0.75729  0.87704  1.0000
  C   C199      1.0  0.26646  0.61437  0.78720  1.0000
  H   H336      1.0  0.23746  0.82590  0.95186  1.0000
  H   H337      1.0  0.30088  0.57746  0.74448  1.0000
  H   H338      1.0  0.04092  0.66816  0.88509  1.0000
  C   C200      1.0  0.26038  0.99118  0.95909  1.0000
  C   C201      1.0  0.12301  0.74796  0.85227  1.0000
  H   H339      1.0  0.30753  0.90436  0.95625  1.0000
  H   H340      1.0  0.24980  0.93259  0.54546  1.0000
  H   H341      1.0  0.26310  0.70508  0.65187  1.0000
  H   H342      1.0  0.14809  0.75016  0.85282  1.0000
  H   H343      1.0  0.10460  0.63435  0.52701  1.0000
  C   C202      1.0  0.29883  0.78904  0.53443  1.0000
  H   H344      1.0  0.07440  0.60590  0.81552  1.0000
  H   H345      1.0  0.03601  0.76082  0.62664  1.0000
  H   H346      1.0  0.30611  0.85142  0.56806  1.0000
  C   C203      1.0  0.25373  0.88568  0.98505  1.0000
  C   C204      1.0  0.25500  0.88069  0.60019  1.0000
  H   H347      1.0  0.23588  0.99092  0.96588  1.0000
  H   H348      1.0  0.10760  0.55087  0.60687  1.0000
  C   C205      1.0  0.16642  0.54136  0.55703  1.0000
  H   H349      1.0  0.04764  0.64810  0.79428  1.0000
  H   H350      1.0  0.23830  0.81069  0.65043  1.0000
  H   H351      1.0  0.23100  0.88881  0.59825  1.0000
  C   C206      1.0  0.01869  0.64244  0.60418  1.0000
  H   H352      1.0  0.05193  0.60022  0.55976  1.0000
  H   H353      1.0  0.16562  0.55410  0.58140  1.0000
  H   H354      1.0  0.22763  0.71460  0.67341  1.0000
  H   H355      1.0  0.06961  0.53959  0.59506  1.0000
  C   C207      1.0  0.12544  0.52397  0.99330  1.0000
  C   C208      1.0  0.32157  0.86396  0.98696  1.0000
  H   H356      1.0  0.26410  0.89408  0.62262  1.0000
  H   H357      1.0  0.04676  0.69173  0.79152  1.0000
  H   H358      1.0  0.26102  0.73895  0.68176  1.0000
  C   C209      1.0  0.25747  0.62679  0.82296  1.0000
  C   C210      1.0  0.27343  0.95622  0.96067  1.0000
  H   H359      1.0  0.31273  0.66914  0.00203  1.0000
  H   H360      1.0  0.02002  0.73163  0.56781  1.0000
  C   C211      1.0  0.30027  0.64515  0.00305  1.0000
  H   H361      1.0  0.23222  0.87775  0.53856  1.0000
  H   H362      1.0  0.32700  0.91894  0.59639  1.0000
  H   H363      1.0  0.01848  0.61742  0.61419  1.0000
  C   C212      1.0  0.06424  0.58440  0.54090  1.0000
  H   H364      1.0  0.26071  0.94024  0.94270  1.0000
  C   C213      1.0  0.01965  0.70677  0.57823  1.0000
  H   H365      1.0  0.14668  0.50960  0.99199  1.0000
  H   H366      1.0  0.13260  0.53949  0.94017  1.0000
  H   H367      1.0  0.22083  0.54559  0.64831  1.0000
  H   H368      1.0  0.29797  0.62880  0.68583  1.0000
  H   H369      1.0  0.25621  0.58948  0.78418  1.0000
  C   C214      1.0  0.09724  0.50178  0.98828  1.0000
  H   H370      1.0  0.02407  0.61078  0.93026  1.0000
  H   H371      1.0  0.32016  0.80160  0.53845  1.0000
  C   C215      1.0  0.30471  0.87886  0.56846  1.0000
  H   H372      1.0  0.02655  0.64431  0.85057  1.0000
  H   H373      1.0  0.23988  0.53333  0.68686  1.0000
  H   H374      1.0  0.06943  0.70522  0.51148  1.0000
  C   C216      1.0  0.24676  0.85072  0.00026  1.0000
  H   H375      1.0  0.28983  0.93510  0.54456  1.0000
  C   C217      1.0  0.34090  0.58770  0.71447  1.0000
  H   H376      1.0  0.29258  0.99117  0.56775  1.0000
  H   H377      1.0  0.04331  0.79489  0.65505  1.0000
  H   H378      1.0  0.25191  0.99309  0.56381  1.0000
  C   C218      1.0  0.27177  0.94217  0.99771  1.0000
  H   H379      1.0  0.10957  0.69819  0.51526  1.0000
  C   C219      1.0  0.27064  0.98649  0.58120  1.0000
  H   H380      1.0  0.02077  0.64806  0.51948  1.0000
  C   C220      1.0  0.29533  0.75688  0.00742  1.0000
  C   C221      1.0  0.01329  0.62303  0.51148  1.0000
  H   H381      1.0  0.22042  0.80660  0.98908  1.0000
  H   H382      1.0  0.26736  0.83593  0.00431  1.0000
  H   H383      1.0  0.09595  0.49488  0.96070  1.0000
  H   H384      1.0  0.24866  0.94777  0.00783  1.0000
  H   H385      1.0  0.51203  0.12260  0.02244  1.0000
  C   C222      1.0  0.37717  0.08242  0.08600  1.0000
  C   C223      1.0  0.46940  0.07184  0.01105  1.0000
  H   H386      1.0  0.42656  0.02031  0.08591  1.0000
  H   H387      1.0  0.50138  0.05124  0.04762  1.0000
  H   H388      1.0  0.36041  0.99680  0.47436  1.0000
  H   H389      1.0  0.38688  0.03902  0.05575  1.0000
  C   C224      1.0  0.44408  0.02017  0.03259  1.0000
  H   H390      1.0  0.43473  0.07760  0.07052  1.0000
  H   H391      1.0  0.35303  0.21714  0.50214  1.0000
  C   C225      1.0  0.38947  0.06626  0.05329  1.0000
  H   H392      1.0  0.36002  0.05835  0.47694  1.0000
  C   C226      1.0  0.35862  0.04411  0.50044  1.0000
  C   C227      1.0  0.40829  0.24249  0.42162  1.0000
  H   H393      1.0  0.42240  0.10282  0.03670  1.0000
  H   H394      1.0  0.41928  0.26704  0.42517  1.0000
  H   H395      1.0  0.44700  0.00049  0.48640  1.0000
  H   H396      1.0  0.35066  0.31122  0.49543  1.0000
  H   H397      1.0  0.60370  0.99721  0.48810  1.0000
  H   H398      1.0  0.34682  0.25718  0.42416  1.0000
  H   H399      1.0  0.66905  0.13214  0.07238  1.0000
  H   H400      1.0  0.35302  0.07539  0.08986  1.0000
  H   H401      1.0  0.47476  0.05245  0.50457  1.0000
  C   C228      1.0  0.66419  0.19010  0.46074  1.0000
  C   C229      1.0  0.49242  0.07585  0.04029  1.0000
  C   C230      1.0  0.66244  0.04172  0.01392  1.0000
  H   H402      1.0  0.65390  0.03350  0.06787  1.0000
  H   H403      1.0  0.38998  0.07389  0.10863  1.0000
  H   H404      1.0  0.36921  0.28700  0.44525  1.0000
  N   N14       1.0  0.43956  0.05529  0.02006  1.0000
  H   H405      1.0  0.59968  0.00442  0.41560  1.0000
  H   H406      1.0  0.44892  0.10150  0.50269  1.0000
  H   H407      1.0  0.51934  0.07890  0.50149  1.0000
  H   H408      1.0  0.37547  0.21079  0.44605  1.0000
  H   H409      1.0  0.49824  0.11670  0.49676  1.0000
  C   C231      1.0  0.38465  0.23614  0.44992  1.0000
  H   H410      1.0  0.48236  0.08805  0.06314  1.0000
  H   H411      1.0  0.39644  0.23622  0.47472  1.0000
  H   H412      1.0  0.65453  0.03512  0.46554  1.0000
  H   H413      1.0  0.37499  0.07436  0.03191  1.0000
  H   H414      1.0  0.65464  0.06704  0.01451  1.0000
  H   H415      1.0  0.42605  0.22314  0.42259  1.0000
  H   H416      1.0  0.53629  0.09862  0.04942  1.0000
  H   H417      1.0  0.39767  0.24160  0.39599  1.0000
  H   H418      1.0  0.37871  0.10984  0.08399  1.0000
  H   H419      1.0  0.43779  0.15897  0.48725  1.0000
  C   C232      1.0  0.35874  0.26202  0.44866  1.0000
  C   C233      1.0  0.42280  0.07660  0.04575  1.0000
  C   C234      1.0  0.35892  0.00923  0.49889  1.0000
  H   H420      1.0  0.66859  0.20880  0.48096  1.0000
  H   H421      1.0  0.57351  0.01194  0.46359  1.0000
  H   H422      1.0  0.42444  0.00420  0.02555  1.0000
  H   H423      1.0  0.46398  0.00892  0.01926  1.0000
  C   C235      1.0  0.44800  0.01508  0.07184  1.0000
  H   H424      1.0  0.55410  0.12512  0.49102  1.0000
  H   H425      1.0  0.64691  0.17207  0.47023  1.0000
  H   H426      1.0  0.46563  0.03143  0.08252  1.0000
  C   C236      1.0  0.66179  0.02255  0.04407  1.0000
  H   H427      1.0  0.53663  0.00435  0.50847  1.0000
  H   H428      1.0  0.65495  0.20305  0.43807  1.0000
  C   C237      1.0  0.51947  0.09706  0.02859  1.0000
  C   C238      1.0  0.66292  0.02270  0.48806  1.0000
  H   H429      1.0  0.56666  0.99652  0.08629  1.0000
  C   C239      1.0  0.34683  0.28599  0.50612  1.0000
  H   H430      1.0  0.39614  0.28091  0.50682  1.0000
  Fe  Fe20      1.0  0.39187  0.18050  0.62532  1.0000
  S   S45       1.0  0.37504  0.12818  0.63002  1.0000
  S   S46       1.0  0.43880  0.18890  0.64763  1.0000
  H   H431      1.0  0.65877  0.09259  0.76328  1.0000
  H   H432      1.0  0.50709  0.10788  0.91833  1.0000
  H   H433      1.0  0.40342  0.05477  0.91934  1.0000
  H   H434      1.0  0.51430  0.08048  0.56422  1.0000
  S   S47       1.0  0.35142  0.20221  0.65284  1.0000
  Fe  Fe21      1.0  0.39936  0.14761  0.94687  1.0000
  S   S48       1.0  0.36988  0.11744  0.91238  1.0000
  S   S49       1.0  0.44747  0.13068  0.93368  1.0000
  C   C240      1.0  0.66054  0.16870  0.80099  1.0000
  C   C241      1.0  0.65524  0.13860  0.73558  1.0000
  C   C242      1.0  0.41292  0.03085  0.92802  1.0000
  S   S50       1.0  0.37330  0.19417  0.93626  1.0000
  H   H435      1.0  0.45423  0.05230  0.94509  1.0000
  Fe  Fe22      1.0  0.61185  0.17627  0.58905  1.0000
  S   S51       1.0  0.61349  0.12321  0.60570  1.0000
  S   S52       1.0  0.56742  0.19921  0.57218  1.0000
  H   H436      1.0  0.35136  0.24190  0.72246  1.0000
  C   C243      1.0  0.45653  0.07636  0.58663  1.0000
  S   S53       1.0  0.64646  0.19494  0.62683  1.0000
  S   S54       1.0  0.64689  0.16958  0.54711  1.0000
  Fe  Fe23      1.0  0.62273  0.16349  0.95908  1.0000
  S   S55       1.0  0.62830  0.12906  0.91444  1.0000
  S   S56       1.0  0.57735  0.18077  0.98055  1.0000
  H   H437      1.0  0.46519  0.09685  0.99990  1.0000
  C   C244      1.0  0.57205  0.03231  0.53197  1.0000
  H   H438      1.0  0.45996  0.11172  0.66839  1.0000
  H   H439      1.0  0.59549  0.02897  0.54134  1.0000
  H   H440      1.0  0.46760  0.15243  0.53956  1.0000
  Fe  Fe24      1.0  0.64992  0.14107  0.64162  1.0000
  C   C245      1.0  0.66394  0.03980  0.51942  1.0000
  H   H441      1.0  0.39412  0.01463  0.93724  1.0000
  Fe  Fe25      1.0  0.65073  0.11726  0.56622  1.0000
  H   H442      1.0  0.43134  0.07438  0.58792  1.0000
  C   C246      1.0  0.48321  0.14554  0.94682  1.0000
  C   C247      1.0  0.50934  0.12910  0.93499  1.0000
  C   C248      1.0  0.53835  0.13971  0.94488  1.0000
  C   C249      1.0  0.54145  0.16690  0.96675  1.0000
  C   C250      1.0  0.51529  0.18322  0.97867  1.0000
  C   C251      1.0  0.48626  0.17263  0.96875  1.0000
  H   H443      1.0  0.63564  0.07753  0.84839  1.0000
  H   H444      1.0  0.35774  0.27776  0.96069  1.0000
  S   S57       1.0  0.66411  0.18874  0.84129  1.0000
  H   H445      1.0  0.46633  0.18541  0.97812  1.0000
  H   H446      1.0  0.51676  0.25711  0.73630  1.0000
  H   H447      1.0  0.41531  0.07997  0.97935  1.0000
  N   N15       1.0  0.46724  0.08254  0.55004  1.0000
  C   C252      1.0  0.47405  0.18964  0.62537  1.0000
  C   C253      1.0  0.50026  0.17977  0.64263  1.0000
  C   C254      1.0  0.52894  0.18144  0.62634  1.0000
  C   C255      1.0  0.53172  0.19375  0.59287  1.0000
  C   C256      1.0  0.50544  0.20327  0.57555  1.0000
  C   C257      1.0  0.47672  0.20101  0.59160  1.0000
  H   H448      1.0  0.49840  0.17093  0.66877  1.0000
  H   H449      1.0  0.54901  0.17413  0.63996  1.0000
  H   H450      1.0  0.50742  0.21297  0.54973  1.0000
  H   H451      1.0  0.45678  0.20905  0.57823  1.0000
  H   H452      1.0  0.42849  0.09051  0.64912  1.0000
  H   H453      1.0  0.51225  0.22634  0.70302  1.0000
  H   H454      1.0  0.36292  0.29710  0.57452  1.0000
  C   C258      1.0  0.45354  0.09235  0.64961  1.0000
  C   C259      1.0  0.46631  0.10167  0.61427  1.0000
  H   H455      1.0  0.60366  0.08972  0.79704  1.0000
  N   N16       1.0  0.55913  0.13717  0.82744  1.0000
  C   C260      1.0  0.53054  0.11668  0.83092  1.0000
  C   C261      1.0  0.58514  0.11709  0.84088  1.0000
  C   C262      1.0  0.55555  0.16708  0.85049  1.0000
  C   C263      1.0  0.56556  0.14897  0.79117  1.0000
  C   C264      1.0  0.55541  0.12599  0.76149  1.0000
  C   C265      1.0  0.50052  0.13545  0.82520  1.0000
  C   C266      1.0  0.58381  0.18975  0.85403  1.0000
  C   C267      1.0  0.59261  0.08424  0.82218  1.0000
  S   S58       1.0  0.37138  0.18826  0.57351  1.0000
  C   C268      1.0  0.56619  0.13936  0.72666  1.0000
  H   H456      1.0  0.46286  0.06827  0.65818  1.0000
  C   C269      1.0  0.57624  0.22116  0.87417  1.0000
  H   H457      1.0  0.52887  0.10557  0.85710  1.0000
  H   H458      1.0  0.53093  0.09522  0.81325  1.0000
  H   H459      1.0  0.60658  0.13160  0.83961  1.0000
  H   H460      1.0  0.58088  0.11125  0.86849  1.0000
  H   H461      1.0  0.54851  0.15926  0.87685  1.0000
  H   H462      1.0  0.53720  0.18337  0.84111  1.0000
  H   H463      1.0  0.55449  0.17324  0.78643  1.0000
  H   H464      1.0  0.59028  0.15400  0.78755  1.0000
  H   H465      1.0  0.53037  0.12425  0.76069  1.0000
  H   H466      1.0  0.56432  0.10061  0.76422  1.0000
  H   H467      1.0  0.49523  0.15130  0.84780  1.0000
  H   H468      1.0  0.50214  0.15147  0.80213  1.0000
  H   H469      1.0  0.59317  0.19711  0.82854  1.0000
  H   H470      1.0  0.60168  0.17704  0.86854  1.0000
  C   C270      1.0  0.46867  0.04932  0.53218  1.0000
  S   S59       1.0  0.37161  0.13599  0.99441  1.0000
  H   H471      1.0  0.42419  0.01875  0.90575  1.0000
  H   H472      1.0  0.45270  0.12532  0.81788  1.0000
  H   H473      1.0  0.60406  0.05554  0.86767  1.0000
  H   H474      1.0  0.55633  0.16407  0.72156  1.0000
  H   H475      1.0  0.59124  0.14141  0.72569  1.0000
  H   H476      1.0  0.47139  0.09552  0.84433  1.0000
  H   H477      1.0  0.47749  0.09543  0.79820  1.0000
  C   C271      1.0  0.51357  0.10287  0.51380  1.0000
  H   H478      1.0  0.55917  0.23615  0.86056  1.0000
  H   H479      1.0  0.56750  0.21475  0.90027  1.0000
  H   H480      1.0  0.59710  0.23636  0.87702  1.0000
  H   H481      1.0  0.53902  0.21990  0.73676  1.0000
  C   C272      1.0  0.67517  0.02362  0.54825  1.0000
  N   N17       1.0  0.43355  0.20918  0.76142  1.0000
  C   C273      1.0  0.40571  0.23021  0.75678  1.0000
  C   C274      1.0  0.43879  0.20506  0.79937  1.0000
  C   C275      1.0  0.46037  0.22796  0.74640  1.0000
  C   C276      1.0  0.43165  0.17581  0.74391  1.0000
  C   C277      1.0  0.39985  0.15984  0.74011  1.0000
  C   C278      1.0  0.40070  0.24375  0.72006  1.0000
  C   C279      1.0  0.49202  0.21265  0.75253  1.0000
  C   C280      1.0  0.41319  0.18790  0.82042  1.0000
  C   C281      1.0  0.42065  0.18708  0.85853  1.0000
  C   C282      1.0  0.40247  0.12425  0.72719  1.0000
  C   C283      1.0  0.36973  0.26011  0.71718  1.0000
  C   C284      1.0  0.51641  0.23012  0.73080  1.0000
  H   H482      1.0  0.40656  0.25217  0.77405  1.0000
  H   H483      1.0  0.38487  0.21667  0.76478  1.0000
  H   H484      1.0  0.45925  0.18997  0.80389  1.0000
  H   H485      1.0  0.44321  0.22969  0.81130  1.0000
  H   H486      1.0  0.46084  0.25384  0.75639  1.0000
  H   H487      1.0  0.45822  0.23006  0.71801  1.0000
  H   H488      1.0  0.44119  0.17716  0.71741  1.0000
  H   H489      1.0  0.44631  0.15761  0.75715  1.0000
  H   H490      1.0  0.38635  0.17373  0.72117  1.0000
  H   H491      1.0  0.38682  0.15937  0.76448  1.0000
  H   H492      1.0  0.41787  0.26303  0.71353  1.0000
  H   H493      1.0  0.40254  0.22372  0.70077  1.0000
  H   H494      1.0  0.49231  0.18594  0.74583  1.0000
  H   H495      1.0  0.49848  0.21555  0.77978  1.0000
  H   H496      1.0  0.39134  0.20095  0.81791  1.0000
  H   H497      1.0  0.41048  0.16183  0.81225  1.0000
  H   H498      1.0  0.42140  0.21253  0.86925  1.0000
  H   H499      1.0  0.40277  0.17283  0.87242  1.0000
  H   H500      1.0  0.44260  0.17462  0.86296  1.0000
  H   H501      1.0  0.41563  0.10889  0.74523  1.0000
  H   H502      1.0  0.37962  0.11304  0.72492  1.0000
  H   H503      1.0  0.41346  0.12396  0.70144  1.0000
  H   H504      1.0  0.36761  0.28103  0.73552  1.0000
  H   H505      1.0  0.36693  0.26987  0.69076  1.0000
  C   C285      1.0  0.38150  0.30029  0.55523  1.0000
  C   C286      1.0  0.44285  0.99577  0.51412  1.0000
  H   H506      1.0  0.55828  0.12670  0.93594  1.0000
  H   H507      1.0  0.65244  0.18829  0.71598  1.0000
  S   S60       1.0  0.65111  0.11828  0.69547  1.0000
  H   H508      1.0  0.49971  0.12096  0.56350  1.0000
  C   C287      1.0  0.56064  0.00043  0.51526  1.0000
  C   C288      1.0  0.34639  0.28048  0.93560  1.0000
  C   C289      1.0  0.47400  0.11136  0.82111  1.0000
  H   H509      1.0  0.49132  0.10239  0.61677  1.0000
  H   H510      1.0  0.46511  0.05207  0.59596  1.0000
  Fe  Fe26      1.0  0.66298  0.16570  0.89494  1.0000
  H   H511      1.0  0.35279  0.05441  0.58682  1.0000
  S   S61       1.0  0.65056  0.08106  0.52106  1.0000
  S   S62       1.0  0.65840  0.13889  0.99099  1.0000
  C   C290      1.0  0.44468  0.14136  0.53952  1.0000
  H   H512      1.0  0.57236  0.06864  0.81803  1.0000
  C   C291      1.0  0.43894  0.02849  0.53326  1.0000
  H   H513      1.0  0.55730  0.03879  0.55423  1.0000
  C   C292      1.0  0.43584  0.03668  0.95637  1.0000
  C   C293      1.0  0.37655  0.27739  0.52460  1.0000
  H   H514      1.0  0.48689  0.03384  0.54339  1.0000
  S   S63       1.0  0.35596  0.10452  0.53256  1.0000
  Fe  Fe27      1.0  0.35180  0.13685  0.58022  1.0000
  H   H515      1.0  0.36013  0.26743  0.91577  1.0000
  H   H516      1.0  0.62100  0.04087  0.82820  1.0000
  H   H517      1.0  0.55913  0.12223  0.70597  1.0000
  H   H518      1.0  0.59408  0.00730  0.91570  1.0000
  H   H519      1.0  0.45836  0.12670  0.60792  1.0000
  C   C294      1.0  0.65480  0.17312  0.73867  1.0000
  C   C295      1.0  0.61466  0.06339  0.84293  1.0000
  H   H520      1.0  0.34531  0.30724  0.92915  1.0000
  C   C296      1.0  0.49888  0.09695  0.54968  1.0000
  H   H521      1.0  0.43347  0.14533  0.56479  1.0000
  C   C297      1.0  0.42107  0.05436  0.98771  1.0000
  C   C298      1.0  0.65744  0.18804  0.77121  1.0000
  S   S64       1.0  0.65528  0.20190  0.93826  1.0000
  H   H522      1.0  0.43180  0.02247  0.55997  1.0000
  H   H523      1.0  0.63384  0.99892  0.91026  1.0000
  C   C299      1.0  0.35470  0.00713  0.56074  1.0000
  C   C300      1.0  0.54288  0.12298  0.51661  1.0000
  C   C301      1.0  0.35625  0.06064  0.53210  1.0000
  H   H524      1.0  0.39903  0.04168  0.99263  1.0000
  H   H525      1.0  0.38247  0.32659  0.54688  1.0000
  Fe  Fe28      1.0  0.34235  0.16277  0.90445  1.0000
  C   C302      1.0  0.35456  0.04199  0.56230  1.0000
  H   H526      1.0  0.48176  0.05773  0.99088  1.0000
  H   H527      1.0  0.40319  0.29404  0.56768  1.0000
  H   H528      1.0  0.66409  0.11912  0.82042  1.0000
  H   H529      1.0  0.53793  0.14837  0.52604  1.0000
  C   C303      1.0  0.65827  0.11930  0.76540  1.0000
  H   H530      1.0  0.40323  0.15135  0.51151  1.0000
  H   H531      1.0  0.44531  0.01234  0.96370  1.0000
  H   H532      1.0  0.55886  0.11098  0.53447  1.0000
  C   C304      1.0  0.66105  0.13423  0.79788  1.0000
  H   H533      1.0  0.65718  0.21475  0.77327  1.0000
  H   H534      1.0  0.37642  0.25177  0.53462  1.0000
  Fe  Fe29      1.0  0.66629  0.10706  0.94467  1.0000
  H   H535      1.0  0.42605  0.18736  0.52040  1.0000
  H   H536      1.0  0.51752  0.20416  0.99576  1.0000
  C   C305      1.0  0.44513  0.10393  0.53088  1.0000
  H   H537      1.0  0.42154  0.09494  0.53526  1.0000
  C   C306      1.0  0.42680  0.16082  0.51298  1.0000
  H   H538      1.0  0.42030  0.04201  0.52087  1.0000
  H   H539      1.0  0.67456  0.28115  0.92084  1.0000
  H   H540      1.0  0.53072  0.08621  0.00557  1.0000
  Fe  Fe30      1.0  0.34230  0.18013  0.98063  1.0000
  C   C307      1.0  0.67292  0.02802  0.98312  1.0000
  S   S65       1.0  0.67369  0.05132  0.94463  1.0000
  C   C308      1.0  0.34798  0.99591  0.00210  1.0000
  H   H541      1.0  0.67377  0.35487  0.52754  1.0000
  H   H542      1.0  0.57207  0.05317  0.51337  1.0000
  Fe  Fe31      1.0  0.41353  0.86033  0.46391  1.0000
  S   S66       1.0  0.40570  0.91289  0.44733  1.0000
  S   S67       1.0  0.45874  0.84258  0.48410  1.0000
  H   H543      1.0  0.56986  0.83928  0.47843  1.0000
  C   C309      1.0  0.36417  0.90602  0.28422  1.0000
  Fe  Fe32      1.0  0.37396  0.88986  0.40880  1.0000
  H   H544      1.0  0.66984  0.73223  0.44462  1.0000
  S   S68       1.0  0.38429  0.83722  0.42324  1.0000
  S   S69       1.0  0.36954  0.83382  0.21086  1.0000
  S   S70       1.0  0.39292  0.82516  0.11709  1.0000
  S   S71       1.0  0.67128  0.87123  0.04987  1.0000
  S   S72       1.0  0.37534  0.88150  0.06025  1.0000
  C   C310      1.0  0.37921  0.85547  0.31226  1.0000
  Fe  Fe33      1.0  0.41200  0.87396  0.09913  1.0000
  S   S73       1.0  0.46059  0.89317  0.09726  1.0000
  S   S74       1.0  0.38761  0.90304  0.14000  1.0000
  Fe  Fe34      1.0  0.63483  0.85945  0.42980  1.0000
  C   C311      1.0  0.36420  0.88978  0.25219  1.0000
  S   S75       1.0  0.58681  0.86374  0.40984  1.0000
  H   H545      1.0  0.35830  0.95111  0.03013  1.0000
  C   C312      1.0  0.37493  0.76248  0.35746  1.0000
  C   C313      1.0  0.37911  0.83918  0.28025  1.0000
  H   H546      1.0  0.46981  0.93352  0.47278  1.0000
  H   H547      1.0  0.38490  0.81323  0.27884  1.0000
  H   H548      1.0  0.38540  0.84223  0.33521  1.0000
  H   H549      1.0  0.38477  0.73732  0.35499  1.0000
  S   S76       1.0  0.65129  0.85379  0.20629  1.0000
  Fe  Fe35      1.0  0.63271  0.84990  0.08186  1.0000
  S   S77       1.0  0.58868  0.83090  0.05887  1.0000
  S   S78       1.0  0.63250  0.89109  0.11987  1.0000
  C   C314      1.0  0.62023  0.97050  0.38031  1.0000
  H   H550      1.0  0.64336  0.97379  0.39066  1.0000
  N   N18       1.0  0.57550  0.95847  0.46722  1.0000
  H   H551      1.0  0.65864  0.79009  0.28222  1.0000
  C   C315      1.0  0.67165  0.86129  0.24447  1.0000
  H   H552      1.0  0.60750  0.99283  0.08530  1.0000
  C   C316      1.0  0.49539  0.87287  0.08931  1.0000
  C   C317      1.0  0.49750  0.84359  0.07030  1.0000
  C   C318      1.0  0.52621  0.83059  0.06157  1.0000
  C   C319      1.0  0.55291  0.84629  0.07244  1.0000
  C   C320      1.0  0.55057  0.87487  0.09241  1.0000
  C   C321      1.0  0.52204  0.88837  0.10029  1.0000
  H   H553      1.0  0.47715  0.83159  0.06136  1.0000
  H   H554      1.0  0.57072  0.98578  0.02282  1.0000
  H   H555      1.0  0.57078  0.88711  0.10111  1.0000
  H   H556      1.0  0.52066  0.91114  0.11481  1.0000
  C   C322      1.0  0.54469  0.95459  0.45113  1.0000
  H   H557      1.0  0.52184  0.91513  0.48053  1.0000
  H   H558      1.0  0.61755  0.94465  0.37098  1.0000
  C   C323      1.0  0.49417  0.84869  0.46316  1.0000
  C   C324      1.0  0.49632  0.86085  0.42964  1.0000
  C   C325      1.0  0.52491  0.86522  0.41378  1.0000
  C   C326      1.0  0.55160  0.85754  0.43123  1.0000
  C   C327      1.0  0.54951  0.84548  0.46482  1.0000
  C   C328      1.0  0.52088  0.84100  0.48065  1.0000
  C   C329      1.0  0.59910  0.95463  0.43907  1.0000
  H   H559      1.0  0.47890  0.97308  0.06897  1.0000
  H   H560      1.0  0.65889  0.86109  0.33136  1.0000
  C   C330      1.0  0.65602  0.85911  0.27609  1.0000
  H   H561      1.0  0.53750  0.97841  0.43943  1.0000
  H   H562      1.0  0.41678  0.78081  0.18664  1.0000
  H   H563      1.0  0.60182  0.93320  0.06788  1.0000
  H   H564      1.0  0.38144  0.77704  0.33429  1.0000
  H   H565      1.0  0.43912  0.96184  0.07008  1.0000
  H   H566      1.0  0.62995  0.92502  0.49273  1.0000
  C   C331      1.0  0.37130  0.85613  0.25009  1.0000
  H   H567      1.0  0.63196  0.85395  0.27647  1.0000
  C   C332      1.0  0.67127  0.86307  0.30729  1.0000
  C   C333      1.0  0.58620  0.96431  0.02558  1.0000
  C   C334      1.0  0.45638  0.97931  0.08011  1.0000
  H   H568      1.0  0.56139  0.93861  0.06748  1.0000
  H   H569      1.0  0.54586  0.93643  0.42954  1.0000
  H   H570      1.0  0.58529  0.96855  0.11522  1.0000
  C   C335      1.0  0.58585  0.97907  0.08887  1.0000
  H   H571      1.0  0.35820  0.90318  0.22925  1.0000
  S   S79       1.0  0.66354  0.90438  0.41749  1.0000
  H   H572      1.0  0.52634  0.87446  0.38774  1.0000
  H   H573      1.0  0.52777  0.80844  0.04607  1.0000
  H   H574      1.0  0.62219  0.95860  0.44915  1.0000
  N   N19       1.0  0.48185  0.85514  0.20749  1.0000
  C   C336      1.0  0.51155  0.84916  0.18885  1.0000
  C   C337      1.0  0.45815  0.83214  0.19309  1.0000
  C   C338      1.0  0.47205  0.89012  0.19954  1.0000
  C   C339      1.0  0.48399  0.85128  0.24599  1.0000
  C   C340      1.0  0.50718  0.82583  0.25964  1.0000
  C   C341      1.0  0.53693  0.87500  0.19560  1.0000
  C   C342      1.0  0.44065  0.90055  0.21436  1.0000
  C   C343      1.0  0.46362  0.79453  0.19721  1.0000
  C   C344      1.0  0.44005  0.77448  0.17767  1.0000
  C   C345      1.0  0.56823  0.86151  0.18608  1.0000
  C   C346      1.0  0.43535  0.93762  0.20953  1.0000
  H   H575      1.0  0.50802  0.84876  0.16059  1.0000
  H   H576      1.0  0.52064  0.82431  0.19476  1.0000
  H   H577      1.0  0.43581  0.83639  0.20570  1.0000
  H   H578      1.0  0.45500  0.83752  0.16526  1.0000
  H   H579      1.0  0.47173  0.89420  0.17125  1.0000
  H   H580      1.0  0.48864  0.90831  0.20969  1.0000
  H   H581      1.0  0.49019  0.87531  0.25815  1.0000
  H   H582      1.0  0.46131  0.84488  0.25719  1.0000
  H   H583      1.0  0.53067  0.83470  0.25478  1.0000
  H   H584      1.0  0.50493  0.80133  0.24729  1.0000
  H   H585      1.0  0.53313  0.89745  0.17971  1.0000
  H   H586      1.0  0.53715  0.88273  0.22289  1.0000
  H   H587      1.0  0.43853  0.89494  0.24216  1.0000
  H   H588      1.0  0.42218  0.88747  0.20095  1.0000
  H   H589      1.0  0.48616  0.78703  0.18725  1.0000
  H   H590      1.0  0.46128  0.78749  0.22464  1.0000
  H   H591      1.0  0.44212  0.77945  0.14970  1.0000
  H   H592      1.0  0.56891  0.85277  0.15909  1.0000
  H   H593      1.0  0.58558  0.88129  0.18896  1.0000
  H   H594      1.0  0.57428  0.84065  0.20323  1.0000
  H   H595      1.0  0.43704  0.94435  0.18191  1.0000
  H   H596      1.0  0.41231  0.94401  0.21913  1.0000
  H   H597      1.0  0.67301  0.72228  0.06058  1.0000
  C   C347      1.0  0.58340  0.95103  0.06278  1.0000
  H   H598      1.0  0.45737  0.97586  0.10835  1.0000
  C   C348      1.0  0.57943  0.99250  0.48253  1.0000
  H   H599      1.0  0.44367  0.74762  0.18204  1.0000
  H   H600      1.0  0.45214  0.95227  0.22413  1.0000
  H   H601      1.0  0.47593  0.86667  0.41589  1.0000
  H   H602      1.0  0.35821  0.93195  0.28560  1.0000
  H   H603      1.0  0.57385  0.97586  0.39563  1.0000
  C   C349      1.0  0.37130  0.88892  0.31451  1.0000
  C   C350      1.0  0.67201  0.71161  0.42597  1.0000
  Fe  Fe36      1.0  0.35358  0.83458  0.08174  1.0000
  H   H604      1.0  0.52066  0.80328  0.30763  1.0000
  Fe  Fe37      1.0  0.36685  0.85488  0.15643  1.0000
  C   C351      1.0  0.50341  0.82097  0.29838  1.0000
  H   H605      1.0  0.48059  0.81080  0.30476  1.0000
  S   S80       1.0  0.66772  0.82286  0.40693  1.0000
  H   H606      1.0  0.50657  0.84485  0.31207  1.0000
  H   H607      1.0  0.38461  0.77446  0.38049  1.0000
  S   S81       1.0  0.36967  0.91041  0.35433  1.0000
  Fe  Fe38      1.0  0.36604  0.91182  0.48418  1.0000
  H   H608      1.0  0.65021  0.69778  0.42591  1.0000
  H   H609      1.0  0.59877  0.92883  0.42912  1.0000
  C   C352      1.0  0.59629  0.97827  0.40780  1.0000
  S   S82       1.0  0.65363  0.85360  0.48258  1.0000
  H   H610      1.0  0.48862  0.93036  0.43167  1.0000
  Fe  Fe39      1.0  0.34994  0.90735  0.10243  1.0000
  C   C353      1.0  0.34735  0.97497  0.03109  1.0000
  C   C354      1.0  0.67115  0.98934  0.04369  1.0000
  H   H611      1.0  0.55049  0.90460  0.02361  1.0000
  H   H612      1.0  0.60944  0.97490  0.02325  1.0000
  H   H613      1.0  0.34678  0.69851  0.10525  1.0000
  C   C355      1.0  0.51833  0.94171  0.47437  1.0000
  H   H614      1.0  0.51651  0.95542  0.49880  1.0000
  C   C356      1.0  0.48803  0.94430  0.45620  1.0000
  H   H615      1.0  0.48259  0.97055  0.45069  1.0000
  C   C357      1.0  0.58056  0.93117  0.49300  1.0000
  S   S83       1.0  0.66311  0.81768  0.11348  1.0000
  H   H616      1.0  0.57824  0.90662  0.48021  1.0000
  Fe  Fe40      1.0  0.66531  0.86083  0.15002  1.0000
  H   H617      1.0  0.66052  0.74265  0.38365  1.0000
  S   S84       1.0  0.67055  0.96695  0.08271  1.0000
  H   H618      1.0  0.47377  0.94295  0.01105  1.0000
  H   H619      1.0  0.66885  0.74993  0.26532  1.0000
  S   S85       1.0  0.37559  0.86032  0.50320  1.0000
  H   H620      1.0  0.60228  0.89801  0.02322  1.0000
  Fe  Fe41      1.0  0.67257  0.91095  0.09020  1.0000
  H   H621      1.0  0.49297  0.90720  0.02736  1.0000
  H   H622      1.0  0.67230  0.97693  0.46116  1.0000
  H   H623      1.0  0.52410  0.95900  0.03158  1.0000
  C   C358      1.0  0.67271  0.98963  0.48554  1.0000
  Fe  Fe42      1.0  0.34557  0.84190  0.46163  1.0000
  H   H624      1.0  0.61769  0.98753  0.35816  1.0000
  H   H625      1.0  0.51936  0.83138  0.50653  1.0000
  H   H626      1.0  0.57441  0.94029  0.94258  1.0000
  H   H627      1.0  0.60653  0.96809  0.89779  1.0000
  C   C359      1.0  0.61212  0.90611  0.54026  1.0000
  H   H628      1.0  0.34961  0.56213  0.71758  1.0000
  H   H629      1.0  0.61826  0.99337  0.97074  1.0000
  H   H630      1.0  0.61664  0.95603  0.52247  1.0000
  H   H631      1.0  0.56201  0.98062  0.53482  1.0000
  C   C360      1.0  0.55047  0.92244  0.00177  1.0000
  H   H632      1.0  0.36798  0.88375  0.57496  1.0000
  H   H633      1.0  0.35149  0.60372  0.73415  1.0000
  H   H634      1.0  0.62804  0.92460  0.00172  1.0000
  H   H635      1.0  0.59600  0.91322  0.56107  1.0000
  S   S86       1.0  0.35500  0.94672  0.52864  1.0000
  C   C361      1.0  0.61263  0.97288  0.95302  1.0000
  H   H636      1.0  0.58449  0.87388  0.96795  1.0000
  H   H637      1.0  0.35911  0.98771  0.97877  1.0000
  H   H638      1.0  0.63525  0.90511  0.55103  1.0000
  C   C362      1.0  0.35663  0.99058  0.52906  1.0000
  N   N20       1.0  0.58095  0.93923  0.99762  1.0000
  H   H639      1.0  0.60600  0.88107  0.53073  1.0000
  C   C363      1.0  0.60602  0.88806  0.96914  1.0000
  C   C364      1.0  0.58181  0.95703  0.96354  1.0000
  H   H640      1.0  0.64494  0.83188  0.55768  1.0000
  C   C365      1.0  0.60519  0.91307  0.99940  1.0000
  C   C366      1.0  0.63147  0.86298  0.97306  1.0000
  C   C367      1.0  0.61152  0.98763  0.91694  1.0000
  H   H641      1.0  0.60990  0.90079  0.94424  1.0000
  H   H642      1.0  0.62783  0.84793  0.99664  1.0000
  H   H643      1.0  0.34761  0.59676  0.68850  1.0000
  H   H644      1.0  0.36898  0.87945  0.98289  1.0000
  H   H645      1.0  0.66286  0.81056  0.59247  1.0000
  H   H646      1.0  0.52165  0.96434  0.98596  1.0000
  H   H647      1.0  0.63179  0.84589  0.95077  1.0000
  H   H648      1.0  0.56529  0.97768  0.96357  1.0000
  H   H649      1.0  0.54571  0.90687  0.97895  1.0000
  H   H650      1.0  0.46183  0.98127  0.52477  1.0000
  H   H651      1.0  0.49017  0.91343  0.98166  1.0000
  H   H652      1.0  0.42183  0.98068  0.51678  1.0000
  H   H653      1.0  0.36207  0.83636  0.97395  1.0000
  H   H654      1.0  0.36797  0.88526  0.62099  1.0000
  H   H655      1.0  0.67083  0.79866  0.54854  1.0000
  H   H656      1.0  0.35225  0.86732  0.94267  1.0000
  H   H657      1.0  0.63127  0.95463  0.95323  1.0000
  C   C368      1.0  0.35315  0.86182  0.97055  1.0000
  C   C369      1.0  0.66622  0.81990  0.56587  1.0000
  H   H658      1.0  0.65378  0.87574  0.97416  1.0000
  C   C370      1.0  0.35518  0.87633  0.59849  1.0000
  H   H659      1.0  0.35364  0.84888  0.59972  1.0000
  H   H660      1.0  0.35297  0.99288  0.58421  1.0000
  C   C371      1.0  0.52288  0.94572  0.00676  1.0000
  C   C372      1.0  0.61156  0.93150  0.51115  1.0000
  H   H661      1.0  0.56291  0.93111  0.51348  1.0000
  C   C373      1.0  0.49320  0.92607  0.00667  1.0000
  Fe  Fe43      1.0  0.90076  0.34533  0.46249  1.0000
  S   S87       1.0  0.90320  0.38736  0.42556  1.0000
  H   H662      1.0  0.98410  0.47985  0.44808  1.0000
  Fe  Fe44      1.0  0.83284  0.33474  0.45137  1.0000
  S   S88       1.0  0.83160  0.37654  0.41234  1.0000
  S   S89       1.0  0.78615  0.31073  0.46309  1.0000
  Fe  Fe45      1.0  0.87499  0.35599  0.39073  1.0000
  S   S90       1.0  0.89525  0.35923  0.33645  1.0000
  Fe  Fe46      1.0  0.86002  0.40496  0.44971  1.0000
  S   S91       1.0  0.85691  0.46098  0.45536  1.0000
  S   S92       1.0  0.87482  0.31201  0.42680  1.0000
  H   H663      1.0  0.78170  0.20886  0.04278  1.0000
  Fe  Fe47      1.0  0.84097  0.34637  0.06091  1.0000
  S   S93       1.0  0.82752  0.38717  0.09772  1.0000
  H   H664      1.0  0.69031  0.13999  0.49477  1.0000
  Fe  Fe48      1.0  0.90650  0.34678  0.08738  1.0000
  S   S94       1.0  0.89720  0.38659  0.12608  1.0000
  S   S95       1.0  0.95195  0.32024  0.08534  1.0000
  Fe  Fe49      1.0  0.85388  0.35924  0.13742  1.0000
  S   S96       1.0  0.83292  0.34807  0.19021  1.0000
  Fe  Fe50      1.0  0.87188  0.41166  0.08333  1.0000
  S   S97       1.0  0.88017  0.46762  0.07971  1.0000
  S   S98       1.0  0.86466  0.31706  0.10144  1.0000
  S   S99       1.0  0.88399  0.37316  0.04372  1.0000
  H   H665      1.0  0.98860  0.33319  0.19784  1.0000
  H   H666      1.0  0.85701  0.45542  0.01079  1.0000
  H   H667      1.0  0.82285  0.16537  0.03805  1.0000
  H   H668      1.0  0.75399  0.45161  0.42325  1.0000
  H   H669      1.0  0.97022  0.26146  0.26267  1.0000
  N   N21       1.0  0.74901  0.07963  0.04726  1.0000
  H   H670      1.0  0.68740  0.15373  0.43080  1.0000
  C   C374      1.0  0.78819  0.12710  0.03752  1.0000
  C   C375      1.0  0.75133  0.07847  0.44809  1.0000
  H   H671      1.0  0.98537  0.29309  0.14585  1.0000
  C   C376      1.0  0.87658  0.35774  0.29645  1.0000
  C   C377      1.0  0.89178  0.36984  0.26698  1.0000
  C   C378      1.0  0.87848  0.36775  0.23441  1.0000
  C   C379      1.0  0.85007  0.35282  0.23083  1.0000
  C   C380      1.0  0.83480  0.34088  0.26031  1.0000
  C   C381      1.0  0.84788  0.34346  0.29299  1.0000
  H   H672      1.0  0.91378  0.38134  0.26943  1.0000
  H   H673      1.0  0.88997  0.37802  0.21214  1.0000
  H   H674      1.0  0.81271  0.32952  0.25783  1.0000
  H   H675      1.0  0.83595  0.33398  0.31539  1.0000
  C   C382      1.0  0.73954  0.27383  0.49230  1.0000
  C   C383      1.0  0.69334  0.17221  0.45059  1.0000
  H   H676      1.0  0.72270  0.03460  0.45384  1.0000
  C   C384      1.0  0.94505  0.45159  0.46946  1.0000
  H   H677      1.0  0.80925  0.15320  0.07999  1.0000
  C   C385      1.0  0.87018  0.49412  0.04545  1.0000
  H   H678      1.0  0.98420  0.39346  0.19338  1.0000
  C   C386      1.0  0.96615  0.37751  0.18260  1.0000
  C   C387      1.0  0.91604  0.26722  0.18066  1.0000
  H   H679      1.0  0.76996  0.14572  0.03628  1.0000
  H   H680      1.0  0.70961  0.10250  0.10335  1.0000
  C   C388      1.0  0.98690  0.34205  0.08512  1.0000
  H   H681      1.0  0.74064  0.06122  0.09899  1.0000
  H   H682      1.0  0.96744  0.39066  0.08170  1.0000
  H   H683      1.0  0.96798  0.24222  0.20246  1.0000
  C   C389      1.0  0.98085  0.34910  0.43634  1.0000
  C   C390      1.0  0.97890  0.34206  0.47142  1.0000
  C   C391      1.0  0.77814  0.09601  0.05800  1.0000
  H   H684      1.0  0.96059  0.34904  0.42110  1.0000
  H   H685      1.0  0.77389  0.11688  0.50381  1.0000
  H   H686      1.0  0.83465  0.12642  0.05595  1.0000
  H   H687      1.0  0.71311  0.17536  0.50115  1.0000
  C   C392      1.0  0.72260  0.10326  0.04840  1.0000
  C   C393      1.0  0.72616  0.10430  0.45552  1.0000
  H   H688      1.0  0.73294  0.42182  0.47484  1.0000
  H   H689      1.0  0.77907  0.21096  0.41794  1.0000
  H   H690      1.0  0.94408  0.39024  0.18618  1.0000
  H   H691      1.0  0.68577  0.15713  0.10544  1.0000
  C   C394      1.0  0.71620  0.12065  0.08320  1.0000
  H   H692      1.0  0.74997  0.20420  0.47239  1.0000
  C   C395      1.0  0.75860  0.15377  0.45269  1.0000
  H   H693      1.0  0.76942  0.01243  0.04710  1.0000
  H   H694      1.0  0.93535  0.31478  0.30280  1.0000
  C   C396      1.0  0.75231  0.06450  0.01185  1.0000
  C   C397      1.0  0.81542  0.14391  0.05401  1.0000
  H   H695      1.0  0.96571  0.25456  0.13850  1.0000
  C   C398      1.0  0.77045  0.28251  0.49414  1.0000
  H   H696      1.0  0.96548  0.36569  0.28742  1.0000
  C   C399      1.0  0.96536  0.48246  0.08411  1.0000
  H   H697      1.0  0.77704  0.10253  0.08572  1.0000
  H   H698      1.0  0.73630  0.13484  0.09171  1.0000
  H   H699      1.0  0.94304  0.32114  0.15769  1.0000
  H   H700      1.0  0.97665  0.46529  0.38751  1.0000
  H   H701      1.0  0.70877  0.19087  0.43873  1.0000
  H   H702      1.0  0.74967  0.15790  0.42649  1.0000
  H   H703      1.0  0.98195  0.39122  0.31977  1.0000
  C   C400      1.0  0.78073  0.43075  0.46452  1.0000
  H   H704      1.0  0.98281  0.40458  0.27535  1.0000
  C   C401      1.0  0.98451  0.38287  0.29273  1.0000
  H   H705      1.0  0.79848  0.22901  0.45361  1.0000
  N   N22       1.0  0.94858  0.46565  0.50502  1.0000
  C   C402      1.0  0.79205  0.26073  0.03527  1.0000
  H   H706      1.0  0.79399  0.44873  0.41403  1.0000
  C   C403      1.0  0.96474  0.45058  0.40770  1.0000
  H   H707      1.0  0.71942  0.04082  0.06684  1.0000
  H   H708      1.0  0.92010  0.26852  0.15244  1.0000
  H   H709      1.0  0.92064  0.45046  0.46279  1.0000
  C   C404      1.0  0.79077  0.20526  0.44224  1.0000
  H   H710      1.0  0.81102  0.18988  0.43666  1.0000
  C   C405      1.0  0.96571  0.34398  0.20082  1.0000
  C   C406      1.0  0.78445  0.29002  0.01821  1.0000
  C   C407      1.0  0.70812  0.15555  0.48212  1.0000
  H   H711      1.0  0.97078  0.46587  0.06221  1.0000
  H   H712      1.0  0.70695  0.09177  0.46927  1.0000
  C   C408      1.0  0.69007  0.14512  0.08024  1.0000
  H   H713      1.0  0.81115  0.26066  0.05231  1.0000
  C   C409      1.0  0.76929  0.18751  0.46736  1.0000
  H   H714      1.0  0.71693  0.11097  0.43010  1.0000
  C   C410      1.0  0.98819  0.37663  0.08318  1.0000
  S   S100      1.0  0.80614  0.32739  0.02180  1.0000
  H   H715      1.0  0.96553  0.28948  0.31843  1.0000
  C   C411      1.0  0.00557  0.34176  0.49069  1.0000
  H   H716      1.0  0.88046  0.30391  0.17344  1.0000
  H   H717      1.0  0.75553  0.38563  0.46999  1.0000
  H   H718      1.0  0.69569  0.16481  0.06119  1.0000
  H   H719      1.0  0.72601  0.28418  0.47207  1.0000
  H   H720      1.0  0.75631  0.02862  0.42797  1.0000
  H   H721      1.0  0.76755  0.08822  0.42847  1.0000
  C   C412      1.0  0.77435  0.43597  0.42648  1.0000
  H   H722      1.0  0.87697  0.28264  0.21373  1.0000
  C   C413      1.0  0.85104  0.48539  0.49247  1.0000
  H   H723      1.0  0.91915  0.33343  0.19152  1.0000
  C   C414      1.0  0.95823  0.28560  0.26357  1.0000
  H   H724      1.0  0.98509  0.48388  0.10137  1.0000
  H   H725      1.0  0.77942  0.13879  0.44875  1.0000
  C   C415      1.0  0.74206  0.05181  0.07225  1.0000
  C   C416      1.0  0.96989  0.26831  0.19324  1.0000
  H   H726      1.0  0.91661  0.24045  0.18768  1.0000
  H   H727      1.0  0.72537  0.12337  0.02921  1.0000
  H   H728      1.0  0.79535  0.11995  0.01120  1.0000
  H   H729      1.0  0.97810  0.42787  0.41271  1.0000
  N   N23       1.0  0.73590  0.13498  0.47458  1.0000
  H   H730      1.0  0.86518  0.25188  0.14297  1.0000
  H   H731      1.0  0.80243  0.41729  0.46645  1.0000
  H   H732      1.0  0.70155  0.08998  0.04098  1.0000
  H   H733      1.0  0.92985  0.27064  0.30736  1.0000
  S   S101      1.0  0.85900  0.36494  0.48972  1.0000
  H   H734      1.0  0.78380  0.45561  0.47602  1.0000
  H   H735      1.0  0.94213  0.44338  0.39797  1.0000
  C   C417      1.0  0.76535  0.02305  0.07297  1.0000
  H   H736      1.0  0.77080  0.41186  0.41339  1.0000
  C   C418      1.0  0.75488  0.41051  0.48227  1.0000
  N   N24       1.0  0.94028  0.28598  0.19966  1.0000
  H   H737      1.0  0.79730  0.07837  0.05560  1.0000
  C   C419      1.0  0.93192  0.28547  0.23756  1.0000
  C   C420      1.0  0.75052  0.12632  0.50815  1.0000
  C   C421      1.0  0.94104  0.32099  0.18613  1.0000
  H   H738      1.0  0.96073  0.34884  0.22825  1.0000
  H   H739      1.0  0.83711  0.26648  0.17326  1.0000
  C   C422      1.0  0.88313  0.27965  0.18624  1.0000
  H   H740      1.0  0.86042  0.23160  0.18423  1.0000
  C   C423      1.0  0.94645  0.29034  0.30024  1.0000
  H   H741      1.0  0.98844  0.27958  0.20814  1.0000
  H   H742      1.0  0.97078  0.37430  0.15474  1.0000
  C   C424      1.0  0.86018  0.25579  0.17066  1.0000
  H   H743      1.0  0.97495  0.30547  0.25811  1.0000
  H   H744      1.0  0.95266  0.42545  0.46819  1.0000
  H   H745      1.0  0.91664  0.30654  0.24401  1.0000
  H   H746      1.0  0.91850  0.26278  0.24413  1.0000
  H   H747      1.0  0.94782  0.49357  0.43382  1.0000
  H   H748      1.0  0.78153  0.18399  0.49174  1.0000
  H   H749      1.0  0.94604  0.47132  0.09870  1.0000
  S   S102      1.0  0.94362  0.33307  0.49165  1.0000
  H   H750      1.0  0.78728  0.03181  0.08320  1.0000
  C   C425      1.0  0.98167  0.26758  0.15558  1.0000
  C   C426      1.0  0.77529  0.23130  0.02972  1.0000
  H   H751      1.0  0.72483  0.05104  0.41061  1.0000
  H   H752      1.0  0.00648  0.43781  0.47689  1.0000
  C   C427      1.0  0.96132  0.47131  0.44030  1.0000
  H   H753      1.0  0.76418  0.07212  0.47135  1.0000
  C   C428      1.0  0.85982  0.48186  0.01420  1.0000
  C   C429      1.0  0.73786  0.04629  0.43425  1.0000
  H   H754      1.0  0.72161  0.35293  0.49253  1.0000
  H   H755      1.0  0.74903  0.00391  0.12244  1.0000
  H   H756      1.0  0.92427  0.39878  0.50621  1.0000
  C   C430      1.0  0.00048  0.43431  0.50438  1.0000
  H   H757      1.0  0.98880  0.41016  0.50661  1.0000
  H   H758      1.0  0.73719  0.04237  0.00945  1.0000
  C   C431      1.0  0.75426  0.99482  0.09615  1.0000
  H   H759      1.0  0.74261  0.48707  0.61053  1.0000
  C   C432      1.0  0.75939  0.28945  0.99624  1.0000
  S   S103      1.0  0.72729  0.21021  0.57401  1.0000
  H   H760      1.0  0.84520  0.49412  0.96318  1.0000
  C   C433      1.0  0.69348  0.33993  0.53562  1.0000
  Fe  Fe51      1.0  0.69172  0.17479  0.96647  1.0000
  S   S104      1.0  0.70174  0.14112  0.92160  1.0000
  S   S105      1.0  0.68735  0.13059  0.60323  1.0000
  H   H761      1.0  0.88226  0.40409  0.55000  1.0000
  H   H762      1.0  0.71036  0.11045  0.53768  1.0000
  H   H763      1.0  0.67613  0.03654  0.57251  1.0000
  C   C434      1.0  0.75003  0.09431  0.56417  1.0000
  H   H764      1.0  0.91024  0.40495  0.58338  1.0000
  H   H765      1.0  0.92960  0.45728  0.55599  1.0000
  C   C435      1.0  0.92886  0.41010  0.53146  1.0000
  C   C436      1.0  0.98073  0.46354  0.51780  1.0000
  H   H766      1.0  0.79482  0.40206  0.58184  1.0000
  H   H767      1.0  0.83435  0.48120  0.57800  1.0000
  C   C437      1.0  0.73954  0.14843  0.82638  1.0000
  H   H768      1.0  0.83644  0.36591  0.56260  1.0000
  H   H769      1.0  0.99374  0.48640  0.51101  1.0000
  C   C438      1.0  0.75439  0.07028  0.94697  1.0000
  C   C439      1.0  0.83969  0.49207  0.55327  1.0000
  C   C440      1.0  0.78880  0.37932  0.56750  1.0000
  C   C441      1.0  0.74297  0.23829  0.54281  1.0000
  C   C442      1.0  0.77390  0.24689  0.54455  1.0000
  H   H770      1.0  0.85296  0.29020  0.86732  1.0000
  H   H771      1.0  0.78744  0.23647  0.56473  1.0000
  C   C443      1.0  0.81476  0.35488  0.57191  1.0000
  H   H772      1.0  0.71944  0.08999  0.97981  1.0000
  H   H773      1.0  0.00758  0.26496  0.60733  1.0000
  H   H774      1.0  0.69670  0.24105  0.88034  1.0000
  N   N25       1.0  0.76286  0.22709  0.87911  1.0000
  C   C444      1.0  0.79072  0.23669  0.85848  1.0000
  C   C445      1.0  0.74441  0.20249  0.85891  1.0000
  C   C446      1.0  0.74393  0.25798  0.88351  1.0000
  C   C447      1.0  0.77021  0.21348  0.91421  1.0000
  C   C448      1.0  0.80020  0.19379  0.91753  1.0000
  C   C449      1.0  0.80903  0.26640  0.87290  1.0000
  C   C450      1.0  0.71184  0.25284  0.89929  1.0000
  C   C451      1.0  0.75977  0.16929  0.84948  1.0000
  H   H775      1.0  0.98074  0.46277  0.54636  1.0000
  C   C452      1.0  0.80173  0.17594  0.95202  1.0000
  C   C453      1.0  0.84094  0.26808  0.85730  1.0000
  H   H776      1.0  0.72271  0.26053  0.97516  1.0000
  H   H777      1.0  0.78434  0.24336  0.83178  1.0000
  H   H778      1.0  0.80634  0.21548  0.85540  1.0000
  H   H779      1.0  0.72362  0.19526  0.87351  1.0000
  C   C454      1.0  0.92681  0.44819  0.52930  1.0000
  H   H780      1.0  0.74100  0.27063  0.85833  1.0000
  H   H781      1.0  0.75565  0.27613  0.90030  1.0000
  H   H782      1.0  0.77178  0.23382  0.93339  1.0000
  H   H783      1.0  0.75128  0.19754  0.92390  1.0000
  H   H784      1.0  0.81994  0.21085  0.91588  1.0000
  H   H785      1.0  0.80317  0.17508  0.89715  1.0000
  H   H786      1.0  0.79749  0.29000  0.86659  1.0000
  H   H787      1.0  0.81088  0.26504  0.90123  1.0000
  H   H788      1.0  0.71269  0.23682  0.92233  1.0000
  H   H789      1.0  0.70207  0.24596  0.51481  1.0000
  H   H790      1.0  0.78156  0.17312  0.83558  1.0000
  H   H791      1.0  0.76341  0.15445  0.87300  1.0000
  C   C455      1.0  0.74433  0.08652  0.98063  1.0000
  H   H792      1.0  0.73678  0.07660  0.58034  1.0000
  H   H793      1.0  0.74737  0.08577  0.92497  1.0000
  H   H794      1.0  0.82324  0.16197  0.95362  1.0000
  H   H795      1.0  0.80094  0.19410  0.97337  1.0000
  H   H796      1.0  0.78254  0.15825  0.95501  1.0000
  H   H797      1.0  0.83998  0.27009  0.82891  1.0000
  H   H798      1.0  0.71127  0.29902  0.92854  1.0000
  H   H799      1.0  0.85401  0.24570  0.86434  1.0000
  C   C456      1.0  0.78755  0.26881  0.52048  1.0000
  H   H800      1.0  0.77573  0.05508  0.00776  1.0000
  H   H801      1.0  0.77939  0.06768  0.94590  1.0000
  H   H802      1.0  0.74366  0.04546  0.94433  1.0000
  H   H803      1.0  0.90625  0.36875  0.55672  1.0000
  H   H804      1.0  0.90317  0.45407  0.52210  1.0000
  H   H805      1.0  0.73411  0.16207  0.80248  1.0000
  H   H806      1.0  0.72625  0.38968  0.56151  1.0000
  H   H807      1.0  0.71811  0.14181  0.84004  1.0000
  H   H808      1.0  0.77836  0.48527  0.58788  1.0000
  H   H809      1.0  0.75127  0.12512  0.81923  1.0000
  C   C457      1.0  0.90541  0.39626  0.55700  1.0000
  H   H810      1.0  0.77255  0.08335  0.55851  1.0000
  H   H811      1.0  0.75340  0.14901  0.52409  1.0000
  H   H812      1.0  0.95128  0.40233  0.54068  1.0000
  H   H813      1.0  0.74165  0.33836  0.52951  1.0000
  S   S106      1.0  0.73184  0.19205  0.99917  1.0000
  C   C458      1.0  0.74228  0.26020  0.99130  1.0000
  C   C459      1.0  0.73312  0.10093  0.53098  1.0000
  C   C460      1.0  0.75346  0.48287  0.58504  1.0000
  H   H814      1.0  0.73643  0.21420  0.83475  1.0000
  H   H815      1.0  0.75301  0.31198  0.98322  1.0000
  C   C461      1.0  0.69736  0.28581  0.90934  1.0000
  H   H816      1.0  0.75306  0.11765  0.57886  1.0000
  H   H817      1.0  0.81710  0.34862  0.59948  1.0000
  H   H818      1.0  0.75298  0.43000  0.59076  1.0000
  H   H819      1.0  0.81132  0.27500  0.52229  1.0000
  C   C462      1.0  0.72585  0.25205  0.51650  1.0000
  H   H820      1.0  0.81026  0.33161  0.55761  1.0000
  H   H821      1.0  0.69479  0.30184  0.88640  1.0000
  H   H822      1.0  0.75476  0.11140  0.98174  1.0000
  H   H823      1.0  0.00624  0.25204  0.56314  1.0000
  C   C463      1.0  0.72770  0.39062  0.53313  1.0000
  Fe  Fe52      1.0  0.68182  0.18352  0.58559  1.0000
  H   H824      1.0  0.76833  0.36779  0.57923  1.0000
  H   H825      1.0  0.71997  0.44690  0.57115  1.0000
  H   H826      1.0  0.78258  0.45096  0.53536  1.0000
  H   H827      1.0  0.73026  0.07673  0.51798  1.0000
  H   H828      1.0  0.80503  0.40141  0.52084  1.0000
  H   H829      1.0  0.84244  0.44487  0.52714  1.0000
  C   C464      1.0  0.84418  0.47145  0.52453  1.0000
  C   C465      1.0  0.74509  0.44838  0.57190  1.0000
  C   C466      1.0  0.75053  0.23066  0.00735  1.0000
  H   H830      1.0  0.00421  0.33654  0.51787  1.0000
  H   H831      1.0  0.69416  0.33902  0.56407  1.0000
  H   H832      1.0  0.98828  0.45795  0.00089  1.0000
  H   H833      1.0  0.70770  0.40533  0.52515  1.0000
  C   C467      1.0  0.78427  0.38784  0.52923  1.0000
  C   C468      1.0  0.75858  0.44235  0.53545  1.0000
  H   H834      1.0  0.74649  0.46028  0.51876  1.0000
  H   H835      1.0  0.78478  0.36442  0.51418  1.0000
  C   C469      1.0  0.72295  0.35443  0.52085  1.0000
  N   N26       1.0  0.75646  0.40761  0.52088  1.0000
  H   H836      1.0  0.69034  0.31425  0.52608  1.0000
  H   H837      1.0  0.73667  0.61993  0.05088  1.0000
  S   S107      1.0  0.72133  0.86366  0.44721  1.0000
  C   C470      1.0  0.74606  0.63757  0.10129  1.0000
  C   C471      1.0  0.81076  0.68160  0.08043  1.0000
  H   H838      1.0  0.76923  0.66706  0.32618  1.0000
  H   H839      1.0  0.68063  0.74097  0.32680  1.0000
  H   H840      1.0  0.85888  0.53096  0.46480  1.0000
  Fe  Fe53      1.0  0.70196  0.84221  0.08473  1.0000
  S   S108      1.0  0.74632  0.81448  0.07197  1.0000
  S   S109      1.0  0.70581  0.88398  0.12352  1.0000
  C   C472      1.0  0.67719  0.77545  0.27026  1.0000
  H   H841      1.0  0.75791  0.71665  0.04257  1.0000
  H   H842      1.0  0.85292  0.69779  0.10311  1.0000
  H   H843      1.0  0.93101  0.57068  0.05163  1.0000
  C   C473      1.0  0.85366  0.51997  0.48953  1.0000
  H   H844      1.0  0.77478  0.61464  0.06236  1.0000
  C   C474      1.0  0.68123  0.97540  0.01278  1.0000
  H   H845      1.0  0.81739  0.77046  0.48050  1.0000
  N   N27       1.0  0.97802  0.56711  0.03488  1.0000
  H   H846      1.0  0.81149  0.64765  0.03854  1.0000
  H   H847      1.0  0.71846  0.68188  0.34956  1.0000
  C   C475      1.0  0.79707  0.76003  0.49207  1.0000
  H   H848      1.0  0.93899  0.61865  0.01030  1.0000
  C   C476      1.0  0.70479  0.77474  0.29344  1.0000
  H   H849      1.0  0.78496  0.76631  0.37191  1.0000
  C   C477      1.0  0.70278  0.86792  0.24435  1.0000
  H   H850      1.0  0.93693  0.51391  0.05445  1.0000
  C   C478      1.0  0.87357  0.52856  0.04953  1.0000
  C   C479      1.0  0.76855  0.77309  0.48346  1.0000
  C   C480      1.0  0.95233  0.58533  0.05238  1.0000
  C   C481      1.0  0.71360  0.69469  0.04716  1.0000
  H   H851      1.0  0.84876  0.71013  0.05905  1.0000
  H   H852      1.0  0.75063  0.69868  0.08278  1.0000
  S   S110      1.0  0.70534  0.77510  0.48790  1.0000
  C   C482      1.0  0.79154  0.77847  0.04000  1.0000
  H   H853      1.0  0.68344  0.78712  0.24528  1.0000
  H   H854      1.0  0.94916  0.53151  0.09405  1.0000
  C   C483      1.0  0.67895  0.72515  0.39008  1.0000
  C   C484      1.0  0.74015  0.78558  0.35810  1.0000
  H   H855      1.0  0.72361  0.64974  0.10286  1.0000
  C   C485      1.0  0.74315  0.60422  0.11970  1.0000
  C   C486      1.0  0.71807  0.87200  0.27563  1.0000
  C   C487      1.0  0.76738  0.78302  0.38266  1.0000
  H   H856      1.0  0.68865  0.94990  0.01223  1.0000
  H   H857      1.0  0.85752  0.66758  0.06950  1.0000
  C   C488      1.0  0.00620  0.58830  0.03784  1.0000
  H   H858      1.0  0.72648  0.58802  0.10668  1.0000
  C   C489      1.0  0.78233  0.81684  0.38782  1.0000
  H   H859      1.0  0.79096  0.82687  0.36296  1.0000
  H   H860      1.0  0.97646  0.60325  0.48065  1.0000
  C   C490      1.0  0.71001  0.74342  0.38854  1.0000
  H   H861      1.0  0.69012  0.69457  0.43440  1.0000
  H   H862      1.0  0.69853  0.71649  0.09569  1.0000
  H   H863      1.0  0.74967  0.79459  0.33319  1.0000
  C   C491      1.0  0.70241  0.86947  0.30724  1.0000
  H   H864      1.0  0.72691  0.72762  0.40167  1.0000
  H   H865      1.0  0.71510  0.86957  0.22022  1.0000
  Fe  Fe54      1.0  0.68995  0.82139  0.45879  1.0000
  C   C492      1.0  0.74251  0.72826  0.33832  1.0000
  H   H866      1.0  0.80488  0.78533  0.06195  1.0000
  C   C493      1.0  0.98378  0.53440  0.05290  1.0000
  N   N28       1.0  0.72185  0.75423  0.35347  1.0000
  C   C494      1.0  0.74792  0.69425  0.05494  1.0000
  H   H867      1.0  0.77197  0.97549  0.09780  1.0000
  H   H868      1.0  0.95738  0.58853  0.08011  1.0000
  C   C495      1.0  0.84456  0.68974  0.07772  1.0000
  C   C496      1.0  0.69723  0.72157  0.06775  1.0000
  H   H869      1.0  0.89718  0.62002  0.05371  1.0000
  H   H870      1.0  0.92269  0.63745  0.08491  1.0000
  C   C497      1.0  0.76156  0.79000  0.03772  1.0000
  H   H871      1.0  0.73368  0.98319  0.08539  1.0000
  H   H872      1.0  0.88128  0.53824  0.07375  1.0000
  H   H873      1.0  0.80158  0.81443  0.40562  1.0000
  C   C498      1.0  0.72734  0.69557  0.32687  1.0000
  H   H874      1.0  0.73526  0.60817  0.14656  1.0000
  N   N29       1.0  0.76483  0.66377  0.04323  1.0000
  H   H875      1.0  0.96396  0.63755  0.04095  1.0000
  C   C499      1.0  0.79847  0.67029  0.04535  1.0000
  H   H876      1.0  0.76209  0.65307  0.11575  1.0000
  H   H877      1.0  0.71407  0.80029  0.29445  1.0000
  C   C500      1.0  0.79448  0.86718  0.48494  1.0000
  C   C501      1.0  0.69598  0.76249  0.33005  1.0000
  C   C502      1.0  0.74201  0.75983  0.49805  1.0000
  C   C503      1.0  0.75024  0.67299  0.30887  1.0000
  C   C504      1.0  0.94477  0.62006  0.03787  1.0000
  H   H878      1.0  0.00376  0.61208  0.02370  1.0000
  C   C505      1.0  0.74470  0.78102  0.00903  1.0000
  C   C506      1.0  0.86688  0.55053  0.02261  1.0000
  H   H879      1.0  0.70740  0.74630  0.06234  1.0000
  H   H880      1.0  0.80533  0.68938  0.02601  1.0000
  C   C507      1.0  0.91788  0.63526  0.05712  1.0000
  C   C508      1.0  0.75597  0.63294  0.06321  1.0000
  H   H881      1.0  0.76022  0.77345  0.40818  1.0000
  H   H882      1.0  0.76588  0.83464  0.39897  1.0000
  H   H883      1.0  0.72182  0.75854  0.28096  1.0000
  H   H884      1.0  0.72518  0.80576  0.36772  1.0000
  Fe  Fe55      1.0  0.69697  0.86748  0.39689  1.0000
  H   H885      1.0  0.79927  0.70422  0.08991  1.0000
  H   H886      1.0  0.00083  0.53765  0.07346  1.0000
  H   H887      1.0  0.75576  0.73860  0.31624  1.0000
  H   H888      1.0  0.80828  0.66140  0.09950  1.0000
  C   C509      1.0  0.80450  0.75825  0.01416  1.0000
  H   H889      1.0  0.76707  0.79329  0.46544  1.0000
  H   H890      1.0  0.74216  0.87692  0.27532  1.0000
  S   S111      1.0  0.72245  0.87334  0.34616  1.0000
  H   H891      1.0  0.91366  0.66050  0.04692  1.0000
  H   H892      1.0  0.76541  0.59153  0.12026  1.0000
  H   H893      1.0  0.99384  0.51629  0.03466  1.0000
  H   H894      1.0  0.86933  0.57693  0.02609  1.0000
  H   H895      1.0  0.70278  0.67044  0.05303  1.0000
  H   H896      1.0  0.95584  0.51648  0.48839  1.0000
  H   H897      1.0  0.70877  0.70000  0.30865  1.0000
  H   H898      1.0  0.73899  0.64943  0.30151  1.0000
  C   C510      1.0  0.98468  0.62744  0.49043  1.0000
  C   C511      1.0  0.95660  0.51691  0.07132  1.0000
  H   H899      1.0  0.75940  0.68501  0.28522  1.0000
  H   H900      1.0  0.75989  0.72096  0.35722  1.0000
  H   H901      1.0  0.81886  0.86971  0.47806  1.0000
  H   H902      1.0  0.70712  0.76513  0.40590  1.0000
  H   H903      1.0  0.71027  0.70018  0.01952  1.0000
  H   H904      1.0  0.96658  0.63843  0.50688  1.0000
  H   H905      1.0  0.82760  0.74989  0.01629  1.0000
  H   H906      1.0  0.68162  0.78214  0.34198  1.0000
  H   H907      1.0  0.78437  0.84853  0.46765  1.0000
  H   H908      1.0  0.98916  0.64440  0.46846  1.0000
  H   H909      1.0  0.67802  0.70420  0.37192  1.0000
  H   H910      1.0  0.91721  0.50420  0.49043  1.0000
  Fe  Fe56      1.0  0.68457  0.89621  0.46889  1.0000
  H   H911      1.0  0.78340  0.89149  0.48088  1.0000
  C   C512      1.0  0.93924  0.50166  0.50382  1.0000
  Fe  Fe57      1.0  0.85107  0.67832  0.56388  1.0000
  S   S112      1.0  0.82095  0.64998  0.60074  1.0000
  N   N30       1.0  0.96032  0.72463  0.68534  1.0000
  Fe  Fe58      1.0  0.90912  0.64617  0.59187  1.0000
  S   S113      1.0  0.88255  0.61677  0.63113  1.0000
  S   S114      1.0  0.95883  0.63138  0.59232  1.0000
  Fe  Fe59      1.0  0.85055  0.60591  0.58832  1.0000
  S   S115      1.0  0.83513  0.55192  0.58655  1.0000
  Fe  Fe60      1.0  0.85579  0.66278  0.64033  1.0000
  S   S116      1.0  0.84030  0.68325  0.69207  1.0000
  S   S117      1.0  0.87833  0.63302  0.54837  1.0000
  S   S118      1.0  0.88468  0.69351  0.60433  1.0000
  Fe  Fe61      1.0  0.91148  0.67343  0.95923  1.0000
  S   S119      1.0  0.90986  0.62861  0.92574  1.0000
  H   H912      1.0  0.68534  0.86630  0.58041  1.0000
  Fe  Fe62      1.0  0.84544  0.69128  0.94711  1.0000
  S   S120      1.0  0.83967  0.64755  0.91169  1.0000
  S   S121      1.0  0.80192  0.72182  0.95319  1.0000
  Fe  Fe63      1.0  0.86488  0.61815  0.95077  1.0000
  S   S122      1.0  0.84862  0.56489  0.95650  1.0000
  Fe  Fe64      1.0  0.88494  0.66083  0.88870  1.0000
  S   S123      1.0  0.90249  0.65113  0.83431  1.0000
  H   H913      1.0  0.00689  0.60851  0.53471  1.0000
  S   S124      1.0  0.88932  0.70689  0.92077  1.0000
  C   C513      1.0  0.75761  0.76062  0.98328  1.0000
  H   H914      1.0  0.95444  0.56743  0.52520  1.0000
  H   H915      1.0  0.89380  0.55138  0.88802  1.0000
  H   H916      1.0  0.00210  0.77708  0.69407  1.0000
  C   C514      1.0  0.93558  0.51918  0.53909  1.0000
  H   H917      1.0  0.98682  0.66886  0.71265  1.0000
  C   C515      1.0  0.93286  0.55669  0.53505  1.0000
  H   H918      1.0  0.94358  0.77353  0.67278  1.0000
  H   H919      1.0  0.98762  0.72760  0.73116  1.0000
  C   C516      1.0  0.85829  0.67462  0.73125  1.0000
  C   C517      1.0  0.88210  0.65207  0.73318  1.0000
  C   C518      1.0  0.89543  0.64533  0.76499  1.0000
  C   C519      1.0  0.88493  0.66080  0.79513  1.0000
  C   C520      1.0  0.86119  0.68342  0.79322  1.0000
  C   C521      1.0  0.84801  0.69036  0.76134  1.0000
  H   H920      1.0  0.88992  0.63954  0.71023  1.0000
  H   H921      1.0  0.91373  0.62772  0.76637  1.0000
  H   H922      1.0  0.85308  0.69567  0.81622  1.0000
  H   H923      1.0  0.82960  0.70787  0.76003  1.0000
  C   C522      1.0  0.84221  0.52672  0.55023  1.0000
  H   H924      1.0  0.83483  0.61728  0.76786  1.0000
  C   C523      1.0  0.84946  0.54054  0.51827  1.0000
  C   C524      1.0  0.81234  0.61561  0.83199  1.0000
  C   C525      1.0  0.75721  0.85263  0.53346  1.0000
  H   H925      1.0  0.83356  0.62987  0.83676  1.0000
  H   H926      1.0  0.97173  0.69940  0.56946  1.0000
  C   C526      1.0  0.89010  0.55693  0.86049  1.0000
  C   C527      1.0  0.99338  0.64589  0.95336  1.0000
  C   C528      1.0  0.99055  0.67425  0.97364  1.0000
  H   H927      1.0  0.74113  0.61435  0.95310  1.0000
  H   H928      1.0  0.97338  0.63375  0.94385  1.0000
  H   H929      1.0  0.77446  0.70023  0.54840  1.0000
  H   H930      1.0  0.80407  0.60722  0.85773  1.0000
  H   H931      1.0  0.74288  0.95284  0.59166  1.0000
  H   H932      1.0  0.83816  0.60414  0.70400  1.0000
  H   H933      1.0  0.76639  0.68618  0.83566  1.0000
  H   H934      1.0  0.91716  0.52874  0.94365  1.0000
  H   H935      1.0  0.85228  0.58773  0.87222  1.0000
  H   H936      1.0  0.81317  0.78844  0.62352  1.0000
  S   S125      1.0  0.95458  0.69010  0.98547  1.0000
  H   H937      1.0  0.95512  0.51403  0.55580  1.0000
  H   H938      1.0  0.98865  0.78322  0.65104  1.0000
  C   C529      1.0  0.68499  0.99052  0.54572  1.0000
  H   H939      1.0  0.77844  0.79135  0.55553  1.0000
  H   H940      1.0  0.74681  0.52212  0.83892  1.0000
  C   C530      1.0  0.95143  0.68903  0.67883  1.0000
  C   C531      1.0  0.93722  0.74711  0.66930  1.0000
  C   C532      1.0  0.00241  0.76698  0.66762  1.0000
  C   C533      1.0  0.99226  0.68863  0.57923  1.0000
  C   C534      1.0  0.94347  0.71300  0.74900  1.0000
  H   H941      1.0  0.94597  0.62665  0.71327  1.0000
  C   C535      1.0  0.77542  0.83356  0.59129  1.0000
  C   C536      1.0  0.90438  0.74445  0.68339  1.0000
  C   C537      1.0  0.88304  0.76686  0.66346  1.0000
  C   C538      1.0  0.94445  0.72868  0.78463  1.0000
  C   C539      1.0  0.96189  0.62813  0.69106  1.0000
  C   C540      1.0  0.76463  0.62418  0.95142  1.0000
  H   H942      1.0  0.94627  0.68537  0.65114  1.0000
  H   H943      1.0  0.93008  0.68243  0.69248  1.0000
  C   C541      1.0  0.74448  0.73343  0.52148  1.0000
  C   C542      1.0  0.69225  0.84499  0.56417  1.0000
  C   C543      1.0  0.94216  0.54472  0.98808  1.0000
  C   C544      1.0  0.74476  0.88407  0.58658  1.0000
  H   H944      1.0  0.71856  0.82410  0.60498  1.0000
  S   S126      1.0  0.69595  0.93160  0.51250  1.0000
  H   H945      1.0  0.95132  0.68706  0.75147  1.0000
  H   H946      1.0  0.91955  0.71198  0.74125  1.0000
  H   H947      1.0  0.81227  0.75669  0.59111  1.0000
  S   S127      1.0  0.83631  0.71854  0.52577  1.0000
  H   H948      1.0  0.76211  0.78125  0.59653  1.0000
  H   H949      1.0  0.89604  0.53466  0.84518  1.0000
  H   H950      1.0  0.89563  0.71885  0.68137  1.0000
  H   H951      1.0  0.90322  0.75270  0.71047  1.0000
  H   H952      1.0  0.88336  0.76054  0.63576  1.0000
  H   H953      1.0  0.85953  0.76341  0.67342  1.0000
  H   H954      1.0  0.88956  0.79328  0.66656  1.0000
  H   H955      1.0  0.96046  0.75934  0.72755  1.0000
  H   H956      1.0  0.76841  0.63086  0.80983  1.0000
  H   H957      1.0  0.77608  0.91602  0.55755  1.0000
  C   C545      1.0  0.97236  0.56173  0.99723  1.0000
  C   C546      1.0  0.85318  0.50386  0.98726  1.0000
  H   H958      1.0  0.97553  0.66453  0.87140  1.0000
  C   C547      1.0  0.78236  0.66766  0.84602  1.0000
  C   C548      1.0  0.85064  0.57418  0.81715  1.0000
  N   N31       1.0  0.81906  0.58604  0.80927  1.0000
  H   H959      1.0  0.79646  0.60614  0.76462  1.0000
  C   C549      1.0  0.78987  0.64194  0.81848  1.0000
  H   H960      1.0  0.86769  0.59293  0.80844  1.0000
  C   C550      1.0  0.79740  0.55787  0.81685  1.0000
  C   C551      1.0  0.76384  0.56344  0.80784  1.0000
  C   C552      1.0  0.82716  0.56922  0.74532  1.0000
  C   C553      1.0  0.81881  0.59628  0.77199  1.0000
  H   H961      1.0  0.74859  0.83043  0.51971  1.0000
  C   C554      1.0  0.77127  0.90922  0.58468  1.0000
  C   C555      1.0  0.96396  0.73237  0.72303  1.0000
  C   C556      1.0  0.82348  0.58212  0.70870  1.0000
  H   H962      1.0  0.76062  0.68166  0.99109  1.0000
  N   N32       1.0  0.75049  0.85015  0.57159  1.0000
  C   C557      1.0  0.72205  0.82965  0.57717  1.0000
  C   C558      1.0  0.77678  0.63126  0.98716  1.0000
  C   C559      1.0  0.78000  0.79622  0.58335  1.0000
  C   C560      1.0  0.97560  0.66285  0.68817  1.0000
  H   H963      1.0  0.79958  0.58902  0.70401  1.0000
  H   H964      1.0  0.80524  0.53482  0.80393  1.0000
  C   C561      1.0  0.99020  0.73084  0.66692  1.0000
  H   H965      1.0  0.76116  0.57182  0.78100  1.0000
  H   H966      1.0  0.75370  0.58182  0.82564  1.0000
  H   H967      1.0  0.85115  0.56171  0.74780  1.0000
  H   H968      1.0  0.81240  0.54709  0.74840  1.0000
  H   H969      1.0  0.77082  0.83549  0.61941  1.0000
  H   H970      1.0  0.80319  0.68095  0.85399  1.0000
  H   H971      1.0  0.83008  0.56263  0.68998  1.0000
  H   H972      1.0  0.72429  0.80518  0.56415  1.0000
  H   H973      1.0  0.75398  0.51210  0.79424  1.0000
  C   C562      1.0  0.81061  0.78381  0.59564  1.0000
  H   H974      1.0  0.79733  0.55187  0.84471  1.0000
  C   C563      1.0  0.99178  0.65633  0.59219  1.0000
  H   H975      1.0  0.82936  0.79613  0.58113  1.0000
  H   H976      1.0  0.74438  0.87361  0.52219  1.0000
  H   H977      1.0  0.94152  0.56392  0.93572  1.0000
  C   C564      1.0  0.74549  0.53144  0.81214  1.0000
  C   C565      1.0  0.93960  0.53985  0.94938  1.0000
  H   H978      1.0  0.80010  0.65546  0.79634  1.0000
  C   C566      1.0  0.79957  0.73364  0.51557  1.0000
  C   C567      1.0  0.68360  0.97329  0.51444  1.0000
  H   H979      1.0  0.74423  0.75372  0.96139  1.0000
  H   H980      1.0  0.72605  0.89659  0.57293  1.0000
  H   H981      1.0  0.69037  0.98395  0.95889  1.0000
  H   H982      1.0  0.98016  0.60976  0.69481  1.0000
  H   H983      1.0  0.85600  0.55114  0.80276  1.0000
  H   H984      1.0  0.93440  0.75384  0.78415  1.0000
  H   H985      1.0  0.98858  0.72345  0.63953  1.0000
  H   H986      1.0  0.75824  0.93639  0.63097  1.0000
  H   H987      1.0  0.93664  0.74277  0.64103  1.0000
  H   H988      1.0  0.84298  0.54505  0.86465  1.0000
  C   C568      1.0  0.79107  0.85629  0.52234  1.0000
  H   H989      1.0  0.77916  0.60542  0.93853  1.0000
  C   C569      1.0  0.85695  0.53823  0.99122  1.0000
  H   H990      1.0  0.90526  0.57781  0.85289  1.0000
  S   S128      1.0  0.86788  0.66069  0.98788  1.0000
  H   H991      1.0  0.79744  0.84634  0.58735  1.0000
  H   H992      1.0  0.96669  0.70767  0.86608  1.0000
  H   H993      1.0  0.97340  0.58570  0.98317  1.0000
  C   C570      1.0  0.85699  0.56623  0.85544  1.0000
  C   C571      1.0  0.77302  0.72049  0.53031  1.0000
  H   H994      1.0  0.80285  0.83223  0.52500  1.0000
  H   H995      1.0  0.77161  0.65569  0.86883  1.0000
  H   H996      1.0  0.93109  0.71335  0.80312  1.0000
  H   H997      1.0  0.79201  0.89938  0.59654  1.0000
  H   H998      1.0  0.96807  0.73035  0.79379  1.0000
  H   H999      1.0  0.94964  0.62158  0.66732  1.0000
  H   H1000     1.0  0.73721  0.88171  0.61391  1.0000
  H   H1001     1.0  0.69520  0.85366  0.53736  1.0000
  H   H1002     1.0  0.99068  0.54644  0.98557  1.0000
  H   H1003     1.0  0.80055  0.63978  0.98359  1.0000
  C   C572      1.0  0.78753  0.74895  0.98569  1.0000
  C   C573      1.0  0.98480  0.69010  0.87329  1.0000
  H   H1004     1.0  0.99338  0.66211  0.66778  1.0000
  H   H1005     1.0  0.78223  0.95911  0.60132  1.0000
  H   H1006     1.0  0.80337  0.87457  0.53801  1.0000
  C   C574      1.0  0.76305  0.94128  0.60337  1.0000
  H   H1007     1.0  0.91425  0.56301  0.51738  1.0000
  H   H1008     1.0  0.76504  0.64716  0.93568  1.0000
  H   H1009     1.0  0.92768  0.56805  0.56040  1.0000
  H   H1010     1.0  0.91450  0.51045  0.55227  1.0000
  H   H1011     1.0  0.99101  0.69519  0.90027  1.0000
  H   H1012     1.0  0.72416  0.72286  0.53293  1.0000
  H   H1013     1.0  0.92282  0.56021  0.99637  1.0000
  H   H1014     1.0  0.72135  0.53625  0.80636  1.0000
  H   H1015     1.0  0.85124  0.56715  0.51555  1.0000
  H   H1016     1.0  0.69345  0.97813  0.56820  1.0000
  H   H1017     1.0  0.74560  0.50235  0.56714  1.0000
  H   H1018     1.0  0.95751  0.52290  0.93973  1.0000
  H   H1019     1.0  0.94034  0.51988  0.99993  1.0000
  H   H1020     1.0  0.00829  0.71516  0.67790  1.0000
  H   H1021     1.0  0.00430  0.69215  0.82281  1.0000
  H   H1022     1.0  0.77671  0.60772  0.00190  1.0000
  H   H1023     1.0  0.72166  0.78961  0.00681  1.0000
  H   H1024     1.0  0.73354  0.65105  0.00287  1.0000
  C   C575      1.0  0.75773  0.65819  0.00584  1.0000
  C   C576      1.0  0.68232  0.99479  0.98267  1.0000
