data_image0
_chemical_formula_structural       FeS2FeS2FeSFeS3H3SHFeHFeSHFeS2FeS2FeSFeS3FeSFeCSH2S2H2C2HCH5C6H4CHC2H3CH3C6H4C6H4C3H3CH2FeC4H2CFeCHC2H4NC6HCH2CH3CH4CH10CH4CH2CH2CH2CHCH2CH2CHCHC2H11CH3CH10NC12H27CH2CH4C2H2SH2C2HNH2CNC2H4C4NHC2H2C3H5CSHCHCHCH2CHC2H7SH3SC2H2NH3C2H4CHC2SCHCH3C2H3C3H3CHC2SC2HSFeSHSFeSFeHSFeSFeHSHS2CHCNH4C3H2C6H7FeC6H4C2H3CHNC12H28NC5HC4HC2H9CSH7C2H3C2HSC2H3CHC2HCH5CH3CNHCH3C2H2CH3CFeH4SCHCH4CH5NC4H2CH10CHCH3CH2C2H6FeH2CH12CHC2NCHC2HSH2CH4CHCH4C3HCHCH2CHSHCHCH3C2H2SH7CHC2HCH2C2H7SH2C2HC2HSHNSCFeC4H2CHCSH2SH2SH5C3SHC2HCHNH4CFeCH2C7H2CH3CH3SH3CSCHCFeHCH7C2HCH3SH2FeCSH4CH5C4H2FeHFeHCH3CH3CH4SFeH2C3H3CH4NFeCH2CHC2H5S2HSCSCFeSFeSH6SHFeHSFeHCHS2CH3CHC3H2C8H3C2H3CHCH2CH3C6H3C2H5CNHCH3CSH5CH4CH2CSNC3H7FeHCHFeH2CH3CH2CH3SH2CH3CHSCH7C2HSH2CNH7CSH2NCHC2H5CH3CH2CHCH2SHC2H6CHCH6FeHFeH5C2HCHC2HCH4CHC4HC2HC2HFeH2SH2SHCHSFeS2FeS2FeSFeS3HFeS2FeS2FeSFeS3HNCFeCH2C3H2CSCH2C6H4CH3C7H5C6H3CHC3HCH4CH3CHCHCH2CHNH2CH3CHCHCHCH5C2HC3H3C2H2CH2SCH5CH2CH11CHCHCNHCHCHC2H2CH6CH3SHC2HC2H8NCHCH2C2HC3H4CSH5CH2CSHSHCHCHCH4SCH7CHC2HCHC2H3CH2C2HCH15CH2C2H2CSH3C3H2CH3C3NFeH4C2H5NCH3CHC3H2CH2CHNCHSH2CH5FeS2FeS2FeSFeS3HFeS2FeHFeSHFeS2FeS2FeSFeS3FeSFeHSHCSHSCHC6HCH2C6H5C6H4C6H4C6H4C3H2C4H2C2H2C2H2CH2CH6CH6CH3C3HCHCH2CHCH2CH5SCH3CNC2H2C2HC2H4NC12H28CHCH3NC4HC7H20CHC3H3CH3CH2CH2C3H2CH11CH3CH2CH3CSH2CHNHC2HCFeCH2CH2C2H4FeNHCH2CH2CH7CH4CHCH3SHCH2SHCHNC2HCH6CNCH6CHCH2CHCH4SHCH5FeSHFeS2FeSFeS3FeHSFeSCH2S2FeS2FeS2FeSFeS4CSCFeSFeSHCH5CHC3NHC5H2C6H4C2H3CH4CH2CH2C3H3C6H4C6H9CH2C2H4CH4C2NCSC6HC3H18CH6NCHNC4HCH3C2HNH6NC10HCH23CH2CH3CH9CHC2H6CH4C3H7CH10CHC2H2CH2CH7C3H2CH2C2H2CH4CH3CH2C4H3C2H2FeHC2HC3H2C2HCH5SHSCFeSFeCSHS2FeS2FeCHCS2HC4H3SHSH3C6H5C2HC6H4C2H3CHCH8NC2H2CH2CH3CHSC2HNH3SHSH4FeC3NSC7HC4H6CH5FeCHCH5CHCH4CH2C2FeHSCHCH13CHCH4FeH2CH2FeCH2CH2FeH3CH3CNH2CHCH4CH4CH2SCH5CHCHCSCSHCHSHFeSH2C2SHFeCH3FeSC2SH2CHC2HCSHCHCHFeSHCH2CHCHCHFeHC5H5CHCH2CHNCH3C2H8CH3CSHCH2C2NFeH4CH4C2H2SC4H8CH3C2H3C2H2CHC3H3CH3CHCH3C2H2CH7CSH6CH3CH7C5H4NHCH3CHFeH2SH4C5H6SH6NH3S3HFeSFeSCH3SC2S2H3SFeSC3HC9H2SH3CHNC8H3C3H2FeHC2NC2H2CSH3CHC2HCH4SCHCH2C2H2CH2CH4C3H2FeHCSH2CH3CHCH3CH4CH2CH2C2H3CH4SCSH12C2FeC3H6CHC3H4CH2SHCH3NH2C3H3FeH5C2H3CH5FeHC2H2SHFeH3SHFeSFeS2FeS2FeSFeS3CFeS2FeS2FeSFeS3HC2HCHC6H4C2H4C2H3C2H2C7H5C7H2CHC2HCHCH3CH4CHCH3C2H6NC6H10SH4CNC3HC3H2C3SH5CS2CHC5H4CH5CHC2HCHSCH5C3SCH17CH11CH9CH3CH2C5H2CNH4C2HCH4CH6CH5NSNH3C2HC4H5C2HC2H8C2H2CH2CH6CHCH10CFeCH2C2HCN2CHSCH4FeS2FeS2FeSFeS3FeHSFeSH2S2FeS2FeS2FeSFeS3FeHSH3CSH3C4HC7H4C2H3C6H4C2H3C6H2SHC2H2C7H4C6H3NC2HCHCHC4H6C4HC2H6SH4NC12H34CH2CH4CH2SH3C3H3CH2CH4FeCH3CH4CH2CHC2H3CFeH3CH4CH5C2NCHCH2FeH4C2SH2CHNH2CHCHC2H6CSHC3HCHCH3CH6C2H3NHCH2CHC2H7NCH4C3H6NHCH2C4H3FeH3C2H4SHCH3CH2
_chemical_formula_sum              "Fe128 S256 H2048 C1152 N64"
_cell_length_a       48.3339
_cell_length_b       59.935
_cell_length_c       59.7483
_cell_angle_alpha    88.3928
_cell_angle_beta     90.6465
_cell_angle_gamma    90.7472

_space_group_name_H-M_alt    "P 1"
_space_group_IT_number       1

loop_
  _space_group_symop_operation_xyz
  'x, y, z'

loop_
  _atom_site_type_symbol
  _atom_site_label
  _atom_site_symmetry_multiplicity
  _atom_site_fract_x
  _atom_site_fract_y
  _atom_site_fract_z
  _atom_site_occupancy
  Fe  Fe1       1.0  0.38678  0.22080  0.11345  1.0000
  S   S1        1.0  0.37734  0.25579  0.12293  1.0000
  S   S2        1.0  0.42978  0.21013  0.12642  1.0000
  Fe  Fe2       1.0  0.32628  0.21370  0.09360  1.0000
  S   S3        1.0  0.31444  0.24839  0.10323  1.0000
  S   S4        1.0  0.29922  0.19196  0.06956  1.0000
  Fe  Fe3       1.0  0.35575  0.25942  0.08947  1.0000
  S   S5        1.0  0.36788  0.28468  0.06182  1.0000
  Fe  Fe4       1.0  0.33744  0.24118  0.13618  1.0000
  S   S6        1.0  0.32222  0.25185  0.17075  1.0000
  S   S7        1.0  0.36752  0.22502  0.07921  1.0000
  S   S8        1.0  0.34694  0.20579  0.12742  1.0000
  H   H1        1.0  0.44953  0.20298  0.08114  1.0000
  H   H2        1.0  0.02567  0.18303  0.41696  1.0000
  H   H3        1.0  0.11296  0.99495  0.43160  1.0000
  S   S9        1.0  0.12167  0.11989  0.01718  1.0000
  H   H4        1.0  0.26355  0.27789  0.99832  1.0000
  Fe  Fe5       1.0  0.09093  0.13352  0.99158  1.0000
  H   H5        1.0  0.23533  0.27668  0.05680  1.0000
  Fe  Fe6       1.0  0.14986  0.14939  0.00815  1.0000
  S   S10       1.0  0.17466  0.16895  0.03515  1.0000
  H   H6        1.0  0.02375  0.19281  0.38817  1.0000
  Fe  Fe7       1.0  0.40112  0.23880  0.34422  1.0000
  S   S11       1.0  0.38300  0.26308  0.31882  1.0000
  S   S12       1.0  0.44721  0.24559  0.35112  1.0000
  Fe  Fe8       1.0  0.34228  0.21925  0.35584  1.0000
  S   S13       1.0  0.32170  0.24219  0.33058  1.0000
  S   S14       1.0  0.31945  0.19578  0.38093  1.0000
  Fe  Fe9       1.0  0.35660  0.23430  0.30724  1.0000
  S   S15       1.0  0.35578  0.22097  0.27133  1.0000
  Fe  Fe10      1.0  0.35027  0.26865  0.34461  1.0000
  S   S16       1.0  0.33444  0.30271  0.35433  1.0000
  S   S17       1.0  0.37597  0.20960  0.33200  1.0000
  S   S18       1.0  0.36956  0.24607  0.37052  1.0000
  Fe  Fe11      1.0  0.10581  0.13454  0.43925  1.0000
  S   S19       1.0  0.06490  0.12783  0.42082  1.0000
  Fe  Fe12      1.0  0.16782  0.14882  0.43317  1.0000
  C   C1        1.0  0.16213  0.01766  0.45092  1.0000
  S   S20       1.0  0.19444  0.16622  0.40543  1.0000
  H   H7        1.0  0.34997  0.21506  0.41962  1.0000
  H   H8        1.0  0.24981  0.29420  0.43328  1.0000
  S   S21       1.0  0.14395  0.11621  0.42886  1.0000
  S   S22       1.0  0.12867  0.16736  0.44051  1.0000
  H   H9        1.0  0.27222  0.14810  0.09473  1.0000
  H   H10       1.0  0.29719  0.22214  0.28563  1.0000
  C   C2        1.0  0.32219  0.23729  0.02761  1.0000
  C   C3        1.0  0.28316  0.17715  0.30176  1.0000
  H   H11       1.0  0.26358  0.23158  0.41995  1.0000
  C   C4        1.0  0.24994  0.20994  0.98768  1.0000
  H   H12       1.0  0.43790  0.28766  0.25971  1.0000
  H   H13       1.0  0.18546  0.17462  0.29385  1.0000
  H   H14       1.0  0.23605  0.23336  0.29376  1.0000
  H   H15       1.0  0.23816  0.23707  0.02241  1.0000
  H   H16       1.0  0.36578  0.28693  0.39370  1.0000
  C   C5        1.0  0.28429  0.18884  0.38779  1.0000
  C   C6        1.0  0.26192  0.19415  0.37359  1.0000
  C   C7        1.0  0.23470  0.18730  0.37941  1.0000
  C   C8        1.0  0.22927  0.17517  0.39953  1.0000
  C   C9        1.0  0.25160  0.17032  0.41392  1.0000
  C   C10       1.0  0.27883  0.17700  0.40802  1.0000
  H   H17       1.0  0.26562  0.20316  0.35797  1.0000
  H   H18       1.0  0.21768  0.19119  0.36811  1.0000
  H   H19       1.0  0.24797  0.16098  0.42939  1.0000
  H   H20       1.0  0.29588  0.17266  0.41913  1.0000
  C   C11       1.0  0.01166  0.18524  0.40221  1.0000
  H   H21       1.0  0.39714  0.30881  0.24709  1.0000
  C   C12       1.0  0.46683  0.20861  0.09124  1.0000
  C   C13       1.0  0.15286  0.00006  0.98217  1.0000
  H   H22       1.0  0.25837  0.27335  0.09410  1.0000
  H   H23       1.0  0.38179  0.31024  0.02253  1.0000
  H   H24       1.0  0.36227  0.25433  0.02486  1.0000
  C   C14       1.0  0.41890  0.25415  0.25840  1.0000
  H   H25       1.0  0.31930  0.31128  0.07295  1.0000
  H   H26       1.0  0.25115  0.26351  0.45816  1.0000
  H   H27       1.0  0.28712  0.12057  0.09732  1.0000
  C   C15       1.0  0.33329  0.24371  0.19848  1.0000
  C   C16       1.0  0.34933  0.22476  0.20293  1.0000
  C   C17       1.0  0.35600  0.21820  0.22526  1.0000
  C   C18       1.0  0.34732  0.23067  0.24350  1.0000
  C   C19       1.0  0.33202  0.24997  0.23905  1.0000
  C   C20       1.0  0.32477  0.25624  0.21676  1.0000
  H   H28       1.0  0.35602  0.21487  0.18917  1.0000
  H   H29       1.0  0.36781  0.20320  0.22839  1.0000
  H   H30       1.0  0.32547  0.25996  0.25275  1.0000
  H   H31       1.0  0.31245  0.27097  0.21360  1.0000
  C   C21       1.0  0.26432  0.18641  0.05998  1.0000
  C   C22       1.0  0.24091  0.19392  0.07101  1.0000
  C   C23       1.0  0.21392  0.18862  0.06302  1.0000
  C   C24       1.0  0.20959  0.17594  0.04370  1.0000
  C   C25       1.0  0.23302  0.16887  0.03233  1.0000
  C   C26       1.0  0.26002  0.17384  0.04056  1.0000
  H   H32       1.0  0.24356  0.20345  0.08600  1.0000
  H   H33       1.0  0.19617  0.19428  0.07205  1.0000
  H   H34       1.0  0.23037  0.15929  0.01737  1.0000
  H   H35       1.0  0.27781  0.16793  0.03174  1.0000
  C   C27       1.0  0.01525  0.13054  0.44537  1.0000
  C   C28       1.0  0.02837  0.12741  0.42478  1.0000
  C   C29       1.0  0.01190  0.12317  0.40592  1.0000
  H   H36       1.0  0.02161  0.12057  0.38998  1.0000
  H   H37       1.0  0.41494  0.22199  0.29386  1.0000
  H   H38       1.0  0.22363  0.26206  0.09427  1.0000
  C   C30       1.0  0.24480  0.25974  0.08777  1.0000
  H   H39       1.0  0.46282  0.20061  0.33698  1.0000
  H   H40       1.0  0.25251  0.24341  0.09430  1.0000
  Fe  Fe13      1.0  0.14160  0.10240  0.98879  1.0000
  C   C31       1.0  0.00871  0.13364  0.99545  1.0000
  C   C32       1.0  0.00164  0.15284  0.00681  1.0000
  C   C33       1.0  0.26023  0.26490  0.35482  1.0000
  C   C34       1.0  0.27202  0.25418  0.37631  1.0000
  H   H41       1.0  0.36055  0.22050  0.44794  1.0000
  H   H42       1.0  0.24376  0.21273  0.45337  1.0000
  C   C35       1.0  0.23677  0.22950  0.45824  1.0000
  Fe  Fe14      1.0  0.15109  0.10970  0.46578  1.0000
  C   C36       1.0  0.47657  0.27276  0.07223  1.0000
  H   H43       1.0  0.43447  0.26266  0.06393  1.0000
  C   C37       1.0  0.31518  0.17805  0.30395  1.0000
  C   C38       1.0  0.28278  0.18859  0.26225  1.0000
  H   H44       1.0  0.32263  0.19537  0.30648  1.0000
  H   H45       1.0  0.46041  0.24359  0.05507  1.0000
  H   H46       1.0  0.02769  0.13353  0.46017  1.0000
  H   H47       1.0  0.47416  0.26498  0.26162  1.0000
  N   N1        1.0  0.06736  0.05167  0.44645  1.0000
  C   C39       1.0  0.07471  0.06157  0.42373  1.0000
  C   C40       1.0  0.03636  0.04855  0.44738  1.0000
  C   C41       1.0  0.05279  0.03034  0.98173  1.0000
  C   C42       1.0  0.08070  0.02929  0.45051  1.0000
  C   C43       1.0  0.07310  0.01121  0.43330  1.0000
  C   C44       1.0  0.10585  0.06146  0.41767  1.0000
  H   H48       1.0  0.24915  0.23368  0.26598  1.0000
  C   C45       1.0  0.01929  0.07031  0.44701  1.0000
  H   H49       1.0  0.28525  0.23176  0.98841  1.0000
  H   H50       1.0  0.24205  0.25522  0.41925  1.0000
  C   C46       1.0  0.11083  0.07342  0.39512  1.0000
  H   H51       1.0  0.25590  0.25173  0.34251  1.0000
  H   H52       1.0  0.06806  0.07926  0.42233  1.0000
  H   H53       1.0  0.06306  0.05310  0.41015  1.0000
  C   C47       1.0  0.25524  0.23495  0.28377  1.0000
  H   H54       1.0  0.47145  0.15812  0.17983  1.0000
  H   H55       1.0  0.28057  0.22032  0.24337  1.0000
  H   H56       1.0  0.44047  0.17602  0.28638  1.0000
  H   H57       1.0  0.10360  0.03116  0.45154  1.0000
  C   C48       1.0  0.39454  0.29110  0.25272  1.0000
  H   H58       1.0  0.07558  0.01746  0.41580  1.0000
  H   H59       1.0  0.05128  0.00563  0.43553  1.0000
  H   H60       1.0  0.11858  0.07002  0.43044  1.0000
  H   H61       1.0  0.11348  0.04417  0.41635  1.0000
  H   H62       1.0  0.01784  0.16387  0.01276  1.0000
  H   H63       1.0  0.29519  0.28317  0.38745  1.0000
  H   H64       1.0  0.41421  0.25474  0.27654  1.0000
  H   H65       1.0  0.46010  0.17337  0.15507  1.0000
  H   H66       1.0  0.27788  0.24325  0.46082  1.0000
  H   H67       1.0  0.27712  0.15958  0.29811  1.0000
  C   C49       1.0  0.31165  0.24921  0.41495  1.0000
  H   H68       1.0  0.22922  0.17205  0.31640  1.0000
  H   H69       1.0  0.09949  0.06480  0.38152  1.0000
  H   H70       1.0  0.10392  0.09103  0.39555  1.0000
  H   H71       1.0  0.13328  0.07347  0.39135  1.0000
  C   C50       1.0  0.26213  0.24894  0.42612  1.0000
  H   H72       1.0  0.47437  0.26456  0.08905  1.0000
  H   H73       1.0  0.28574  0.26123  0.27660  1.0000
  C   C51       1.0  0.35163  0.23917  0.01861  1.0000
  H   H74       1.0  0.32357  0.23551  0.04611  1.0000
  H   H75       1.0  0.22965  0.24689  0.05686  1.0000
  C   C52       1.0  0.45124  0.23957  0.23029  1.0000
  H   H76       1.0  0.35136  0.23987  0.00002  1.0000
  H   H77       1.0  0.36362  0.22436  0.02439  1.0000
  C   C53       1.0  0.07768  0.06745  0.46405  1.0000
  H   H78       1.0  0.46148  0.25089  0.28582  1.0000
  C   C54       1.0  0.25840  0.24737  0.45188  1.0000
  H   H79       1.0  0.30551  0.19166  0.26271  1.0000
  H   H80       1.0  0.42356  0.30630  0.41729  1.0000
  C   C55       1.0  0.27154  0.30047  0.02473  1.0000
  H   H81       1.0  0.42032  0.23055  0.17782  1.0000
  H   H82       1.0  0.34810  0.16399  0.32476  1.0000
  C   C56       1.0  0.26701  0.25845  0.28694  1.0000
  H   H83       1.0  0.21664  0.23307  0.44978  1.0000
  C   C57       1.0  0.27841  0.27198  0.39411  1.0000
  H   H84       1.0  0.38819  0.29064  0.27055  1.0000
  C   C58       1.0  0.26332  0.23229  0.99357  1.0000
  C   C59       1.0  0.43754  0.31128  0.40345  1.0000
  H   H85       1.0  0.27248  0.26108  0.30475  1.0000
  H   H86       1.0  0.45124  0.20388  0.25609  1.0000
  H   H87       1.0  0.47094  0.29058  0.07334  1.0000
  H   H88       1.0  0.27201  0.30135  0.04323  1.0000
  H   H89       1.0  0.17575  0.02173  0.00423  1.0000
  H   H90       1.0  0.04396  0.04282  0.99294  1.0000
  H   H91       1.0  0.07236  0.02412  0.98944  1.0000
  H   H92       1.0  0.48229  0.22575  0.14360  1.0000
  H   H93       1.0  0.25272  0.24549  0.98345  1.0000
  H   H94       1.0  0.25138  0.27100  0.28163  1.0000
  H   H95       1.0  0.02359  0.08048  0.43164  1.0000
  C   C60       1.0  0.32514  0.16352  0.32381  1.0000
  H   H96       1.0  0.02892  0.03884  0.43283  1.0000
  H   H97       1.0  0.46756  0.22704  0.22757  1.0000
  H   H98       1.0  0.46082  0.25587  0.22510  1.0000
  C   C61       1.0  0.35186  0.30833  0.04900  1.0000
  H   H99       1.0  0.27534  0.27711  0.34746  1.0000
  H   H100      1.0  0.27439  0.17750  0.21659  1.0000
  H   H101      1.0  0.36722  0.24112  0.42604  1.0000
  H   H102      1.0  0.42709  0.27999  0.23197  1.0000
  H   H103      1.0  0.28750  0.26999  0.05962  1.0000
  H   H104      1.0  0.37546  0.30387  0.43029  1.0000
  H   H105      1.0  0.45924  0.31094  0.45515  1.0000
  H   H106      1.0  0.29745  0.27740  0.44914  1.0000
  H   H107      1.0  0.24973  0.20309  0.24046  1.0000
  H   H108      1.0  0.26102  0.19600  0.99634  1.0000
  N   N2        1.0  0.21325  0.10510  0.06390  1.0000
  C   C62       1.0  0.21145  0.10770  0.03869  1.0000
  C   C63       1.0  0.18775  0.11495  0.07391  1.0000
  C   C64       1.0  0.23786  0.11884  0.07166  1.0000
  C   C65       1.0  0.21698  0.08111  0.07181  1.0000
  C   C66       1.0  0.20311  0.06273  0.05739  1.0000
  C   C67       1.0  0.23842  0.10235  0.02608  1.0000
  C   C68       1.0  0.24189  0.12083  0.09734  1.0000
  C   C69       1.0  0.15982  0.10326  0.06867  1.0000
  C   C70       1.0  0.13558  0.11714  0.07642  1.0000
  C   C71       1.0  0.20440  0.03985  0.06927  1.0000
  C   C72       1.0  0.23305  0.09898  0.00116  1.0000
  C   C73       1.0  0.27009  0.13128  0.10293  1.0000
  H   H109      1.0  0.20574  0.12512  0.03375  1.0000
  H   H110      1.0  0.19440  0.09738  0.03168  1.0000
  H   H111      1.0  0.18910  0.11454  0.09247  1.0000
  H   H112      1.0  0.18620  0.13292  0.06871  1.0000
  H   H113      1.0  0.23661  0.13615  0.06458  1.0000
  H   H114      1.0  0.25744  0.11191  0.06532  1.0000
  H   H115      1.0  0.23936  0.07688  0.07275  1.0000
  H   H116      1.0  0.20947  0.07881  0.08929  1.0000
  H   H117      1.0  0.21388  0.06140  0.04119  1.0000
  H   H118      1.0  0.18114  0.06615  0.05346  1.0000
  H   H119      1.0  0.25343  0.11647  0.02751  1.0000
  H   H120      1.0  0.24835  0.08712  0.03323  1.0000
  H   H121      1.0  0.24046  0.10426  0.10602  1.0000
  H   H122      1.0  0.22606  0.13195  0.10420  1.0000
  H   H123      1.0  0.15694  0.10060  0.05058  1.0000
  H   H124      1.0  0.15863  0.08688  0.07778  1.0000
  H   H125      1.0  0.11577  0.10836  0.07260  1.0000
  H   H126      1.0  0.13690  0.11964  0.09476  1.0000
  H   H127      1.0  0.13545  0.13369  0.06753  1.0000
  H   H128      1.0  0.22621  0.03518  0.07285  1.0000
  H   H129      1.0  0.19274  0.03987  0.08519  1.0000
  H   H130      1.0  0.19490  0.02706  0.05836  1.0000
  H   H131      1.0  0.99587  0.21718  0.41023  1.0000
  H   H132      1.0  0.21760  0.08537  0.99863  1.0000
  H   H133      1.0  0.22547  0.11468  0.99311  1.0000
  H   H134      1.0  0.27216  0.13318  0.12132  1.0000
  H   H135      1.0  0.28098  0.24098  0.05960  1.0000
  C   C74       1.0  0.28357  0.19416  0.22001  1.0000
  H   H136      1.0  0.42257  0.18434  0.31095  1.0000
  H   H137      1.0  0.31828  0.14591  0.32191  1.0000
  C   C75       1.0  0.43178  0.21164  0.28747  1.0000
  H   H138      1.0  0.40401  0.18287  0.28468  1.0000
  H   H139      1.0  0.02828  0.00335  0.99548  1.0000
  H   H140      1.0  0.31292  0.22175  0.02105  1.0000
  H   H141      1.0  0.25259  0.09441  0.99295  1.0000
  C   C76       1.0  0.42425  0.18719  0.29257  1.0000
  C   C77       1.0  0.26088  0.27747  0.01678  1.0000
  H   H142      1.0  0.29112  0.24543  0.37178  1.0000
  H   H143      1.0  0.41826  0.21751  0.21718  1.0000
  S   S23       1.0  0.04382  0.12656  0.98994  1.0000
  H   H144      1.0  0.24058  0.27354  0.35818  1.0000
  H   H145      1.0  0.07477  0.02204  0.46713  1.0000
  C   C78       1.0  0.27258  0.20295  0.24194  1.0000
  C   C79       1.0  0.43570  0.21589  0.26194  1.0000
  H   H146      1.0  0.41585  0.21076  0.25382  1.0000
  N   N3        1.0  0.44343  0.23947  0.25470  1.0000
  H   H147      1.0  0.22782  0.20933  0.99259  1.0000
  H   H148      1.0  0.25960  0.28242  0.39475  1.0000
  C   C80       1.0  0.48146  0.21034  0.33979  1.0000
  N   N4        1.0  0.27021  0.19311  0.28470  1.0000
  C   C81       1.0  0.45553  0.26151  0.05677  1.0000
  C   C82       1.0  0.24403  0.26034  0.06220  1.0000
  H   H149      1.0  0.26809  0.22158  0.02847  1.0000
  H   H150      1.0  0.18735  0.20480  0.29512  1.0000
  H   H151      1.0  0.44748  0.27647  0.39741  1.0000
  H   H152      1.0  0.41070  0.24675  0.21412  1.0000
  C   C83       1.0  0.43780  0.23439  0.18942  1.0000
  C   C84       1.0  0.30514  0.25821  0.02081  1.0000
  C   C85       1.0  0.26071  0.23660  0.01896  1.0000
  C   C86       1.0  0.27333  0.25715  0.05245  1.0000
  N   N5        1.0  0.27502  0.25738  0.02723  1.0000
  H   H153      1.0  0.45536  0.26989  0.03996  1.0000
  C   C87       1.0  0.43930  0.29134  0.38813  1.0000
  C   C88       1.0  0.19327  0.18887  0.30372  1.0000
  H   H154      1.0  0.48196  0.18695  0.17514  1.0000
  H   H155      1.0  0.30644  0.19280  0.22071  1.0000
  C   C89       1.0  0.42173  0.27876  0.24995  1.0000
  C   C90       1.0  0.22465  0.18771  0.30672  1.0000
  C   C91       1.0  0.27626  0.21679  0.29152  1.0000
  H   H156      1.0  0.16848  0.01281  0.43446  1.0000
  H   H157      1.0  0.31587  0.27256  0.02881  1.0000
  H   H158      1.0  0.39998  0.24689  0.25065  1.0000
  H   H159      1.0  0.31260  0.29093  0.42574  1.0000
  H   H160      1.0  0.30740  0.26153  0.00251  1.0000
  C   C92       1.0  0.09137  0.99073  0.43645  1.0000
  S   S24       1.0  0.17101  0.13116  0.98095  1.0000
  H   H161      1.0  0.22852  0.19925  0.27212  1.0000
  C   C93       1.0  0.29304  0.28275  0.43159  1.0000
  H   H162      1.0  0.18329  0.18801  0.32040  1.0000
  C   C94       1.0  0.35218  0.22826  0.43223  1.0000
  H   H163      1.0  0.27529  0.18030  0.31883  1.0000
  C   C95       1.0  0.14693  0.04074  0.98380  1.0000
  H   H164      1.0  0.25670  0.24161  0.38252  1.0000
  H   H165      1.0  0.45090  0.21549  0.29708  1.0000
  C   C96       1.0  0.16132  0.04061  0.45589  1.0000
  H   H166      1.0  0.27809  0.20585  0.20593  1.0000
  C   C97       1.0  0.32418  0.23876  0.43671  1.0000
  C   C98       1.0  0.23962  0.18771  0.28381  1.0000
  H   H167      1.0  0.30742  0.23481  0.40413  1.0000
  H   H168      1.0  0.98668  0.19345  0.44299  1.0000
  H   H169      1.0  0.31033  0.22521  0.44320  1.0000
  H   H170      1.0  0.44641  0.25107  0.18451  1.0000
  H   H171      1.0  0.23158  0.20192  0.31699  1.0000
  H   H172      1.0  0.32812  0.25935  0.40639  1.0000
  H   H173      1.0  0.32768  0.25125  0.44978  1.0000
  S   S25       1.0  0.11700  0.16467  0.98482  1.0000
  H   H174      1.0  0.27731  0.21772  0.31009  1.0000
  H   H175      1.0  0.27981  0.17064  0.25827  1.0000
  H   H176      1.0  0.37788  0.28341  0.24241  1.0000
  S   S26       1.0  0.17750  0.14129  0.46983  1.0000
  C   C99       1.0  0.47947  0.23241  0.34666  1.0000
  C   C100      1.0  0.35834  0.30341  0.39684  1.0000
  H   H177      1.0  0.23610  0.17087  0.27675  1.0000
  H   H178      1.0  0.32507  0.17154  0.28883  1.0000
  N   N6        1.0  0.28601  0.26305  0.41727  1.0000
  H   H179      1.0  0.16722  0.05309  0.44335  1.0000
  H   H180      1.0  0.45389  0.22156  0.18743  1.0000
  H   H181      1.0  0.31701  0.16977  0.33974  1.0000
  C   C101      1.0  0.46246  0.21451  0.11340  1.0000
  C   C102      1.0  0.42740  0.23426  0.21350  1.0000
  H   H182      1.0  0.23811  0.27631  0.01927  1.0000
  H   H183      1.0  0.00391  0.16865  0.39703  1.0000
  H   H184      1.0  0.29277  0.30378  0.01842  1.0000
  H   H185      1.0  0.07073  0.08479  0.46010  1.0000
  C   C103      1.0  0.98719  0.11954  0.98789  1.0000
  H   H186      1.0  0.41835  0.28703  0.38157  1.0000
  C   C104      1.0  0.47772  0.17087  0.16697  1.0000
  C   C105      1.0  0.27104  0.30134  0.43190  1.0000
  S   S27       1.0  0.15837  0.06689  0.99466  1.0000
  C   C106      1.0  0.46764  0.24820  0.26817  1.0000
  H   H187      1.0  0.45284  0.29530  0.37360  1.0000
  C   C107      1.0  0.15991  0.02094  0.99133  1.0000
  H   H188      1.0  0.99229  0.10463  0.97909  1.0000
  H   H189      1.0  0.21342  0.04539  0.97943  1.0000
  H   H190      1.0  0.16322  0.98508  0.98806  1.0000
  C   C108      1.0  0.03217  0.01106  0.97873  1.0000
  C   C109      1.0  0.98827  0.06509  0.44722  1.0000
  H   H191      1.0  0.09131  0.98442  0.45412  1.0000
  H   H192      1.0  0.10063  0.06866  0.46384  1.0000
  H   H193      1.0  0.27217  0.31165  0.41615  1.0000
  C   C110      1.0  0.98737  0.20018  0.40756  1.0000
  C   C111      1.0  0.34303  0.31495  0.38035  1.0000
  C   C112      1.0  0.15524  0.00091  0.46705  1.0000
  H   H194      1.0  0.27358  0.30787  0.46759  1.0000
  H   H195      1.0  0.02411  0.08053  0.46178  1.0000
  H   H196      1.0  0.03034  0.03822  0.46235  1.0000
  C   C113      1.0  0.36395  0.31315  0.41758  1.0000
  H   H197      1.0  0.47705  0.30297  0.41886  1.0000
  C   C114      1.0  0.48541  0.22129  0.12641  1.0000
  C   C115      1.0  0.27615  0.31701  0.45132  1.0000
  S   S28       1.0  0.14228  0.15575  0.92167  1.0000
  C   C116      1.0  0.22308  0.28547  0.54284  1.0000
  C   C117      1.0  0.02286  0.30623  0.83179  1.0000
  H   H198      1.0  0.23594  0.15148  0.93237  1.0000
  S   S29       1.0  0.12434  0.18452  0.50176  1.0000
  Fe  Fe15      1.0  0.10356  0.29706  0.59351  1.0000
  S   S30       1.0  0.11984  0.27251  0.61949  1.0000
  H   H199      1.0  0.00808  0.21568  0.93911  1.0000
  S   S31       1.0  0.18173  0.29594  0.61180  1.0000
  Fe  Fe16      1.0  0.15586  0.26869  0.59600  1.0000
  S   S32       1.0  0.17686  0.23749  0.58360  1.0000
  Fe  Fe17      1.0  0.14406  0.30191  0.63305  1.0000
  H   H200      1.0  0.04726  0.28627  0.88368  1.0000
  S   S33       1.0  0.13805  0.29119  0.56942  1.0000
  Fe  Fe18      1.0  0.15417  0.29453  0.80695  1.0000
  S   S34       1.0  0.16461  0.28257  0.77158  1.0000
  Fe  Fe19      1.0  0.15189  0.27653  0.85658  1.0000
  H   H201      1.0  0.09968  0.24640  0.90900  1.0000
  S   S35       1.0  0.16413  0.25607  0.88788  1.0000
  H   H202      1.0  0.21512  0.30940  0.51505  1.0000
  S   S36       1.0  0.12495  0.27183  0.82633  1.0000
  S   S37       1.0  0.18375  0.29615  0.83677  1.0000
  C   C118      1.0  0.99063  0.28794  0.88859  1.0000
  H   H203      1.0  0.09921  0.07928  0.93107  1.0000
  C   C119      1.0  0.23093  0.22589  0.91830  1.0000
  N   N7        1.0  0.25430  0.28563  0.54586  1.0000
  H   H204      1.0  0.22355  0.25690  0.93425  1.0000
  H   H205      1.0  0.19497  0.07884  0.95818  1.0000
  H   H206      1.0  0.21855  0.11576  0.94945  1.0000
  H   H207      1.0  0.22489  0.07835  0.94164  1.0000
  C   C120      1.0  0.15846  0.29219  0.74323  1.0000
  C   C121      1.0  0.16425  0.27788  0.72557  1.0000
  C   C122      1.0  0.15915  0.28435  0.70293  1.0000
  H   H208      1.0  0.25453  0.25001  0.55264  1.0000
  H   H209      1.0  0.25585  0.06844  0.86952  1.0000
  C   C123      1.0  0.14044  0.19963  0.52362  1.0000
  C   C124      1.0  0.12467  0.21546  0.53459  1.0000
  C   C125      1.0  0.13583  0.22746  0.55257  1.0000
  C   C126      1.0  0.16288  0.22358  0.56006  1.0000
  C   C127      1.0  0.17882  0.20781  0.54904  1.0000
  C   C128      1.0  0.16773  0.19596  0.53080  1.0000
  H   H210      1.0  0.10357  0.21846  0.52917  1.0000
  H   H211      1.0  0.12328  0.23947  0.56088  1.0000
  H   H212      1.0  0.19977  0.20466  0.55473  1.0000
  H   H213      1.0  0.18013  0.18390  0.52245  1.0000
  H   H214      1.0  0.27409  0.26604  0.50589  1.0000
  H   H215      1.0  0.28427  0.31509  0.84341  1.0000
  H   H216      1.0  0.18257  0.03964  0.94615  1.0000
  Fe  Fe20      1.0  0.13722  0.14488  0.95829  1.0000
  C   C129      1.0  0.14631  0.18400  0.91260  1.0000
  C   C130      1.0  0.15115  0.20100  0.92775  1.0000
  C   C131      1.0  0.15584  0.22307  0.91985  1.0000
  C   C132      1.0  0.15535  0.22845  0.89679  1.0000
  C   C133      1.0  0.15007  0.21151  0.88163  1.0000
  C   C134      1.0  0.14563  0.18938  0.88953  1.0000
  H   H217      1.0  0.15188  0.19706  0.94553  1.0000
  H   H218      1.0  0.16038  0.23598  0.93169  1.0000
  H   H219      1.0  0.15022  0.21533  0.86383  1.0000
  H   H220      1.0  0.14207  0.17629  0.87768  1.0000
  C   C135      1.0  0.07932  0.26901  0.68258  1.0000
  C   C136      1.0  0.23969  0.24978  0.92371  1.0000
  H   H221      1.0  0.02549  0.22294  0.96475  1.0000
  H   H222      1.0  0.24039  0.07213  0.90834  1.0000
  H   H223      1.0  0.17278  0.26161  0.72943  1.0000
  C   C137      1.0  0.99505  0.30076  0.62163  1.0000
  H   H224      1.0  0.06190  0.20911  0.84223  1.0000
  N   N8        1.0  0.14115  0.12351  0.55637  1.0000
  C   C138      1.0  0.13938  0.13529  0.57829  1.0000
  C   C139      1.0  0.13469  0.09904  0.56038  1.0000
  C   C140      1.0  0.16991  0.12710  0.54723  1.0000
  C   C141      1.0  0.12061  0.13269  0.53941  1.0000
  C   C142      1.0  0.09004  0.13338  0.54709  1.0000
  C   C143      1.0  0.14233  0.16113  0.57674  1.0000
  C   C144      1.0  0.17726  0.11313  0.52672  1.0000
  C   C145      1.0  0.15561  0.08598  0.57548  1.0000
  C   C146      1.0  0.14848  0.06105  0.57628  1.0000
  C   C147      1.0  0.07158  0.14433  0.52910  1.0000
  C   C148      1.0  0.13881  0.17145  0.59961  1.0000
  C   C149      1.0  0.20707  0.11771  0.51946  1.0000
  H   H225      1.0  0.15600  0.12943  0.58998  1.0000
  H   H226      1.0  0.11973  0.13086  0.58698  1.0000
  H   H227      1.0  0.11422  0.09685  0.56853  1.0000
  H   H228      1.0  0.13246  0.09038  0.54416  1.0000
  H   H229      1.0  0.18585  0.12400  0.56051  1.0000
  H   H230      1.0  0.17302  0.14489  0.54187  1.0000
  H   H231      1.0  0.12690  0.14976  0.53363  1.0000
  H   H232      1.0  0.12067  0.12265  0.52406  1.0000
  H   H233      1.0  0.08787  0.14314  0.56244  1.0000
  H   H234      1.0  0.08184  0.11625  0.55040  1.0000
  H   H235      1.0  0.16319  0.16606  0.57069  1.0000
  H   H236      1.0  0.12666  0.16873  0.56528  1.0000
  H   H237      1.0  0.16344  0.11736  0.51236  1.0000
  H   H238      1.0  0.17535  0.09495  0.53040  1.0000
  H   H239      1.0  0.17707  0.08779  0.56929  1.0000
  H   H240      1.0  0.15513  0.09198  0.59287  1.0000
  H   H241      1.0  0.00945  0.23191  0.77342  1.0000
  H   H242      1.0  0.21269  0.22585  0.90688  1.0000
  H   H243      1.0  0.16348  0.05207  0.58738  1.0000
  H   H244      1.0  0.07262  0.13527  0.51320  1.0000
  H   H245      1.0  0.04977  0.14407  0.53475  1.0000
  H   H246      1.0  0.07804  0.16199  0.52598  1.0000
  H   H247      1.0  0.11779  0.16775  0.60619  1.0000
  H   H248      1.0  0.15462  0.16502  0.61170  1.0000
  H   H249      1.0  0.14147  0.18988  0.59792  1.0000
  H   H250      1.0  0.21151  0.10786  0.50445  1.0000
  H   H251      1.0  0.21025  0.13569  0.51508  1.0000
  H   H252      1.0  0.22181  0.11266  0.53301  1.0000
  N   N9        1.0  0.07561  0.27023  0.74806  1.0000
  C   C150      1.0  0.26846  0.29236  0.92526  1.0000
  C   C151      1.0  0.09585  0.25201  0.75417  1.0000
  C   C152      1.0  0.08115  0.27760  0.72407  1.0000
  C   C153      1.0  0.04611  0.26167  0.74970  1.0000
  C   C154      1.0  0.03154  0.26383  0.77262  1.0000
  H   H253      1.0  0.22527  0.21653  0.93391  1.0000
  C   C155      1.0  0.08034  0.25906  0.70643  1.0000
  C   C156      1.0  0.09382  0.24159  0.77806  1.0000
  C   C157      1.0  0.11850  0.22656  0.78337  1.0000
  C   C158      1.0  0.15657  0.07574  0.92606  1.0000
  H   H254      1.0  0.08140  0.23286  0.83110  1.0000
  C   C159      1.0  0.02862  0.21917  0.94686  1.0000
  C   C160      1.0  0.21149  0.29137  0.51906  1.0000
  H   H255      1.0  0.07626  0.28629  0.78042  1.0000
  H   H256      1.0  0.09328  0.23765  0.74295  1.0000
  H   H257      1.0  0.11742  0.25831  0.75165  1.0000
  H   H258      1.0  0.04282  0.00274  0.94536  1.0000
  H   H259      1.0  0.04741  0.05783  0.49037  1.0000
  H   H260      1.0  0.03255  0.27050  0.73721  1.0000
  H   H261      1.0  0.04502  0.24381  0.74503  1.0000
  H   H262      1.0  0.00576  0.29796  0.55777  1.0000
  H   H263      1.0  0.04462  0.25831  0.78698  1.0000
  C   C161      1.0  0.18031  0.28714  0.51760  1.0000
  S   S38       1.0  0.15473  0.07593  0.48523  1.0000
  H   H264      1.0  0.06206  0.24788  0.70869  1.0000
  H   H265      1.0  0.09942  0.24892  0.70782  1.0000
  H   H266      1.0  0.09345  0.25446  0.79088  1.0000
  H   H267      1.0  0.07478  0.23111  0.77948  1.0000
  H   H268      1.0  0.13811  0.23646  0.78293  1.0000
  H   H269      1.0  0.11637  0.21892  0.80040  1.0000
  H   H270      1.0  0.11965  0.21300  0.77113  1.0000
  C   C162      1.0  0.13496  0.08692  0.91000  1.0000
  C   C163      1.0  0.04848  0.23399  0.91021  1.0000
  H   H271      1.0  0.22075  0.07059  0.85926  1.0000
  H   H272      1.0  0.14185  0.99506  0.50092  1.0000
  H   H273      1.0  0.06264  0.24208  0.94393  1.0000
  C   C164      1.0  0.08136  0.29001  0.76265  1.0000
  C   C165      1.0  0.20298  0.07275  0.94206  1.0000
  H   H274      1.0  0.23063  0.09589  0.89072  1.0000
  S   S39       1.0  0.05959  0.29615  0.57826  1.0000
  C   C166      1.0  0.27999  0.23207  0.51665  1.0000
  C   C167      1.0  0.21557  0.14434  0.92732  1.0000
  H   H275      1.0  0.99941  0.30226  0.87868  1.0000
  H   H276      1.0  0.16378  0.27309  0.68968  1.0000
  H   H277      1.0  0.06383  0.22032  0.91077  1.0000
  C   C168      1.0  0.26079  0.29171  0.56974  1.0000
  H   H278      1.0  0.26307  0.30017  0.51287  1.0000
  C   C169      1.0  0.99758  0.23467  0.56607  1.0000
  C   C170      1.0  0.26737  0.30337  0.53075  1.0000
  H   H279      1.0  0.25115  0.20754  0.96937  1.0000
  C   C171      1.0  0.14748  0.31321  0.73781  1.0000
  H   H280      1.0  0.09744  0.28023  0.67955  1.0000
  H   H281      1.0  0.24810  0.21713  0.91019  1.0000
  H   H282      1.0  0.28347  0.29148  0.57309  1.0000
  H   H283      1.0  0.07283  0.31452  0.65004  1.0000
  H   H284      1.0  0.99441  0.17977  0.91746  1.0000
  C   C172      1.0  0.14715  0.00761  0.48826  1.0000
  H   H285      1.0  0.09886  0.26810  0.88827  1.0000
  H   H286      1.0  0.06550  0.99106  0.96559  1.0000
  H   H287      1.0  0.19020  0.05648  0.89905  1.0000
  C   C173      1.0  0.00893  0.26743  0.88698  1.0000
  N   N10       1.0  0.05866  0.25323  0.89552  1.0000
  H   H288      1.0  0.21409  0.26901  0.54834  1.0000
  C   C174      1.0  0.26456  0.25410  0.51811  1.0000
  H   H289      1.0  0.21236  0.03988  0.92836  1.0000
  H   H290      1.0  0.30226  0.23446  0.52088  1.0000
  H   H291      1.0  0.08323  0.29573  0.91254  1.0000
  C   C175      1.0  0.04278  0.23907  0.93495  1.0000
  C   C176      1.0  0.26587  0.26276  0.54225  1.0000
  H   H292      1.0  0.09104  0.08523  0.90211  1.0000
  H   H293      1.0  0.23095  0.04692  0.87686  1.0000
  C   C177      1.0  0.22643  0.07797  0.89462  1.0000
  H   H294      1.0  0.12735  0.05809  0.58296  1.0000
  H   H295      1.0  0.17210  0.11442  0.93488  1.0000
  H   H296      1.0  0.28773  0.28236  0.92479  1.0000
  C   C178      1.0  0.23383  0.06517  0.87378  1.0000
  Fe  Fe21      1.0  0.10281  0.30324  0.83495  1.0000
  H   H297      1.0  0.27088  0.21923  0.52827  1.0000
  H   H298      1.0  0.02632  0.25657  0.54765  1.0000
  H   H299      1.0  0.24275  0.25068  0.51324  1.0000
  H   H300      1.0  0.22067  0.02031  0.96482  1.0000
  S   S40       1.0  0.11203  0.12685  0.47560  1.0000
  C   C179      1.0  0.02599  0.29695  0.59011  1.0000
  H   H301      1.0  0.16941  0.29862  0.52867  1.0000
  C   C180      1.0  0.04314  0.99399  0.96199  1.0000
  H   H302      1.0  0.22135  0.28168  0.50594  1.0000
  H   H303      1.0  0.28770  0.26192  0.54832  1.0000
  H   H304      1.0  0.29504  0.28622  0.84402  1.0000
  H   H305      1.0  0.21346  0.29782  0.55393  1.0000
  C   C181      1.0  0.07756  0.07986  0.50442  1.0000
  H   H306      1.0  0.13376  0.10511  0.91283  1.0000
  H   H307      1.0  0.17288  0.29038  0.50017  1.0000
  H   H308      1.0  0.10585  0.05872  0.91029  1.0000
  H   H309      1.0  0.27631  0.28603  0.61492  1.0000
  H   H310      1.0  0.10428  0.01773  0.94451  1.0000
  N   N11       1.0  0.25144  0.28860  0.90428  1.0000
  C   C182      1.0  0.00477  0.25000  0.77346  1.0000
  C   C183      1.0  0.24446  0.26402  0.90193  1.0000
  C   C184      1.0  0.26909  0.29576  0.88455  1.0000
  C   C185      1.0  0.20563  0.29934  0.92344  1.0000
  H   H311      1.0  0.02946  0.22634  0.90287  1.0000
  H   H312      1.0  0.16841  0.31405  0.93631  1.0000
  C   C186      1.0  0.25615  0.29203  0.86100  1.0000
  H   H313      1.0  0.06365  0.25927  0.85993  1.0000
  H   H314      1.0  0.23832  0.30323  0.85812  1.0000
  H   H315      1.0  0.14006  0.08456  0.89222  1.0000
  H   H316      1.0  0.03944  0.29657  0.62449  1.0000
  H   H317      1.0  0.99944  0.25395  0.89751  1.0000
  H   H318      1.0  0.24322  0.04437  0.96139  1.0000
  H   H319      1.0  0.22579  0.26195  0.89100  1.0000
  H   H320      1.0  0.00849  0.26242  0.86925  1.0000
  H   H321      1.0  0.28937  0.28708  0.88543  1.0000
  H   H322      1.0  0.17140  0.31625  0.90625  1.0000
  C   C187      1.0  0.06050  0.24495  0.87191  1.0000
  H   H323      1.0  0.04074  0.23675  0.86675  1.0000
  C   C188      1.0  0.11839  0.28197  0.92989  1.0000
  H   H324      1.0  0.26141  0.25541  0.89321  1.0000
  H   H325      1.0  0.31028  0.29088  0.53280  1.0000
  H   H326      1.0  0.04166  0.20407  0.94613  1.0000
  C   C189      1.0  0.12642  0.03927  0.96716  1.0000
  H   H327      1.0  0.24894  0.27456  0.85896  1.0000
  H   H328      1.0  0.02189  0.22902  0.53619  1.0000
  C   C190      1.0  0.14680  0.03055  0.49336  1.0000
  C   C191      1.0  0.08726  0.26092  0.90284  1.0000
  H   H329      1.0  0.00084  0.24410  0.58169  1.0000
  H   H330      1.0  0.03723  0.28016  0.91154  1.0000
  H   H331      1.0  0.25736  0.28621  0.94039  1.0000
  H   H332      1.0  0.19509  0.28284  0.92270  1.0000
  H   H333      1.0  0.23347  0.22916  0.47660  1.0000
  H   H334      1.0  0.06623  0.09531  0.49962  1.0000
  Fe  Fe22      1.0  0.13741  0.15857  0.47671  1.0000
  H   H335      1.0  0.06001  0.27855  0.67966  1.0000
  H   H336      1.0  0.07507  0.27621  0.93478  1.0000
  C   C192      1.0  0.18789  0.10811  0.92325  1.0000
  H   H337      1.0  0.00857  0.13735  0.94507  1.0000
  H   H338      1.0  0.03050  0.15281  0.92593  1.0000
  H   H339      1.0  0.23367  0.11239  0.92260  1.0000
  H   H340      1.0  0.25414  0.30911  0.57263  1.0000
  H   H341      1.0  0.10393  0.29391  0.76314  1.0000
  H   H342      1.0  0.25650  0.25935  0.58802  1.0000
  H   H343      1.0  0.15400  0.05742  0.92412  1.0000
  H   H344      1.0  0.18391  0.08298  0.88659  1.0000
  H   H345      1.0  0.02917  0.25365  0.93655  1.0000
  H   H346      1.0  0.21291  0.29876  0.88835  1.0000
  H   H347      1.0  0.11910  0.29559  0.94212  1.0000
  H   H348      1.0  0.99609  0.21668  0.57061  1.0000
  C   C193      1.0  0.21555  0.11901  0.93119  1.0000
  H   H349      1.0  0.21173  0.14875  0.90938  1.0000
  C   C194      1.0  0.08403  0.22831  0.86740  1.0000
  C   C195      1.0  0.08134  0.21904  0.84390  1.0000
  N   N12       1.0  0.18644  0.08286  0.92279  1.0000
  C   C196      1.0  0.24773  0.27635  0.58825  1.0000
  H   H350      1.0  0.08398  0.21395  0.87949  1.0000
  C   C197      1.0  0.02188  0.29777  0.61319  1.0000
  C   C198      1.0  0.02342  0.23851  0.55187  1.0000
  H   H351      1.0  0.00243  0.27473  0.82577  1.0000
  S   S41       1.0  0.11011  0.11455  0.96378  1.0000
  H   H352      1.0  0.26697  0.29516  0.82591  1.0000
  H   H353      1.0  0.31305  0.30918  0.95093  1.0000
  C   C199      1.0  0.10606  0.07686  0.91366  1.0000
  H   H354      1.0  0.05741  0.03876  0.96536  1.0000
  H   H355      1.0  0.09910  0.20801  0.84077  1.0000
  H   H356      1.0  0.10444  0.23689  0.86844  1.0000
  H   H357      1.0  0.14124  0.03535  0.51002  1.0000
  C   C200      1.0  0.11979  0.01849  0.95767  1.0000
  H   H358      1.0  0.10180  0.28593  0.72283  1.0000
  C   C201      1.0  0.19555  0.07453  0.90047  1.0000
  H   H359      1.0  0.14968  0.05406  0.55928  1.0000
  H   H360      1.0  0.18225  0.11553  0.90652  1.0000
  H   H361      1.0  0.22499  0.27484  0.58608  1.0000
  H   H362      1.0  0.15008  0.07915  0.94348  1.0000
  C   C202      1.0  0.25368  0.28548  0.61147  1.0000
  C   C203      1.0  0.08903  0.27944  0.92051  1.0000
  C   C204      1.0  0.13291  0.99870  0.96506  1.0000
  H   H363      1.0  0.06592  0.29035  0.71831  1.0000
  C   C205      1.0  0.99952  0.29221  0.82892  1.0000
  H   H364      1.0  0.10016  0.08336  0.50402  1.0000
  C   C206      1.0  0.06989  0.06112  0.48859  1.0000
  H   H365      1.0  0.07195  0.07483  0.52182  1.0000
  H   H366      1.0  0.08124  0.04602  0.49442  1.0000
  C   C207      1.0  0.00279  0.29826  0.57568  1.0000
  H   H367      1.0  0.47117  0.30231  0.93534  1.0000
  S   S42       1.0  0.05650  0.29449  0.82989  1.0000
  H   H368      1.0  0.02047  0.16509  0.95178  1.0000
  C   C208      1.0  0.29912  0.30689  0.53330  1.0000
  H   H369      1.0  0.02616  0.28150  0.77531  1.0000
  C   C209      1.0  0.03894  0.27262  0.89491  1.0000
  H   H370      1.0  0.27839  0.22578  0.49939  1.0000
  H   H371      1.0  0.25913  0.24865  0.93376  1.0000
  H   H372      1.0  0.04199  0.23279  0.56143  1.0000
  C   C210      1.0  0.20355  0.04686  0.94369  1.0000
  C   C211      1.0  0.22558  0.30243  0.90351  1.0000
  H   H373      1.0  0.24370  0.27449  0.62439  1.0000
  H   H374      1.0  0.24524  0.30255  0.61280  1.0000
  S   S43       1.0  0.12817  0.30646  0.86660  1.0000
  H   H375      1.0  0.12502  0.26626  0.93854  1.0000
  H   H376      1.0  0.17503  0.26957  0.52252  1.0000
  H   H377      1.0  0.99123  0.25422  0.75886  1.0000
  H   H378      1.0  0.13303  0.28626  0.91621  1.0000
  H   H379      1.0  0.21639  0.30085  0.93979  1.0000
  H   H380      1.0  0.19940  0.15202  0.93755  1.0000
  H   H381      1.0  0.01247  0.01830  0.97233  1.0000
  C   C212      1.0  0.15400  0.04726  0.47729  1.0000
  H   H382      1.0  0.11579  0.05415  0.96147  1.0000
  C   C213      1.0  0.01334  0.15429  0.93799  1.0000
  C   C214      1.0  0.22137  0.03885  0.96355  1.0000
  H   H383      1.0  0.07990  0.25542  0.67033  1.0000
  C   C215      1.0  0.98784  0.16396  0.92607  1.0000
  H   H384      1.0  0.28106  0.31182  0.96608  1.0000
  H   H385      1.0  0.99223  0.30203  0.63948  1.0000
  C   C216      1.0  0.14834  0.30541  0.69749  1.0000
  C   C217      1.0  0.27699  0.29747  0.84253  1.0000
  H   H386      1.0  0.98860  0.29281  0.90628  1.0000
  H   H387      1.0  0.30842  0.31414  0.49811  1.0000
  H   H388      1.0  0.99347  0.25346  0.78905  1.0000
  H   H389      1.0  0.46532  0.30322  0.96523  1.0000
  H   H390      1.0  0.02671  0.99500  0.48522  1.0000
  H   H391      1.0  0.99727  0.98698  0.93828  1.0000
  H   H392      1.0  0.30409  0.31505  0.54935  1.0000
  S   S44       1.0  0.14098  0.31458  0.66922  1.0000
  H   H393      1.0  0.04466  0.30858  0.75051  1.0000
  H   H394      1.0  0.27409  0.31385  0.88492  1.0000
  C   C218      1.0  0.06654  0.31189  0.75528  1.0000
  C   C219      1.0  0.46735  0.31343  0.94951  1.0000
  H   H395      1.0  0.98757  0.98682  0.96670  1.0000
  C   C220      1.0  0.27709  0.31691  0.92982  1.0000
  C   C221      1.0  0.18308  0.31699  0.92236  1.0000
  H   H396      1.0  0.47113  0.57086  0.46304  1.0000
  S   S45       1.0  0.36306  0.34575  0.44862  1.0000
  H   H397      1.0  0.44235  0.57877  0.06187  1.0000
  N   N13       1.0  0.45142  0.62564  0.06506  1.0000
  S   S46       1.0  0.34845  0.60934  0.43348  1.0000
  C   C222      1.0  0.32837  0.31816  0.05776  1.0000
  Fe  Fe23      1.0  0.38611  0.62792  0.44655  1.0000
  C   C223      1.0  0.47321  0.62207  0.99532  1.0000
  C   C224      1.0  0.42201  0.46567  0.00503  1.0000
  C   C225      1.0  0.39721  0.55746  0.43808  1.0000
  C   C226      1.0  0.42088  0.48044  0.45255  1.0000
  H   H398      1.0  0.40795  0.45459  0.03795  1.0000
  H   H399      1.0  0.36660  0.51658  0.01072  1.0000
  C   C227      1.0  0.35024  0.49597  0.98440  1.0000
  H   H400      1.0  0.39400  0.38577  0.41141  1.0000
  C   C228      1.0  0.48515  0.61767  0.42999  1.0000
  S   S47       1.0  0.31270  0.63289  0.47286  1.0000
  H   H401      1.0  0.43437  0.60901  0.13300  1.0000
  H   H402      1.0  0.41571  0.48307  0.00804  1.0000
  S   S48       1.0  0.36663  0.62196  0.02013  1.0000
  H   H403      1.0  0.28853  0.44005  0.46272  1.0000
  H   H404      1.0  0.24376  0.63924  0.41480  1.0000
  S   S49       1.0  0.31336  0.37028  0.01397  1.0000
  H   H405      1.0  0.48482  0.39676  0.98640  1.0000
  H   H406      1.0  0.43558  0.54725  0.42299  1.0000
  H   H407      1.0  0.39065  0.57058  0.44961  1.0000
  H   H408      1.0  0.23201  0.31760  0.02285  1.0000
  H   H409      1.0  0.41962  0.38044  0.39063  1.0000
  C   C229      1.0  0.44156  0.58799  0.04554  1.0000
  C   C230      1.0  0.45609  0.34277  0.47091  1.0000
  C   C231      1.0  0.44369  0.51867  0.45514  1.0000
  S   S50       1.0  0.35782  0.56260  0.99780  1.0000
  H   H410      1.0  0.45549  0.61098  0.99391  1.0000
  C   C232      1.0  0.45693  0.35813  0.41991  1.0000
  C   C233      1.0  0.40432  0.45041  0.02016  1.0000
  H   H411      1.0  0.43732  0.57277  0.43685  1.0000
  C   C234      1.0  0.44949  0.61561  0.08845  1.0000
  H   H412      1.0  0.46184  0.35984  0.40177  1.0000
  N   N14       1.0  0.44197  0.54347  0.45876  1.0000
  H   H413      1.0  0.29901  0.34497  0.05403  1.0000
  H   H414      1.0  0.41111  0.62911  0.10131  1.0000
  H   H415      1.0  0.39796  0.64538  0.07024  1.0000
  H   H416      1.0  0.25183  0.31946  0.99729  1.0000
  C   C235      1.0  0.32870  0.34657  0.02735  1.0000
  Fe  Fe24      1.0  0.32399  0.64122  0.43700  1.0000
  C   C236      1.0  0.33309  0.53213  0.45544  1.0000
  H   H417      1.0  0.46769  0.37254  0.42779  1.0000
  H   H418      1.0  0.33090  0.50461  0.43280  1.0000
  C   C237      1.0  0.24360  0.64378  0.25674  1.0000
  C   C238      1.0  0.42552  0.36251  0.42256  1.0000
  C   C239      1.0  0.46232  0.62798  0.43966  1.0000
  C   C240      1.0  0.31698  0.33729  0.04703  1.0000
  C   C241      1.0  0.42014  0.61259  0.09825  1.0000
  C   C242      1.0  0.33978  0.34646  0.40555  1.0000
  C   C243      1.0  0.35489  0.33474  0.42205  1.0000
  H   H419      1.0  0.33263  0.36309  0.40876  1.0000
  H   H420      1.0  0.48320  0.63043  0.04019  1.0000
  C   C244      1.0  0.35204  0.33660  0.01857  1.0000
  H   H421      1.0  0.36138  0.34358  0.00354  1.0000
  H   H422      1.0  0.13753  0.63639  0.32617  1.0000
  H   H423      1.0  0.28177  0.46943  0.46598  1.0000
  C   C245      1.0  0.47119  0.55232  0.46189  1.0000
  H   H424      1.0  0.41189  0.61322  0.05262  1.0000
  H   H425      1.0  0.41878  0.58473  0.01395  1.0000
  H   H426      1.0  0.45994  0.59916  0.08945  1.0000
  S   S51       1.0  0.38808  0.40926  0.46265  1.0000
  H   H427      1.0  0.42807  0.39809  0.41403  1.0000
  H   H428      1.0  0.48353  0.55227  0.42641  1.0000
  H   H429      1.0  0.42616  0.55869  0.02846  1.0000
  C   C246      1.0  0.48128  0.62455  0.05792  1.0000
  S   S52       1.0  0.31532  0.62226  0.98392  1.0000
  C   C247      1.0  0.35668  0.51657  0.99440  1.0000
  H   H430      1.0  0.43612  0.47620  0.43961  1.0000
  C   C248      1.0  0.38667  0.56382  0.41458  1.0000
  Fe  Fe25      1.0  0.39229  0.64125  0.99472  1.0000
  H   H431      1.0  0.45476  0.36070  0.46624  1.0000
  C   C249      1.0  0.46727  0.64522  0.45456  1.0000
  H   H432      1.0  0.38198  0.45260  0.01626  1.0000
  H   H433      1.0  0.42942  0.58288  0.11883  1.0000
  H   H434      1.0  0.40621  0.60298  0.08714  1.0000
  H   H435      1.0  0.21184  0.64073  0.29365  1.0000
  H   H436      1.0  0.32735  0.54451  0.44276  1.0000
  H   H437      1.0  0.41256  0.34824  0.41735  1.0000
  H   H438      1.0  0.45506  0.51540  0.43953  1.0000
  C   C250      1.0  0.43413  0.61282  0.04845  1.0000
  C   C251      1.0  0.34170  0.49275  0.46611  1.0000
  H   H439      1.0  0.36378  0.56510  0.41471  1.0000
  C   C252      1.0  0.42118  0.59993  0.12082  1.0000
  H   H440      1.0  0.45316  0.50224  0.99744  1.0000
  H   H441      1.0  0.23837  0.64010  0.32392  1.0000
  H   H442      1.0  0.47807  0.32367  0.39690  1.0000
  S   S53       1.0  0.42823  0.61909  0.43198  1.0000
  H   H443      1.0  0.42826  0.47431  0.46924  1.0000
  H   H444      1.0  0.32185  0.34562  0.37224  1.0000
  Fe  Fe26      1.0  0.35290  0.60064  0.99105  1.0000
  C   C253      1.0  0.25314  0.31936  0.01584  1.0000
  S   S54       1.0  0.36295  0.41621  0.98402  1.0000
  H   H445      1.0  0.35488  0.48045  0.99319  1.0000
  H   H446      1.0  0.48161  0.60445  0.41830  1.0000
  H   H447      1.0  0.42993  0.32626  0.44662  1.0000
  H   H448      1.0  0.29736  0.32441  0.45045  1.0000
  C   C254      1.0  0.36356  0.31765  0.02938  1.0000
  H   H449      1.0  0.40157  0.50874  0.46639  1.0000
  H   H450      1.0  0.25513  0.45116  0.45537  1.0000
  H   H451      1.0  0.40601  0.51018  0.43634  1.0000
  H   H452      1.0  0.26103  0.33081  0.45037  1.0000
  H   H453      1.0  0.43548  0.62114  0.03163  1.0000
  C   C255      1.0  0.44310  0.53418  0.98276  1.0000
  C   C256      1.0  0.41602  0.50561  0.45261  1.0000
  C   C257      1.0  0.34977  0.53713  0.98382  1.0000
  C   C258      1.0  0.33372  0.33652  0.38486  1.0000
  H   H454      1.0  0.39559  0.58020  0.40898  1.0000
  H   H455      1.0  0.39220  0.55090  0.40250  1.0000
  Fe  Fe27      1.0  0.33224  0.38764  0.98317  1.0000
  H   H456      1.0  0.42065  0.36565  0.44028  1.0000
  Fe  Fe28      1.0  0.35939  0.37923  0.46587  1.0000
  H   H457      1.0  0.45572  0.51063  0.46912  1.0000
  C   C259      1.0  0.33501  0.50939  0.44985  1.0000
  H   H458      1.0  0.46181  0.58671  0.03717  1.0000
  H   H459      1.0  0.38660  0.54184  0.44333  1.0000
  H   H460      1.0  0.39996  0.59832  0.12770  1.0000
  C   C260      1.0  0.42017  0.57629  0.03072  1.0000
  H   H461      1.0  0.24390  0.62684  0.26479  1.0000
  H   H462      1.0  0.26203  0.33566  0.02095  1.0000
  H   H463      1.0  0.39940  0.57628  0.03853  1.0000
  C   C261      1.0  0.41641  0.38300  0.40875  1.0000
  H   H464      1.0  0.40115  0.47161  0.44870  1.0000
  H   H465      1.0  0.19678  0.64984  0.40109  1.0000
  H   H466      1.0  0.42826  0.32511  0.39332  1.0000
  H   H467      1.0  0.46044  0.40106  0.46873  1.0000
  S   S55       1.0  0.34270  0.46409  0.45807  1.0000
  Fe  Fe29      1.0  0.33976  0.60211  0.46995  1.0000
  H   H468      1.0  0.40980  0.43263  0.01804  1.0000
  H   H469      1.0  0.46107  0.62618  0.10047  1.0000
  C   C262      1.0  0.42918  0.55536  0.43862  1.0000
  C   C263      1.0  0.27274  0.45231  0.46740  1.0000
  C   C264      1.0  0.45244  0.32807  0.45007  1.0000
  H   H470      1.0  0.24557  0.62758  0.46609  1.0000
  H   H471      1.0  0.44381  0.46337  0.01038  1.0000
  H   H472      1.0  0.27273  0.64248  0.35586  1.0000
  C   C265      1.0  0.45248  0.51007  0.98048  1.0000
  H   H473      1.0  0.42201  0.53460  0.99000  1.0000
  H   H474      1.0  0.39546  0.46450  0.97650  1.0000
  H   H475      1.0  0.45755  0.54321  0.99402  1.0000
  H   H476      1.0  0.19523  0.64322  0.13313  1.0000
  N   N15       1.0  0.46779  0.33623  0.42946  1.0000
  Fe  Fe30      1.0  0.33073  0.64474  0.01133  1.0000
  C   C266      1.0  0.46920  0.64508  0.99682  1.0000
  H   H477      1.0  0.25011  0.64960  0.02568  1.0000
  H   H478      1.0  0.41886  0.44194  0.97827  1.0000
  C   C267      1.0  0.41742  0.46036  0.98004  1.0000
  H   H479      1.0  0.47355  0.47053  0.98421  1.0000
  C   C268      1.0  0.44320  0.65000  0.06450  1.0000
  C   C269      1.0  0.46657  0.31829  0.41217  1.0000
  H   H480      1.0  0.26344  0.64660  0.24784  1.0000
  H   H481      1.0  0.25119  0.63781  0.97643  1.0000
  H   H482      1.0  0.22642  0.64464  0.24424  1.0000
  H   H483      1.0  0.18674  0.64880  0.32582  1.0000
  H   H484      1.0  0.22579  0.44246  0.97840  1.0000
  S   S56       1.0  0.33267  0.56685  0.48612  1.0000
  S   S57       1.0  0.18530  0.34160  0.55930  1.0000
  H   H485      1.0  0.48532  0.34170  0.96548  1.0000
  S   S58       1.0  0.37095  0.37249  0.50204  1.0000
  C   C270      1.0  0.47459  0.40254  0.50289  1.0000
  S   S59       1.0  0.36282  0.42474  0.51108  1.0000
  C   C271      1.0  0.39769  0.46932  0.93306  1.0000
  Fe  Fe31      1.0  0.39766  0.40337  0.49912  1.0000
  S   S60       1.0  0.44123  0.40574  0.51488  1.0000
  Fe  Fe32      1.0  0.33493  0.39395  0.51045  1.0000
  S   S61       1.0  0.30688  0.38304  0.54016  1.0000
  H   H486      1.0  0.20228  0.42668  0.55589  1.0000
  H   H487      1.0  0.33281  0.32575  0.51770  1.0000
  H   H488      1.0  0.27666  0.51985  0.54510  1.0000
  H   H489      1.0  0.43660  0.50518  0.94736  1.0000
  H   H490      1.0  0.98645  0.34568  0.56370  1.0000
  H   H491      1.0  0.22283  0.40175  0.55910  1.0000
  S   S62       1.0  0.18129  0.35421  0.86696  1.0000
  H   H492      1.0  0.23509  0.34745  0.58789  1.0000
  Fe  Fe33      1.0  0.32825  0.38829  0.93223  1.0000
  H   H493      1.0  0.27040  0.49229  0.50266  1.0000
  S   S63       1.0  0.30638  0.37251  0.90166  1.0000
  Fe  Fe34      1.0  0.38484  0.39829  0.95671  1.0000
  H   H494      1.0  0.05736  0.34467  0.76762  1.0000
  C   C272      1.0  0.32430  0.43169  0.87589  1.0000
  H   H495      1.0  0.43135  0.44628  0.93900  1.0000
  S   S64       1.0  0.35484  0.36884  0.95727  1.0000
  S   S65       1.0  0.36076  0.41588  0.92908  1.0000
  C   C273      1.0  0.46535  0.40131  0.95398  1.0000
  H   H496      1.0  0.24646  0.45969  0.49481  1.0000
  H   H497      1.0  0.22921  0.49548  0.89147  1.0000
  H   H498      1.0  0.45285  0.40713  0.91968  1.0000
  C   C274      1.0  0.24223  0.49381  0.90688  1.0000
  H   H499      1.0  0.32092  0.48098  0.55040  1.0000
  C   C275      1.0  0.21566  0.42526  0.89179  1.0000
  C   C276      1.0  0.42800  0.46460  0.94038  1.0000
  C   C277      1.0  0.23820  0.44981  0.94414  1.0000
  H   H500      1.0  0.44749  0.32217  0.94628  1.0000
  H   H501      1.0  0.24325  0.46741  0.94794  1.0000
  C   C278      1.0  0.02146  0.35805  0.59950  1.0000
  C   C279      1.0  0.21623  0.35822  0.87683  1.0000
  C   C280      1.0  0.23922  0.35257  0.86420  1.0000
  C   C281      1.0  0.26639  0.35735  0.87198  1.0000
  C   C282      1.0  0.27128  0.36739  0.89274  1.0000
  C   C283      1.0  0.24832  0.37282  0.90553  1.0000
  C   C284      1.0  0.22110  0.36852  0.89749  1.0000
  C   C285      1.0  0.01865  0.32880  0.83587  1.0000
  H   H502      1.0  0.24220  0.44968  0.56930  1.0000
  H   H503      1.0  0.25151  0.38044  0.92157  1.0000
  H   H504      1.0  0.20361  0.37317  0.90741  1.0000
  C   C286      1.0  0.29340  0.31852  0.95180  1.0000
  C   C287      1.0  0.46559  0.46458  0.96795  1.0000
  H   H505      1.0  0.24575  0.51789  0.52771  1.0000
  H   H506      1.0  0.28145  0.47873  0.91637  1.0000
  H   H507      1.0  0.06521  0.33551  0.61360  1.0000
  C   C288      1.0  0.43313  0.49724  0.96421  1.0000
  H   H508      1.0  0.27095  0.42146  0.88865  1.0000
  C   C289      1.0  0.34463  0.52210  0.49373  1.0000
  H   H509      1.0  0.35282  0.48707  0.50066  1.0000
  H   H510      1.0  0.34812  0.52683  0.51088  1.0000
  C   C290      1.0  0.06293  0.35142  0.62252  1.0000
  H   H511      1.0  0.43734  0.34834  0.50305  1.0000
  H   H512      1.0  0.08667  0.33847  0.66428  1.0000
  H   H513      1.0  0.41310  0.34054  0.48146  1.0000
  C   C291      1.0  0.21973  0.35195  0.55417  1.0000
  C   C292      1.0  0.22663  0.35997  0.53248  1.0000
  C   C293      1.0  0.25326  0.36893  0.52767  1.0000
  C   C294      1.0  0.27340  0.37043  0.54464  1.0000
  C   C295      1.0  0.26647  0.36246  0.56633  1.0000
  C   C296      1.0  0.23999  0.35321  0.57105  1.0000
  H   H514      1.0  0.21118  0.35931  0.51926  1.0000
  H   H515      1.0  0.25802  0.37505  0.51093  1.0000
  H   H516      1.0  0.28168  0.36363  0.57969  1.0000
  C   C297      1.0  0.26262  0.44739  0.49115  1.0000
  C   C298      1.0  0.47014  0.40627  0.93131  1.0000
  H   H517      1.0  0.47031  0.47825  0.49243  1.0000
  H   H518      1.0  0.02550  0.34201  0.59137  1.0000
  H   H519      1.0  0.05571  0.32259  0.78862  1.0000
  H   H520      1.0  0.27941  0.44428  0.93347  1.0000
  H   H521      1.0  0.25268  0.43054  0.49145  1.0000
  C   C299      1.0  0.25503  0.51673  0.91144  1.0000
  N   N16       1.0  0.04818  0.36839  0.60770  1.0000
  H   H522      1.0  0.08660  0.37976  0.54470  1.0000
  C   C300      1.0  0.25834  0.44133  0.92644  1.0000
  H   H523      1.0  0.99556  0.38727  0.59197  1.0000
  H   H524      1.0  0.23605  0.34509  0.84808  1.0000
  H   H525      1.0  0.27717  0.53006  0.51648  1.0000
  C   C301      1.0  0.31050  0.32219  0.51455  1.0000
  S   S66       1.0  0.37773  0.62045  0.48278  1.0000
  H   H526      1.0  0.00164  0.31890  0.77174  1.0000
  H   H527      1.0  0.05632  0.32416  0.67484  1.0000
  H   H528      1.0  0.17834  0.40751  0.88176  1.0000
  H   H529      1.0  0.31117  0.43292  0.90998  1.0000
  H   H530      1.0  0.08776  0.37976  0.59488  1.0000
  C   C302      1.0  0.25570  0.43426  0.53812  1.0000
  H   H531      1.0  0.21190  0.45868  0.90320  1.0000
  H   H532      1.0  0.11357  0.36721  0.56209  1.0000
  H   H533      1.0  0.26301  0.41734  0.53389  1.0000
  H   H534      1.0  0.04821  0.43337  0.63314  1.0000
  C   C303      1.0  0.26496  0.47618  0.90344  1.0000
  H   H535      1.0  0.18443  0.43326  0.86624  1.0000
  H   H536      1.0  0.23677  0.43707  0.52770  1.0000
  C   C304      1.0  0.06689  0.37491  0.58844  1.0000
  S   S67       1.0  0.38014  0.61941  0.96628  1.0000
  N   N17       1.0  0.27765  0.45170  0.53247  1.0000
  C   C305      1.0  0.35046  0.45696  0.56173  1.0000
  C   C306      1.0  0.47827  0.40063  0.47982  1.0000
  C   C307      1.0  0.00389  0.37278  0.58317  1.0000
  H   H537      1.0  0.31881  0.41377  0.87400  1.0000
  H   H538      1.0  0.25868  0.32766  0.93106  1.0000
  H   H539      1.0  0.26816  0.47963  0.55315  1.0000
  H   H540      1.0  0.39157  0.48663  0.93659  1.0000
  H   H541      1.0  0.99812  0.34627  0.75826  1.0000
  H   H542      1.0  0.23841  0.52920  0.91297  1.0000
  H   H543      1.0  0.29861  0.33630  0.95491  1.0000
  Fe  Fe35      1.0  0.33779  0.43276  0.95657  1.0000
  H   H544      1.0  0.30236  0.46033  0.50309  1.0000
  C   C308      1.0  0.06647  0.40027  0.63252  1.0000
  H   H545      1.0  0.44122  0.47290  0.92742  1.0000
  Fe  Fe36      1.0  0.34406  0.64263  0.96138  1.0000
  H   H546      1.0  0.43545  0.31972  0.49438  1.0000
  H   H547      1.0  0.25741  0.64053  0.49142  1.0000
  C   C309      1.0  0.05723  0.42076  0.64500  1.0000
  H   H548      1.0  0.09583  0.35097  0.54140  1.0000
  H   H549      1.0  0.17207  0.43370  0.89479  1.0000
  H   H550      1.0  0.21635  0.44835  0.93851  1.0000
  C   C310      1.0  0.22719  0.44946  0.89347  1.0000
  H   H551      1.0  0.25621  0.42285  0.92579  1.0000
  H   H552      1.0  0.22843  0.48932  0.92097  1.0000
  C   C311      1.0  0.04163  0.38909  0.62028  1.0000
  H   H553      1.0  0.31358  0.45954  0.89556  1.0000
  H   H554      1.0  0.07911  0.34116  0.57908  1.0000
  H   H555      1.0  0.05216  0.35283  0.56167  1.0000
  S   S68       1.0  0.43156  0.39637  0.96497  1.0000
  H   H556      1.0  0.47352  0.44830  0.49133  1.0000
  H   H557      1.0  0.04166  0.41595  0.65786  1.0000
  C   C312      1.0  0.30671  0.44194  0.89395  1.0000
  H   H558      1.0  0.47667  0.33989  0.47890  1.0000
  H   H559      1.0  0.33121  0.55223  0.95433  1.0000
  H   H560      1.0  0.02894  0.33621  0.64220  1.0000
  C   C313      1.0  0.04888  0.34505  0.64510  1.0000
  H   H561      1.0  0.02490  0.38560  0.63261  1.0000
  S   S69       1.0  0.32730  0.47000  0.95022  1.0000
  C   C314      1.0  0.24615  0.43285  0.56284  1.0000
  H   H562      1.0  0.38352  0.45769  0.94212  1.0000
  H   H563      1.0  0.35716  0.43970  0.55846  1.0000
  H   H564      1.0  0.98852  0.35470  0.84000  1.0000
  H   H565      1.0  0.32126  0.44069  0.85956  1.0000
  H   H566      1.0  0.23110  0.32042  0.90170  1.0000
  H   H567      1.0  0.08892  0.33288  0.77872  1.0000
  H   H568      1.0  0.28384  0.35325  0.86175  1.0000
  C   C315      1.0  0.26868  0.51679  0.52794  1.0000
  C   C316      1.0  0.06731  0.32959  0.65937  1.0000
  H   H569      1.0  0.08251  0.40587  0.62039  1.0000
  S   S70       1.0  0.13207  0.32605  0.81533  1.0000
  H   H570      1.0  0.23006  0.64586  0.95234  1.0000
  H   H571      1.0  0.19228  0.33395  0.92393  1.0000
  C   C317      1.0  0.30185  0.44771  0.54823  1.0000
  N   N18       1.0  0.43632  0.47218  0.96346  1.0000
  H   H572      1.0  0.46605  0.44601  0.96978  1.0000
  H   H573      1.0  0.26265  0.63222  0.94858  1.0000
  H   H574      1.0  0.37101  0.46791  0.90372  1.0000
  H   H575      1.0  0.30947  0.43037  0.54656  1.0000
  H   H576      1.0  0.26715  0.51614  0.92737  1.0000
  H   H577      1.0  0.22103  0.64036  0.48410  1.0000
  H   H578      1.0  0.13421  0.33607  0.71127  1.0000
  C   C318      1.0  0.18579  0.42506  0.88312  1.0000
  S   S71       1.0  0.30451  0.40582  0.95827  1.0000
  H   H579      1.0  0.40547  0.47829  0.89803  1.0000
  H   H580      1.0  0.08449  0.35711  0.62623  1.0000
  N   N19       1.0  0.25600  0.45183  0.90326  1.0000
  C   C319      1.0  0.27541  0.43974  0.88820  1.0000
  H   H581      1.0  0.22652  0.45726  0.87631  1.0000
  C   C320      1.0  0.28659  0.44786  0.50875  1.0000
  C   C321      1.0  0.39327  0.46582  0.90802  1.0000
  H   H582      1.0  0.01616  0.37909  0.56871  1.0000
  H   H583      1.0  0.21399  0.41728  0.58328  1.0000
  H   H584      1.0  0.40435  0.54252  0.47862  1.0000
  H   H585      1.0  0.21584  0.41656  0.90841  1.0000
  H   H586      1.0  0.27468  0.48130  0.88721  1.0000
  C   C322      1.0  0.07157  0.35673  0.57094  1.0000
  H   H587      1.0  0.39948  0.44875  0.90353  1.0000
  H   H588      1.0  0.41487  0.56149  0.52289  1.0000
  H   H589      1.0  0.26222  0.42460  0.57352  1.0000
  C   C323      1.0  0.27778  0.49397  0.52019  1.0000
  H   H590      1.0  0.41123  0.59072  0.51572  1.0000
  H   H591      1.0  0.38727  0.57070  0.50432  1.0000
  C   C324      1.0  0.09320  0.36427  0.55377  1.0000
  H   H592      1.0  0.07618  0.38869  0.64501  1.0000
  C   C325      1.0  0.33030  0.51607  0.95276  1.0000
  H   H593      1.0  0.26883  0.52225  0.89754  1.0000
  H   H594      1.0  0.00777  0.35352  0.61381  1.0000
  S   S72       1.0  0.12651  0.32673  0.60735  1.0000
  H   H595      1.0  0.23687  0.41839  0.96362  1.0000
  C   C326      1.0  0.40918  0.57359  0.50923  1.0000
  C   C327      1.0  0.26583  0.47470  0.53538  1.0000
  H   H596      1.0  0.24307  0.47461  0.53216  1.0000
  H   H597      1.0  0.33495  0.46419  0.52863  1.0000
  H   H598      1.0  0.26204  0.43867  0.97347  1.0000
  H   H599      1.0  0.04480  0.35987  0.65517  1.0000
  H   H600      1.0  0.05917  0.39006  0.57928  1.0000
  H   H601      1.0  0.22786  0.41553  0.87993  1.0000
  C   C328      1.0  0.21967  0.41880  0.56534  1.0000
  H   H602      1.0  0.34653  0.43290  0.88065  1.0000
  C   C329      1.0  0.32686  0.46390  0.54585  1.0000
  H   H603      1.0  0.29736  0.43157  0.50789  1.0000
  H   H604      1.0  0.30062  0.49415  0.51982  1.0000
  H   H605      1.0  0.03304  0.40211  0.60861  1.0000
  H   H606      1.0  0.32001  0.51608  0.93660  1.0000
  H   H607      1.0  0.14297  0.32451  0.75105  1.0000
  H   H608      1.0  0.27230  0.44553  0.87045  1.0000
  Fe  Fe37      1.0  0.16003  0.32620  0.84664  1.0000
  H   H609      1.0  0.07534  0.42847  0.65356  1.0000
  Fe  Fe38      1.0  0.16278  0.31868  0.58542  1.0000
  H   H610      1.0  0.03628  0.33986  0.83803  1.0000
  H   H611      1.0  0.36846  0.46843  0.55920  1.0000
  H   H612      1.0  0.07719  0.31965  0.74055  1.0000
  H   H613      1.0  0.29546  0.44906  0.56593  1.0000
  H   H614      1.0  0.34387  0.45777  0.57944  1.0000
  C   C330      1.0  0.34701  0.49941  0.48805  1.0000
  C   C331      1.0  0.24230  0.64177  0.47731  1.0000
  H   H615      1.0  0.41133  0.50133  0.96829  1.0000
  C   C332      1.0  0.14253  0.31973  0.71515  1.0000
  H   H616      1.0  0.99679  0.34308  0.78830  1.0000
  C   C333      1.0  0.06722  0.32899  0.77375  1.0000
  C   C334      1.0  0.33767  0.53871  0.47751  1.0000
  H   H617      1.0  0.44933  0.57532  0.49503  1.0000
  C   C335      1.0  0.43411  0.33741  0.48849  1.0000
  H   H618      1.0  0.48019  0.54579  0.47802  1.0000
  H   H619      1.0  0.44281  0.54305  0.96617  1.0000
  H   H620      1.0  0.29949  0.33835  0.51385  1.0000
  H   H621      1.0  0.25772  0.31977  0.53378  1.0000
  C   C336      1.0  0.25158  0.64436  0.95885  1.0000
  H   H622      1.0  0.43469  0.53587  0.49383  1.0000
  C   C337      1.0  0.24096  0.43643  0.96619  1.0000
  C   C338      1.0  0.33688  0.49553  0.96349  1.0000
  C   C339      1.0  0.47716  0.46306  0.50183  1.0000
  C   C340      1.0  0.42805  0.57121  0.48912  1.0000
  H   H623      1.0  0.46445  0.46096  0.51715  1.0000
  C   C341      1.0  0.42657  0.54715  0.48020  1.0000
  C   C342      1.0  0.33668  0.53669  0.96279  1.0000
  H   H624      1.0  0.29068  0.32393  0.91650  1.0000
  C   C343      1.0  0.99148  0.33717  0.83702  1.0000
  C   C344      1.0  0.99100  0.33517  0.77230  1.0000
  H   H625      1.0  0.48400  0.48868  0.94346  1.0000
  Fe  Fe39      1.0  0.35201  0.42954  0.47464  1.0000
  H   H626      1.0  0.48454  0.46003  0.93524  1.0000
  H   H627      1.0  0.47394  0.51060  0.97405  1.0000
  S   S73       1.0  0.32215  0.39967  0.47442  1.0000
  H   H628      1.0  0.42213  0.58366  0.47588  1.0000
  H   H629      1.0  0.06989  0.72164  0.24443  1.0000
  S   S74       1.0  0.16537  0.87532  0.01605  1.0000
  H   H630      1.0  0.40714  0.65185  0.04190  1.0000
  C   C345      1.0  0.98872  0.72421  0.08046  1.0000
  H   H631      1.0  0.00226  0.70616  0.14218  1.0000
  S   S75       1.0  0.12273  0.85783  0.44228  1.0000
  Fe  Fe40      1.0  0.15353  0.76872  0.35123  1.0000
  S   S76       1.0  0.13161  0.74534  0.37523  1.0000
  S   S77       1.0  0.17367  0.80087  0.36383  1.0000
  Fe  Fe41      1.0  0.14278  0.73827  0.31032  1.0000
  S   S78       1.0  0.12068  0.71318  0.33295  1.0000
  S   S79       1.0  0.13939  0.72606  0.27373  1.0000
  Fe  Fe42      1.0  0.09925  0.74225  0.34775  1.0000
  S   S80       1.0  0.05325  0.75079  0.35095  1.0000
  Fe  Fe43      1.0  0.15536  0.71842  0.35824  1.0000
  S   S81       1.0  0.17515  0.68838  0.37733  1.0000
  S   S82       1.0  0.12027  0.76723  0.32456  1.0000
  S   S83       1.0  0.17864  0.74188  0.33506  1.0000
  H   H632      1.0  0.16755  0.66220  0.12555  1.0000
  Fe  Fe44      1.0  0.15808  0.71622  0.09184  1.0000
  S   S84       1.0  0.16987  0.75090  0.10286  1.0000
  S   S85       1.0  0.18496  0.69308  0.07022  1.0000
  Fe  Fe45      1.0  0.09773  0.72107  0.11015  1.0000
  S   S86       1.0  0.10681  0.75560  0.12171  1.0000
  S   S87       1.0  0.05509  0.70707  0.12040  1.0000
  Fe  Fe46      1.0  0.12831  0.76139  0.08882  1.0000
  S   S88       1.0  0.11253  0.78947  0.06556  1.0000
  Fe  Fe47      1.0  0.14694  0.74202  0.13523  1.0000
  S   S89       1.0  0.16279  0.75278  0.17013  1.0000
  S   S90       1.0  0.11717  0.72724  0.07649  1.0000
  S   S91       1.0  0.13742  0.70684  0.12493  1.0000
  H   H633      1.0  0.11193  0.85251  0.01153  1.0000
  N   N20       1.0  0.22619  0.70278  0.15959  1.0000
  C   C346      1.0  0.02126  0.71394  0.11038  1.0000
  Fe  Fe48      1.0  0.14335  0.89247  0.98649  1.0000
  C   C347      1.0  0.01610  0.72041  0.08805  1.0000
  H   H634      1.0  0.22942  0.66432  0.45123  1.0000
  H   H635      1.0  0.03314  0.72188  0.07649  1.0000
  C   C348      1.0  0.21919  0.68551  0.06157  1.0000
  C   C349      1.0  0.26977  0.68910  0.06245  1.0000
  C   C350      1.0  0.24337  0.69561  0.06994  1.0000
  H   H636      1.0  0.28815  0.69708  0.06915  1.0000
  H   H637      1.0  0.24175  0.70846  0.08218  1.0000
  C   C351      1.0  0.02072  0.73680  0.34811  1.0000
  S   S92       1.0  0.15750  0.97212  0.45975  1.0000
  C   C352      1.0  0.01815  0.71356  0.34725  1.0000
  H   H638      1.0  0.98990  0.68543  0.34500  1.0000
  H   H639      1.0  0.03647  0.70340  0.34828  1.0000
  C   C353      1.0  0.14495  0.73454  0.24501  1.0000
  C   C354      1.0  0.15942  0.75409  0.23878  1.0000
  C   C355      1.0  0.16438  0.75940  0.21590  1.0000
  C   C356      1.0  0.15452  0.74559  0.19873  1.0000
  C   C357      1.0  0.13978  0.72613  0.20494  1.0000
  C   C358      1.0  0.13523  0.72062  0.22786  1.0000
  H   H640      1.0  0.16712  0.76504  0.25159  1.0000
  H   H641      1.0  0.17590  0.77445  0.21146  1.0000
  H   H642      1.0  0.13210  0.71520  0.19211  1.0000
  H   H643      1.0  0.12402  0.70543  0.23231  1.0000
  C   C359      1.0  0.20926  0.68213  0.38764  1.0000
  H   H644      1.0  0.26630  0.66350  0.45557  1.0000
  H   H645      1.0  0.20968  0.76907  0.13851  1.0000
  H   H646      1.0  0.21513  0.74597  0.45508  1.0000
  C   C360      1.0  0.24060  0.65537  0.40665  1.0000
  C   C361      1.0  0.13761  0.84266  0.42030  1.0000
  C   C362      1.0  0.16145  0.84988  0.40895  1.0000
  C   C363      1.0  0.17228  0.83694  0.39173  1.0000
  C   C364      1.0  0.15934  0.81678  0.38554  1.0000
  C   C365      1.0  0.13560  0.80961  0.39697  1.0000
  C   C366      1.0  0.12489  0.82244  0.41421  1.0000
  H   H647      1.0  0.17134  0.86548  0.41326  1.0000
  H   H648      1.0  0.19061  0.84269  0.38297  1.0000
  H   H649      1.0  0.12535  0.79421  0.39243  1.0000
  H   H650      1.0  0.10641  0.81671  0.42279  1.0000
  H   H651      1.0  0.18870  0.69535  0.27856  1.0000
  C   C367      1.0  0.15045  0.85158  0.02990  1.0000
  C   C368      1.0  0.16569  0.84007  0.04666  1.0000
  C   C369      1.0  0.15474  0.82074  0.05753  1.0000
  C   C370      1.0  0.12818  0.81301  0.05195  1.0000
  C   C371      1.0  0.11288  0.82466  0.03533  1.0000
  C   C372      1.0  0.12398  0.84374  0.02427  1.0000
  H   H652      1.0  0.18604  0.84620  0.05130  1.0000
  H   H653      1.0  0.16661  0.81209  0.07046  1.0000
  H   H654      1.0  0.09227  0.81892  0.03097  1.0000
  C   C373      1.0  0.24027  0.66156  0.27435  1.0000
  H   H655      1.0  0.01225  0.85774  0.06946  1.0000
  C   C374      1.0  0.29926  0.70487  0.46633  1.0000
  C   C375      1.0  0.23962  0.71658  0.00854  1.0000
  C   C376      1.0  0.22034  0.70904  0.18349  1.0000
  H   H656      1.0  0.32306  0.72941  0.44653  1.0000
  C   C377      1.0  0.04804  0.69935  0.28359  1.0000
  H   H657      1.0  0.23614  0.75060  0.02005  1.0000
  H   H658      1.0  0.25830  0.66027  0.28594  1.0000
  H   H659      1.0  0.20391  0.73844  0.00991  1.0000
  H   H660      1.0  0.99860  0.71450  0.27588  1.0000
  C   C378      1.0  0.29309  0.66660  0.16325  1.0000
  H   H661      1.0  0.14764  0.67991  0.29856  1.0000
  H   H662      1.0  0.05163  0.72586  0.30720  1.0000
  H   H663      1.0  0.33349  0.71099  0.01701  1.0000
  C   C379      1.0  0.25577  0.69551  0.15729  1.0000
  H   H664      1.0  0.34489  0.73854  0.00798  1.0000
  C   C380      1.0  0.30738  0.72704  0.99136  1.0000
  H   H665      1.0  0.23923  0.71626  0.19149  1.0000
  C   C381      1.0  0.03478  0.79258  0.12414  1.0000
  H   H666      1.0  0.22591  0.68914  0.33425  1.0000
  H   H667      1.0  0.01626  0.79419  0.41043  1.0000
  C   C382      1.0  0.24851  0.66248  0.03791  1.0000
  H   H668      1.0  0.03486  0.76750  0.02834  1.0000
  N   N21       1.0  0.03096  0.73984  0.27777  1.0000
  H   H669      1.0  0.22017  0.67497  0.19925  1.0000
  H   H670      1.0  0.03823  0.94855  0.02839  1.0000
  C   C383      1.0  0.29276  0.70489  0.98485  1.0000
  H   H671      1.0  0.27263  0.72713  0.44758  1.0000
  H   H672      1.0  0.44930  0.65801  0.08044  1.0000
  H   H673      1.0  0.01220  0.96778  0.99509  1.0000
  C   C384      1.0  0.04555  0.77186  0.04420  1.0000
  H   H674      1.0  0.41948  0.69066  0.05159  1.0000
  C   C385      1.0  0.07370  0.68592  0.29001  1.0000
  H   H675      1.0  0.02934  0.82372  0.01249  1.0000
  C   C386      1.0  0.21393  0.66143  0.39876  1.0000
  H   H676      1.0  0.09199  0.69222  0.28055  1.0000
  C   C387      1.0  0.02726  0.96016  0.98369  1.0000
  H   H677      1.0  0.26992  0.69907  0.43947  1.0000
  H   H678      1.0  0.06259  0.79171  0.31589  1.0000
  H   H679      1.0  0.19989  0.72786  0.14409  1.0000
  H   H680      1.0  0.26161  0.74162  0.14937  1.0000
  H   H681      1.0  0.16296  0.79814  0.98417  1.0000
  C   C388      1.0  0.23571  0.87827  0.47080  1.0000
  C   C389      1.0  0.20577  0.68521  0.15195  1.0000
  H   H682      1.0  0.99708  0.76318  0.10850  1.0000
  C   C390      1.0  0.20832  0.69061  0.19954  1.0000
  C   C391      1.0  0.20392  0.79947  0.01293  1.0000
  C   C392      1.0  0.22056  0.70939  0.45328  1.0000
  H   H683      1.0  0.24975  0.65924  0.16378  1.0000
  H   H684      1.0  0.05640  0.76283  0.21457  1.0000
  H   H685      1.0  0.38431  0.68336  0.05865  1.0000
  C   C393      1.0  0.22186  0.79966  0.03416  1.0000
  C   C394      1.0  0.07548  0.80140  0.14970  1.0000
  H   H686      1.0  0.20012  0.83504  0.00714  1.0000
  H   H687      1.0  0.15668  0.65215  0.29086  1.0000
  C   C395      1.0  0.99753  0.97138  0.47029  1.0000
  H   H688      1.0  0.07345  0.72943  0.28408  1.0000
  H   H689      1.0  0.23145  0.82403  0.99795  1.0000
  S   S93       1.0  0.30692  0.66523  0.03743  1.0000
  C   C396      1.0  0.05420  0.94315  0.01655  1.0000
  H   H690      1.0  0.24071  0.67793  0.26536  1.0000
  H   H691      1.0  0.03299  0.86238  0.09442  1.0000
  H   H692      1.0  0.08354  0.80500  0.29453  1.0000
  H   H693      1.0  0.18199  0.79849  0.01831  1.0000
  H   H694      1.0  0.19140  0.65357  0.10467  1.0000
  C   C397      1.0  0.23164  0.76451  0.13610  1.0000
  H   H695      1.0  0.06329  0.78067  0.26593  1.0000
  H   H696      1.0  0.09627  0.80950  0.15047  1.0000
  C   C398      1.0  0.18948  0.65799  0.12253  1.0000
  H   H697      1.0  0.29025  0.69446  0.00041  1.0000
  H   H698      1.0  0.05803  0.75735  0.05013  1.0000
  H   H699      1.0  0.06220  0.80891  0.16246  1.0000
  H   H700      1.0  0.19010  0.72143  0.41491  1.0000
  H   H701      1.0  0.45469  0.65944  0.05107  1.0000
  H   H702      1.0  0.20261  0.69168  0.11571  1.0000
  H   H703      1.0  0.21819  0.81497  0.04368  1.0000
  H   H704      1.0  0.21653  0.78494  0.04507  1.0000
  H   H705      1.0  0.24413  0.79891  0.02990  1.0000
  H   H706      1.0  0.04333  0.76436  0.09208  1.0000
  H   H707      1.0  0.41029  0.68457  0.08051  1.0000
  C   C399      1.0  0.27120  0.70971  0.45440  1.0000
  H   H708      1.0  0.22661  0.70119  0.00936  1.0000
  C   C400      1.0  0.20937  0.82048  0.45075  1.0000
  H   H709      1.0  0.00910  0.76379  0.06277  1.0000
  C   C401      1.0  0.22481  0.85905  0.45600  1.0000
  N   N22       1.0  0.24561  0.70676  0.46844  1.0000
  H   H710      1.0  0.20133  0.70431  0.46228  1.0000
  C   C402      1.0  0.23031  0.81731  0.43163  1.0000
  H   H711      1.0  0.18380  0.70535  0.30557  1.0000
  C   C403      1.0  0.03398  0.76264  0.28771  1.0000
  H   H712      1.0  0.18655  0.68675  0.19462  1.0000
  C   C404      1.0  0.22457  0.79568  0.41934  1.0000
  C   C405      1.0  0.22341  0.73508  0.01936  1.0000
  H   H713      1.0  0.18937  0.82531  0.44261  1.0000
  H   H714      1.0  0.20512  0.80384  0.45853  1.0000
  C   C406      1.0  0.99862  0.71147  0.12495  1.0000
  H   H715      1.0  0.19784  0.68551  0.23459  1.0000
  H   H716      1.0  0.20660  0.86521  0.44608  1.0000
  H   H717      1.0  0.24156  0.85666  0.44376  1.0000
  H   H718      1.0  0.23519  0.74916  0.16870  1.0000
  H   H719      1.0  0.07015  0.66812  0.28604  1.0000
  H   H720      1.0  0.99864  0.95379  0.46506  1.0000
  C   C407      1.0  0.03322  0.74127  0.25253  1.0000
  H   H721      1.0  0.22843  0.83126  0.41906  1.0000
  H   H722      1.0  0.25192  0.81706  0.43811  1.0000
  H   H723      1.0  0.18427  0.69132  0.15396  1.0000
  S   S94       1.0  0.36289  0.66004  0.44657  1.0000
  H   H724      1.0  0.03038  0.76139  0.30609  1.0000
  C   C408      1.0  0.06173  0.77520  0.28378  1.0000
  C   C409      1.0  0.19935  0.69714  0.29506  1.0000
  H   H725      1.0  0.22942  0.70134  0.22994  1.0000
  C   C410      1.0  0.02427  0.77775  0.06171  1.0000
  C   C411      1.0  0.99659  0.74970  0.34666  1.0000
  H   H726      1.0  0.19596  0.74335  0.28674  1.0000
  H   H727      1.0  0.20282  0.79510  0.41311  1.0000
  H   H728      1.0  0.23844  0.79477  0.40470  1.0000
  H   H729      1.0  0.22867  0.71289  0.37645  1.0000
  H   H730      1.0  0.26052  0.89534  0.44508  1.0000
  H   H731      1.0  0.07809  0.79911  0.11397  1.0000
  H   H732      1.0  0.22514  0.90470  0.44635  1.0000
  H   H733      1.0  0.23493  0.76081  0.11822  1.0000
  N   N23       1.0  0.02065  0.79355  0.10145  1.0000
  C   C412      1.0  0.23088  0.67662  0.32144  1.0000
  H   H734      1.0  0.20476  0.72256  0.18373  1.0000
  C   C413      1.0  0.23176  0.69688  0.38486  1.0000
  H   H735      1.0  0.22251  0.86589  0.98520  1.0000
  H   H736      1.0  0.30813  0.67969  0.16846  1.0000
  C   C414      1.0  0.32337  0.71130  0.45099  1.0000
  C   C415      1.0  0.26318  0.66995  0.40358  1.0000
  H   H737      1.0  0.24961  0.68338  0.31297  1.0000
  C   C416      1.0  0.33560  0.72261  0.00227  1.0000
  C   C417      1.0  0.20801  0.69840  0.22367  1.0000
  C   C418      1.0  0.02410  0.84158  0.01419  1.0000
  H   H738      1.0  0.02952  0.85090  0.99847  1.0000
  H   H739      1.0  0.20707  0.73051  0.26144  1.0000
  H   H740      1.0  0.03692  0.84852  0.02792  1.0000
  H   H741      1.0  0.27566  0.70227  0.39017  1.0000
  C   C419      1.0  0.06261  0.73908  0.24248  1.0000
  S   S95       1.0  0.35781  0.66563  0.98820  1.0000
  H   H742      1.0  0.02036  0.72798  0.24466  1.0000
  H   H743      1.0  0.02165  0.80012  0.13696  1.0000
  H   H744      1.0  0.22838  0.78102  0.43063  1.0000
  H   H745      1.0  0.25851  0.71370  0.01883  1.0000
  H   H746      1.0  0.02041  0.77443  0.38859  1.0000
  C   C420      1.0  0.24324  0.89896  0.45648  1.0000
  H   H747      1.0  0.03054  0.69223  0.29352  1.0000
  H   H748      1.0  0.07972  0.76477  0.28837  1.0000
  C   C421      1.0  0.22217  0.72332  0.14468  1.0000
  S   S96       1.0  0.29783  0.66284  0.41192  1.0000
  H   H749      1.0  0.32237  0.70160  0.43543  1.0000
  S   S97       1.0  0.10956  0.91776  0.98686  1.0000
  H   H750      1.0  0.20877  0.78415  0.00389  1.0000
  C   C422      1.0  0.21356  0.73526  0.27854  1.0000
  H   H751      1.0  0.05908  0.82760  0.08735  1.0000
  C   C423      1.0  0.06251  0.74517  0.21746  1.0000
  H   H752      1.0  0.19620  0.71410  0.22470  1.0000
  C   C424      1.0  0.20887  0.82079  0.99806  1.0000
  H   H753      1.0  0.22995  0.67282  0.12366  1.0000
  H   H754      1.0  0.03777  0.77480  0.12967  1.0000
  H   H755      1.0  0.05958  0.78632  0.04074  1.0000
  H   H756      1.0  0.24989  0.91271  0.46751  1.0000
  S   S98       1.0  0.10673  0.92078  0.46250  1.0000
  C   C425      1.0  0.26870  0.65672  0.34401  1.0000
  H   H757      1.0  0.12905  0.66401  0.33501  1.0000
  H   H758      1.0  0.27017  0.70822  0.16428  1.0000
  H   H759      1.0  0.02428  0.75724  0.24600  1.0000
  H   H760      1.0  0.20686  0.66984  0.16265  1.0000
  H   H761      1.0  0.23079  0.74763  0.27713  1.0000
  H   H762      1.0  0.08359  0.74317  0.21066  1.0000
  H   H763      1.0  0.01803  0.77416  0.28077  1.0000
  C   C426      1.0  0.22212  0.66884  0.04555  1.0000
  H   H764      1.0  0.06013  0.82319  0.12383  1.0000
  C   C427      1.0  0.01517  0.81740  0.09387  1.0000
  C   C428      1.0  0.23912  0.74444  0.15121  1.0000
  H   H765      1.0  0.05820  0.78963  0.08251  1.0000
  C   C429      1.0  0.06296  0.80494  0.12625  1.0000
  H   H766      1.0  0.17138  0.73017  0.43914  1.0000
  C   C430      1.0  0.06355  0.79619  0.29773  1.0000
  C   C431      1.0  0.03815  0.82968  0.07999  1.0000
  H   H767      1.0  0.04642  0.80772  0.29326  1.0000
  H   H768      1.0  0.24128  0.70807  0.28390  1.0000
  H   H769      1.0  0.01069  0.80262  0.38136  1.0000
  C   C432      1.0  0.03793  0.78122  0.08507  1.0000
  H   H770      1.0  0.24482  0.77909  0.14050  1.0000
  H   H771      1.0  0.07823  0.74983  0.25069  1.0000
  C   C433      1.0  0.00805  0.78880  0.39397  1.0000
  C   C434      1.0  0.22304  0.71479  0.29224  1.0000
  H   H772      1.0  0.29493  0.73608  0.00359  1.0000
  C   C435      1.0  0.25843  0.69080  0.39274  1.0000
  H   H773      1.0  0.98801  0.89723  0.98878  1.0000
  H   H774      1.0  0.34982  0.71533  0.99004  1.0000
  H   H775      1.0  0.00130  0.72736  0.30222  1.0000
  H   H776      1.0  0.11221  0.65256  0.31074  1.0000
  H   H777      1.0  0.07794  0.68700  0.30825  1.0000
  H   H778      1.0  0.34330  0.70766  0.45965  1.0000
  H   H779      1.0  0.18723  0.75063  0.42050  1.0000
  H   H780      1.0  0.04804  0.73408  0.20824  1.0000
  H   H781      1.0  0.26139  0.69476  0.13930  1.0000
  H   H782      1.0  0.07458  0.94303  0.02533  1.0000
  H   H783      1.0  0.21792  0.72984  0.03675  1.0000
  H   H784      1.0  0.17859  0.67657  0.33268  1.0000
  H   H785      1.0  0.42019  0.70074  0.97608  1.0000
  H   H786      1.0  0.23364  0.73730  0.43089  1.0000
  H   H787      1.0  0.04334  0.69690  0.26561  1.0000
  C   C436      1.0  0.05202  0.72446  0.28864  1.0000
  H   H788      1.0  0.22779  0.72000  0.12708  1.0000
  H   H789      1.0  0.01290  0.79269  0.05557  1.0000
  C   C437      1.0  0.21268  0.65824  0.28694  1.0000
  C   C438      1.0  0.27269  0.67251  0.04633  1.0000
  H   H790      1.0  0.30105  0.68686  0.47089  1.0000
  H   H791      1.0  0.29494  0.66414  0.14495  1.0000
  C   C439      1.0  0.20855  0.67786  0.12740  1.0000
  S   S99       1.0  0.43567  0.65683  0.99919  1.0000
  H   H792      1.0  0.07785  0.78335  0.15388  1.0000
  H   H793      1.0  0.03894  0.82313  0.06284  1.0000
  H   H794      1.0  0.99842  0.76769  0.34682  1.0000
  C   C440      1.0  0.05553  0.95909  0.99615  1.0000
  C   C441      1.0  0.18242  0.66562  0.31832  1.0000
  C   C442      1.0  0.40636  0.68004  0.06286  1.0000
  H   H795      1.0  0.08376  0.97716  0.42559  1.0000
  H   H796      1.0  0.44997  0.65340  0.46205  1.0000
  C   C443      1.0  0.00253  0.73082  0.28385  1.0000
  H   H797      1.0  0.01070  0.82765  0.10865  1.0000
  H   H798      1.0  0.15665  0.82696  0.98827  1.0000
  H   H799      1.0  0.04900  0.86291  0.06735  1.0000
  C   C444      1.0  0.24607  0.66379  0.46409  1.0000
  C   C445      1.0  0.03262  0.85470  0.07771  1.0000
  C   C446      1.0  0.15469  0.66341  0.30513  1.0000
  N   N24       1.0  0.21763  0.83725  0.46812  1.0000
  Fe  Fe49      1.0  0.13178  0.88913  0.46244  1.0000
  H   H800      1.0  0.25151  0.79599  0.47231  1.0000
  H   H801      1.0  0.26281  0.67465  0.18742  1.0000
  H   H802      1.0  0.04935  0.92588  0.01128  1.0000
  H   H803      1.0  0.22984  0.72064  0.30895  1.0000
  C   C447      1.0  0.26357  0.67309  0.16900  1.0000
  C   C448      1.0  0.41229  0.65537  0.05959  1.0000
  H   H804      1.0  0.20375  0.66078  0.03892  1.0000
  H   H805      1.0  0.06184  0.97578  0.00214  1.0000
  H   H806      1.0  0.22622  0.72360  0.97491  1.0000
  H   H807      1.0  0.25038  0.67694  0.98893  1.0000
  H   H808      1.0  0.07190  0.95336  0.98498  1.0000
  N   N25       1.0  0.20691  0.67446  0.30515  1.0000
  C   C449      1.0  0.24652  0.72282  0.98383  1.0000
  H   H809      1.0  0.22175  0.69790  0.43901  1.0000
  H   H810      1.0  0.99607  0.81830  0.08328  1.0000
  H   H811      1.0  0.30771  0.69561  0.97475  1.0000
  C   C450      1.0  0.21638  0.73293  0.44236  1.0000
  H   H812      1.0  0.27167  0.67243  0.35316  1.0000
  C   C451      1.0  0.18964  0.73376  0.42844  1.0000
  C   C452      1.0  0.99338  0.78103  0.10375  1.0000
  C   C453      1.0  0.99169  0.70343  0.34545  1.0000
  H   H813      1.0  0.19608  0.65900  0.27390  1.0000
  H   H814      1.0  0.25499  0.74017  0.98296  1.0000
  C   C454      1.0  0.13204  0.65351  0.32023  1.0000
  H   H815      1.0  0.31084  0.73816  0.97650  1.0000
  H   H816      1.0  0.04214  0.97472  0.46759  1.0000
  C   C455      1.0  0.16631  0.81513  0.97666  1.0000
  H   H817      1.0  0.01978  0.94261  0.98194  1.0000
  N   N26       1.0  0.19686  0.82045  0.97460  1.0000
  C   C456      1.0  0.99335  0.84406  0.01932  1.0000
  H   H818      1.0  0.28401  0.65638  0.33031  1.0000
  S   S100      1.0  0.17147  0.90638  0.47260  1.0000
  H   H819      1.0  0.98898  0.83393  0.03469  1.0000
  H   H820      1.0  0.98992  0.86196  0.02248  1.0000
  C   C457      1.0  0.23926  0.65494  0.33454  1.0000
  H   H821      1.0  0.22500  0.65196  0.34883  1.0000
  H   H822      1.0  0.17550  0.84824  0.47175  1.0000
  H   H823      1.0  0.99409  0.98253  0.45544  1.0000
  H   H824      1.0  0.29843  0.65069  0.17216  1.0000
  H   H825      1.0  0.26192  0.83539  0.47407  1.0000
  Fe  Fe50      1.0  0.37218  0.81307  0.84302  1.0000
  S   S101      1.0  0.36165  0.77751  0.83549  1.0000
  S   S102      1.0  0.41685  0.82694  0.84495  1.0000
  Fe  Fe51      1.0  0.30939  0.82490  0.85000  1.0000
  S   S103      1.0  0.29591  0.78984  0.84253  1.0000
  S   S104      1.0  0.28000  0.85340  0.85909  1.0000
  Fe  Fe52      1.0  0.33194  0.77878  0.86435  1.0000
  S   S105      1.0  0.33099  0.75898  0.89763  1.0000
  Fe  Fe53      1.0  0.32687  0.79213  0.81407  1.0000
  S   S106      1.0  0.31589  0.77922  0.77899  1.0000
  S   S107      1.0  0.34416  0.81396  0.87273  1.0000
  S   S108      1.0  0.33864  0.82776  0.82046  1.0000
  H   H826      1.0  0.47980  0.75683  0.52240  1.0000
  Fe  Fe54      1.0  0.13079  0.93527  0.95795  1.0000
  S   S109      1.0  0.10877  0.91463  0.93172  1.0000
  S   S110      1.0  0.12416  0.97314  0.95170  1.0000
  Fe  Fe55      1.0  0.08783  0.89718  0.96092  1.0000
  H   H827      1.0  0.43425  0.70987  0.91530  1.0000
  Fe  Fe56      1.0  0.14417  0.89002  0.93585  1.0000
  S   S111      1.0  0.16551  0.86597  0.91167  1.0000
  H   H828      1.0  0.26323  0.72040  0.49866  1.0000
  Fe  Fe57      1.0  0.38215  0.79195  0.60270  1.0000
  S   S112      1.0  0.36232  0.76837  0.62789  1.0000
  S   S113      1.0  0.42768  0.78146  0.59971  1.0000
  Fe  Fe58      1.0  0.32410  0.81256  0.58999  1.0000
  S   S114      1.0  0.30210  0.78981  0.61498  1.0000
  S   S115      1.0  0.30318  0.83729  0.56427  1.0000
  Fe  Fe59      1.0  0.33747  0.79726  0.63932  1.0000
  S   S116      1.0  0.33865  0.80927  0.67612  1.0000
  Fe  Fe60      1.0  0.32954  0.76292  0.60148  1.0000
  S   S117      1.0  0.31705  0.72727  0.59245  1.0000
  S   S118      1.0  0.35845  0.82149  0.61480  1.0000
  S   S119      1.0  0.35014  0.78514  0.57587  1.0000
  Fe  Fe61      1.0  0.09807  0.91250  0.49857  1.0000
  S   S120      1.0  0.05590  0.91887  0.51453  1.0000
  Fe  Fe62      1.0  0.15968  0.89814  0.50839  1.0000
  H   H829      1.0  0.43517  0.73399  0.58598  1.0000
  S   S121      1.0  0.18351  0.87761  0.53596  1.0000
  H   H830      1.0  0.28734  0.70624  0.94098  1.0000
  C   C458      1.0  0.40554  0.82447  0.78179  1.0000
  S   S122      1.0  0.13600  0.93039  0.51209  1.0000
  H   H831      1.0  0.37674  0.76714  0.53400  1.0000
  S   S123      1.0  0.35573  0.68391  0.50175  1.0000
  C   C459      1.0  0.06218  0.83410  0.49329  1.0000
  H   H832      1.0  0.39699  0.80543  0.93255  1.0000
  C   C460      1.0  0.32588  0.71521  0.56664  1.0000
  C   C461      1.0  0.32620  0.69182  0.56498  1.0000
  C   C462      1.0  0.33409  0.68175  0.54495  1.0000
  C   C463      1.0  0.34147  0.69505  0.52628  1.0000
  C   C464      1.0  0.33990  0.71838  0.52766  1.0000
  C   C465      1.0  0.33234  0.72843  0.54770  1.0000
  H   H833      1.0  0.32098  0.68144  0.57946  1.0000
  C   C466      1.0  0.40907  0.74774  0.51803  1.0000
  H   H834      1.0  0.34491  0.72877  0.51319  1.0000
  H   H835      1.0  0.33151  0.74639  0.54851  1.0000
  C   C467      1.0  0.26948  0.84779  0.55644  1.0000
  C   C468      1.0  0.24500  0.84054  0.56690  1.0000
  C   C469      1.0  0.21910  0.84968  0.56027  1.0000
  C   C470      1.0  0.21699  0.86620  0.54303  1.0000
  C   C471      1.0  0.24144  0.87331  0.53246  1.0000
  C   C472      1.0  0.26731  0.86414  0.53903  1.0000
  H   H836      1.0  0.24605  0.82807  0.58031  1.0000
  H   H837      1.0  0.20057  0.84403  0.56878  1.0000
  H   H838      1.0  0.24060  0.88642  0.51971  1.0000
  H   H839      1.0  0.28595  0.87013  0.53087  1.0000
  H   H840      1.0  0.43555  0.78082  0.83958  1.0000
  C   C473      1.0  0.33374  0.73016  0.90442  1.0000
  C   C474      1.0  0.34110  0.72375  0.92648  1.0000
  C   C475      1.0  0.34188  0.70108  0.93321  1.0000
  C   C476      1.0  0.33435  0.68457  0.91814  1.0000
  C   C477      1.0  0.32754  0.69096  0.89594  1.0000
  C   C478      1.0  0.32753  0.71365  0.88901  1.0000
  H   H841      1.0  0.34597  0.73642  0.93851  1.0000
  H   H842      1.0  0.43481  0.78679  0.69483  1.0000
  H   H843      1.0  0.32178  0.67829  0.88414  1.0000
  H   H844      1.0  0.32174  0.71837  0.87200  1.0000
  C   C479      1.0  0.32313  0.78779  0.75056  1.0000
  C   C480      1.0  0.33501  0.80859  0.74480  1.0000
  C   C481      1.0  0.33964  0.81471  0.72206  1.0000
  C   C482      1.0  0.33275  0.80017  0.70461  1.0000
  C   C483      1.0  0.32121  0.77926  0.71041  1.0000
  C   C484      1.0  0.31633  0.77322  0.73314  1.0000
  H   H845      1.0  0.34028  0.82011  0.75777  1.0000
  H   H846      1.0  0.34847  0.83096  0.71788  1.0000
  H   H847      1.0  0.31572  0.76783  0.69733  1.0000
  H   H848      1.0  0.30713  0.75708  0.73722  1.0000
  C   C485      1.0  0.24949  0.85620  0.87575  1.0000
  C   C486      1.0  0.24033  0.87776  0.88064  1.0000
  C   C487      1.0  0.21547  0.88106  0.89239  1.0000
  C   C488      1.0  0.19888  0.86280  0.89915  1.0000
  C   C489      1.0  0.20816  0.84119  0.89446  1.0000
  C   C490      1.0  0.23335  0.83787  0.88311  1.0000
  H   H849      1.0  0.25244  0.89213  0.87505  1.0000
  H   H850      1.0  0.20872  0.89779  0.89560  1.0000
  H   H851      1.0  0.19551  0.82689  0.89932  1.0000
  H   H852      1.0  0.23981  0.82117  0.87945  1.0000
  C   C491      1.0  0.48044  0.78241  0.84063  1.0000
  C   C492      1.0  0.02224  0.90858  0.50747  1.0000
  C   C493      1.0  0.99793  0.97663  0.95404  1.0000
  H   H853      1.0  0.28052  0.73340  0.94976  1.0000
  H   H854      1.0  0.39360  0.73465  0.51368  1.0000
  C   C494      1.0  0.21954  0.72570  0.50046  1.0000
  C   C495      1.0  0.46157  0.79322  0.59724  1.0000
  C   C496      1.0  0.46640  0.81570  0.59147  1.0000
  C   C497      1.0  0.39795  0.71653  0.59536  1.0000
  H   H855      1.0  0.44907  0.82673  0.58872  1.0000
  H   H856      1.0  0.44451  0.72989  0.95318  1.0000
  C   C498      1.0  0.00936  0.89551  0.95741  1.0000
  C   C499      1.0  0.00604  0.89574  0.93411  1.0000
  H   H857      1.0  0.02399  0.89449  0.92359  1.0000
  H   H858      1.0  0.40626  0.82099  0.80015  1.0000
  C   C500      1.0  0.45020  0.81444  0.84375  1.0000
  C   C501      1.0  0.45360  0.79151  0.84113  1.0000
  H   H859      1.0  0.39274  0.74932  0.79911  1.0000
  H   H860      1.0  0.40123  0.74172  0.77085  1.0000
  C   C502      1.0  0.26801  0.80071  0.50539  1.0000
  H   H861      1.0  0.01105  0.88067  0.55483  1.0000
  H   H862      1.0  0.46080  0.67627  0.53331  1.0000
  C   C503      1.0  0.45827  0.75178  0.91593  1.0000
  H   H863      1.0  0.39584  0.74873  0.56277  1.0000
  H   H864      1.0  0.45881  0.68559  0.50415  1.0000
  H   H865      1.0  0.37013  0.79605  0.91365  1.0000
  H   H866      1.0  0.15393  0.84081  0.51703  1.0000
  H   H867      1.0  0.45828  0.76191  0.93131  1.0000
  H   H868      1.0  0.26915  0.71313  0.90222  1.0000
  C   C504      1.0  0.40670  0.73374  0.55687  1.0000
  H   H869      1.0  0.45169  0.80177  0.65442  1.0000
  H   H870      1.0  0.26655  0.74199  0.90998  1.0000
  H   H871      1.0  0.00271  0.92745  0.53295  1.0000
  H   H872      1.0  0.36276  0.76249  0.49395  1.0000
  H   H873      1.0  0.40783  0.70911  0.61064  1.0000
  H   H874      1.0  0.03060  0.96628  0.49505  1.0000
  C   C505      1.0  0.40887  0.76286  0.91632  1.0000
  H   H875      1.0  0.19891  0.84165  0.94467  1.0000
  H   H876      1.0  0.41417  0.69275  0.53948  1.0000
  H   H877      1.0  0.43116  0.77814  0.73522  1.0000
  C   C506      1.0  0.24624  0.72400  0.48640  1.0000
  C   C507      1.0  0.00939  0.86326  0.54904  1.0000
  C   C508      1.0  0.41995  0.81215  0.74524  1.0000
  H   H878      1.0  0.45504  0.82285  0.79376  1.0000
  C   C509      1.0  0.25172  0.78479  0.94407  1.0000
  H   H879      1.0  0.22614  0.79694  0.49378  1.0000
  C   C510      1.0  0.42699  0.74133  0.88448  1.0000
  H   H880      1.0  0.03500  0.88739  0.48114  1.0000
  H   H881      1.0  0.34743  0.69643  0.95022  1.0000
  C   C511      1.0  0.19994  0.84323  0.96318  1.0000
  H   H882      1.0  0.43310  0.77213  0.55339  1.0000
  C   C512      1.0  0.47714  0.79831  0.77658  1.0000
  H   H883      1.0  0.40612  0.78375  0.52513  1.0000
  H   H884      1.0  0.07824  0.95202  0.90869  1.0000
  C   C513      1.0  0.38741  0.75188  0.78111  1.0000
  H   H885      1.0  0.30190  0.71452  0.48177  1.0000
  H   H886      1.0  0.47078  0.72200  0.83166  1.0000
  H   H887      1.0  0.41101  0.76566  0.93457  1.0000
  H   H888      1.0  0.39214  0.77962  0.48540  1.0000
  H   H889      1.0  0.04576  0.98191  0.91645  1.0000
  S   S124      1.0  0.12054  0.87072  0.96274  1.0000
  C   C514      1.0  0.20970  0.80279  0.96064  1.0000
  H   H890      1.0  0.28813  0.66434  0.96351  1.0000
  H   H891      1.0  0.43393  0.77380  0.77139  1.0000
  H   H892      1.0  0.25129  0.74086  0.47914  1.0000
  C   C515      1.0  0.46463  0.76920  0.52796  1.0000
  N   N27       1.0  0.42612  0.74016  0.53809  1.0000
  C   C516      1.0  0.25185  0.68440  0.97168  1.0000
  C   C517      1.0  0.39247  0.76948  0.52075  1.0000
  H   H893      1.0  0.01683  0.96296  0.91382  1.0000
  H   H894      1.0  0.39022  0.71870  0.88338  1.0000
  C   C518      1.0  0.42361  0.79822  0.70578  1.0000
  C   C519      1.0  0.41945  0.78577  0.77861  1.0000
  H   H895      1.0  0.42634  0.82917  0.73927  1.0000
  C   C520      1.0  0.24452  0.68393  0.47972  1.0000
  C   C521      1.0  0.25535  0.72568  0.90944  1.0000
  H   H896      1.0  0.42657  0.81560  0.69920  1.0000
  H   H897      1.0  0.15049  0.83226  0.94598  1.0000
  H   H898      1.0  0.48505  0.69436  0.83182  1.0000
  H   H899      1.0  0.45602  0.72529  0.51663  1.0000
  N   N28       1.0  0.24185  0.83600  0.79100  1.0000
  C   C522      1.0  0.22511  0.83817  0.81200  1.0000
  C   C523      1.0  0.25183  0.81229  0.78966  1.0000
  C   C524      1.0  0.26716  0.85089  0.79327  1.0000
  C   C525      1.0  0.22616  0.84289  0.76990  1.0000
  C   C526      1.0  0.19427  0.83916  0.76983  1.0000
  C   C527      1.0  0.21754  0.86243  0.81789  1.0000
  C   C528      1.0  0.28906  0.84909  0.77463  1.0000
  C   C529      1.0  0.22935  0.79374  0.78828  1.0000
  C   C530      1.0  0.24233  0.77060  0.78876  1.0000
  C   C531      1.0  0.18205  0.84268  0.74630  1.0000
  C   C532      1.0  0.19245  0.86296  0.83321  1.0000
  C   C533      1.0  0.30946  0.86877  0.77481  1.0000
  H   H900      1.0  0.23667  0.83101  0.82675  1.0000
  H   H901      1.0  0.20573  0.82814  0.81125  1.0000
  H   H902      1.0  0.26478  0.81028  0.77457  1.0000
  H   H903      1.0  0.26556  0.80825  0.80426  1.0000
  H   H904      1.0  0.27791  0.84742  0.80961  1.0000
  H   H905      1.0  0.26109  0.86873  0.79360  1.0000
  H   H906      1.0  0.22942  0.86101  0.76590  1.0000
  H   H907      1.0  0.23466  0.83425  0.75524  1.0000
  H   H908      1.0  0.18427  0.85124  0.78081  1.0000
  H   H909      1.0  0.18819  0.82224  0.77591  1.0000
  H   H910      1.0  0.23529  0.87038  0.82675  1.0000
  H   H911      1.0  0.21298  0.87284  0.80269  1.0000
  H   H912      1.0  0.27935  0.84863  0.75774  1.0000
  H   H913      1.0  0.30112  0.83361  0.77745  1.0000
  H   H914      1.0  0.21485  0.79414  0.80249  1.0000
  H   H915      1.0  0.21774  0.79541  0.77222  1.0000
  H   H916      1.0  0.25569  0.76867  0.77393  1.0000
  H   H917      1.0  0.25495  0.76789  0.80423  1.0000
  H   H918      1.0  0.22581  0.75756  0.78832  1.0000
  H   H919      1.0  0.15920  0.84054  0.74682  1.0000
  H   H920      1.0  0.18692  0.85978  0.73970  1.0000
  H   H921      1.0  0.19040  0.83026  0.73475  1.0000
  H   H922      1.0  0.17347  0.85749  0.82416  1.0000
  H   H923      1.0  0.19558  0.85187  0.84817  1.0000
  H   H924      1.0  0.18942  0.88021  0.83896  1.0000
  H   H925      1.0  0.31947  0.87010  0.79157  1.0000
  H   H926      1.0  0.32572  0.86633  0.76215  1.0000
  H   H927      1.0  0.29866  0.88461  0.77057  1.0000
  C   C534      1.0  0.39009  0.86342  0.79122  1.0000
  H   H928      1.0  0.38378  0.82105  0.77660  1.0000
  C   C535      1.0  0.41040  0.84996  0.77781  1.0000
  H   H929      1.0  0.36851  0.85924  0.78627  1.0000
  H   H930      1.0  0.39291  0.85989  0.80946  1.0000
  H   H931      1.0  0.39373  0.88154  0.78794  1.0000
  N   N29       1.0  0.06116  0.85398  0.55530  1.0000
  C   C536      1.0  0.06588  0.85363  0.53039  1.0000
  C   C537      1.0  0.06791  0.87712  0.56328  1.0000
  C   C538      1.0  0.07962  0.83678  0.56650  1.0000
  C   C539      1.0  0.03149  0.84840  0.56091  1.0000
  H   H932      1.0  0.05249  0.84896  0.48509  1.0000
  C   C540      1.0  0.05512  0.83264  0.51819  1.0000
  C   C541      1.0  0.08014  0.83635  0.59248  1.0000
  C   C542      1.0  0.09876  0.88452  0.56176  1.0000
  C   C543      1.0  0.10291  0.90842  0.56951  1.0000
  C   C544      1.0  0.47623  0.76436  0.89803  1.0000
  C   C545      1.0  0.23241  0.87513  0.95109  1.0000
  C   C546      1.0  0.10120  0.81954  0.60170  1.0000
  H   H933      1.0  0.08837  0.85474  0.52701  1.0000
  H   H934      1.0  0.05690  0.86862  0.52176  1.0000
  H   H935      1.0  0.05595  0.88974  0.55335  1.0000
  H   H936      1.0  0.06103  0.87910  0.58082  1.0000
  H   H937      1.0  0.10131  0.83883  0.56055  1.0000
  H   H938      1.0  0.07322  0.81972  0.56153  1.0000
  H   H939      1.0  0.02665  0.83061  0.55741  1.0000
  H   H940      1.0  0.02804  0.85000  0.57917  1.0000
  H   H941      1.0  0.48266  0.76470  0.83857  1.0000
  H   H942      1.0  0.17886  0.80618  0.48673  1.0000
  H   H943      1.0  0.06466  0.81728  0.52535  1.0000
  H   H944      1.0  0.03232  0.83085  0.51938  1.0000
  H   H945      1.0  0.05959  0.83134  0.59918  1.0000
  H   H946      1.0  0.08593  0.85285  0.59917  1.0000
  H   H947      1.0  0.11227  0.87365  0.57235  1.0000
  H   H948      1.0  0.10607  0.88407  0.54431  1.0000
  H   H949      1.0  0.12512  0.91324  0.56811  1.0000
  H   H950      1.0  0.09068  0.92021  0.55880  1.0000
  H   H951      1.0  0.13781  0.82973  0.49211  1.0000
  H   H952      1.0  0.43154  0.85521  0.78304  1.0000
  C   C547      1.0  0.14908  0.81569  0.95457  1.0000
  H   H953      1.0  0.20102  0.80363  0.94333  1.0000
  C   C548      1.0  0.39831  0.73414  0.87507  1.0000
  C   C549      1.0  0.41184  0.78615  0.90477  1.0000
  C   C550      1.0  0.40007  0.72930  0.85014  1.0000
  H   H954      1.0  0.10099  0.81930  0.62030  1.0000
  H   H955      1.0  0.09608  0.80248  0.59599  1.0000
  H   H956      1.0  0.12240  0.82429  0.59614  1.0000
  C   C551      1.0  0.15283  0.82628  0.50596  1.0000
  H   H957      1.0  0.43671  0.68900  0.95235  1.0000
  H   H958      1.0  0.08493  0.83521  0.49093  1.0000
  H   H959      1.0  0.39002  0.72240  0.55084  1.0000
  C   C552      1.0  0.42703  0.69913  0.52537  1.0000
  H   H960      1.0  0.36575  0.74602  0.77838  1.0000
  H   H961      1.0  0.33528  0.66378  0.54420  1.0000
  C   C553      1.0  0.38985  0.77657  0.77421  1.0000
  H   H962      1.0  0.01166  0.86356  0.53063  1.0000
  H   H963      1.0  0.23536  0.70169  0.93124  1.0000
  C   C554      1.0  0.22285  0.74342  0.51823  1.0000
  C   C555      1.0  0.01775  0.89288  0.49087  1.0000
  C   C556      1.0  0.47407  0.82808  0.84542  1.0000
  H   H964      1.0  0.45289  0.77560  0.51315  1.0000
  H   H965      1.0  0.37906  0.72528  0.84351  1.0000
  C   C557      1.0  0.19275  0.84152  0.48244  1.0000
  H   H966      1.0  0.42216  0.74971  0.50289  1.0000
  H   H967      1.0  0.23115  0.73034  0.93868  1.0000
  H   H968      1.0  0.20375  0.74401  0.52835  1.0000
  H   H969      1.0  0.21480  0.70969  0.50943  1.0000
  H   H970      1.0  0.26135  0.68217  0.49255  1.0000
  H   H971      1.0  0.41358  0.71477  0.84751  1.0000
  H   H972      1.0  0.38319  0.74768  0.87700  1.0000
  H   H973      1.0  0.39733  0.81120  0.74149  1.0000
  H   H974      1.0  0.48098  0.76170  0.60496  1.0000
  H   H975      1.0  0.37468  0.78565  0.78418  1.0000
  H   H976      1.0  0.38402  0.77814  0.75624  1.0000
  C   C558      1.0  0.39171  0.80254  0.91472  1.0000
  H   H977      1.0  0.38718  0.75694  0.91390  1.0000
  H   H978      1.0  0.39966  0.69289  0.95217  1.0000
  H   H979      1.0  0.24050  0.73945  0.52970  1.0000
  C   C559      1.0  0.27137  0.71632  0.94909  1.0000
  H   H980      1.0  0.09665  0.90984  0.58723  1.0000
  H   H981      1.0  0.39954  0.71882  0.91812  1.0000
  C   C560      1.0  0.43459  0.79578  0.72985  1.0000
  H   H982      1.0  0.40119  0.79383  0.70495  1.0000
  H   H983      1.0  0.38667  0.73167  0.60016  1.0000
  H   H984      1.0  0.03422  0.93981  0.94650  1.0000
  C   C561      1.0  0.99947  0.91555  0.51986  1.0000
  S   S125      1.0  0.12067  0.88017  0.49793  1.0000
  H   H985      1.0  0.47105  0.70524  0.85720  1.0000
  H   H986      1.0  0.43275  0.79327  0.90765  1.0000
  C   C562      1.0  0.04163  0.95743  0.94470  1.0000
  H   H987      1.0  0.40735  0.85473  0.75989  1.0000
  N   N30       1.0  0.42520  0.80933  0.77012  1.0000
  H   H988      1.0  0.42325  0.78464  0.79706  1.0000
  C   C563      1.0  0.45444  0.81640  0.77639  1.0000
  C   C564      1.0  0.48444  0.77914  0.60059  1.0000
  H   H989      1.0  0.22635  0.76011  0.51024  1.0000
  C   C565      1.0  0.05586  0.94962  0.90490  1.0000
  Fe  Fe63      1.0  0.35171  0.65150  0.48230  1.0000
  C   C566      1.0  0.26662  0.66693  0.95747  1.0000
  H   H990      1.0  0.47044  0.73663  0.92060  1.0000
  H   H991      1.0  0.40754  0.78537  0.88651  1.0000
  C   C567      1.0  0.44518  0.75857  0.54593  1.0000
  H   H992      1.0  0.06420  0.95664  0.94852  1.0000
  H   H993      1.0  0.44212  0.72836  0.88009  1.0000
  C   C568      1.0  0.44337  0.72065  0.53152  1.0000
  C   C569      1.0  0.11855  0.81055  0.95920  1.0000
  H   H994      1.0  0.40837  0.74403  0.84060  1.0000
  H   H995      1.0  0.43428  0.66535  0.51502  1.0000
  H   H996      1.0  0.24677  0.76861  0.95266  1.0000
  H   H997      1.0  0.23004  0.68570  0.96564  1.0000
  Fe  Fe64      1.0  0.14551  0.93772  0.47571  1.0000
  N   N31       1.0  0.42887  0.74537  0.90930  1.0000
  H   H998      1.0  0.24210  0.78513  0.92707  1.0000
  C   C570      1.0  0.42002  0.72256  0.57801  1.0000
  H   H999      1.0  0.43285  0.75655  0.87458  1.0000
  H   H1000     1.0  0.27092  0.78251  0.50834  1.0000
  C   C571      1.0  0.46200  0.81846  0.65416  1.0000
  H   H1001     1.0  0.45863  0.71629  0.54499  1.0000
  H   H1002     1.0  0.21373  0.88497  0.94678  1.0000
  C   C572      1.0  0.99100  0.88375  0.48729  1.0000
  H   H1003     1.0  0.47363  0.78610  0.79064  1.0000
  H   H1004     1.0  0.11592  0.79322  0.96598  1.0000
  H   H1005     1.0  0.43069  0.70694  0.57399  1.0000
  H   H1006     1.0  0.39305  0.81880  0.90536  1.0000
  H   H1007     1.0  0.41323  0.70228  0.51070  1.0000
  H   H1008     1.0  0.38283  0.70425  0.58860  1.0000
  H   H1009     1.0  0.44712  0.83088  0.66013  1.0000
  C   C573      1.0  0.24617  0.71800  0.93285  1.0000
  H   H1010     1.0  0.45709  0.79957  0.72948  1.0000
  H   H1011     1.0  0.46148  0.83060  0.76534  1.0000
  H   H1012     1.0  0.26214  0.80813  0.52150  1.0000
  H   H1013     1.0  0.22489  0.68164  0.48905  1.0000
  C   C574      1.0  0.02590  0.97729  0.48023  1.0000
  H   H1014     1.0  0.47180  0.84586  0.84737  1.0000
  C   C575      1.0  0.03865  0.96447  0.91958  1.0000
  H   H1015     1.0  0.45880  0.75237  0.55983  1.0000
  H   H1016     1.0  0.26730  0.67221  0.93953  1.0000
  H   H1017     1.0  0.46535  0.77838  0.88954  1.0000
  S   S126      1.0  0.33169  0.65604  0.92667  1.0000
  H   H1018     1.0  0.23699  0.72761  0.89824  1.0000
  C   C576      1.0  0.37719  0.77603  0.49906  1.0000
  H   H1019     1.0  0.15620  0.80300  0.94286  1.0000
  H   H1020     1.0  0.20142  0.73025  0.48982  1.0000
  S   S127      1.0  0.16742  0.91181  0.95996  1.0000
  H   H1021     1.0  0.24215  0.83887  0.49851  1.0000
  C   C577      1.0  0.24223  0.83008  0.48230  1.0000
  H   H1022     1.0  0.20414  0.78581  0.96721  1.0000
  N   N32       1.0  0.02742  0.97210  0.96110  1.0000
  C   C578      1.0  0.18134  0.82143  0.49658  1.0000
  C   C579      1.0  0.42399  0.72367  0.94746  1.0000
  H   H1023     1.0  0.10638  0.81230  0.94338  1.0000
  C   C580      1.0  0.42140  0.72369  0.92150  1.0000
  H   H1024     1.0  0.05006  0.93176  0.90770  1.0000
  H   H1025     1.0  0.46668  0.80220  0.54249  1.0000
  H   H1026     1.0  0.36497  0.79130  0.50169  1.0000
  H   H1027     1.0  0.47734  0.78904  0.76085  1.0000
  H   H1028     1.0  0.19546  0.81802  0.51105  1.0000
  H   H1029     1.0  0.14525  0.81161  0.51596  1.0000
  C   C581      1.0  0.44659  0.68052  0.51913  1.0000
  N   N33       1.0  0.26556  0.70713  0.97237  1.0000
  C   C582      1.0  0.48278  0.70959  0.84179  1.0000
  H   H1030     1.0  0.11020  0.82229  0.97142  1.0000
  H   H1031     1.0  0.05220  0.95416  0.88698  1.0000
  H   H1032     1.0  0.18218  0.85410  0.96720  1.0000
  H   H1033     1.0  0.25460  0.87332  0.48031  1.0000
  H   H1034     1.0  0.40779  0.73426  0.95457  1.0000
  H   H1035     1.0  0.46747  0.82317  0.63668  1.0000
  C   C583      1.0  0.22609  0.85736  0.96920  1.0000
  H   H1036     1.0  0.22012  0.88328  0.48299  1.0000
  C   C584      1.0  0.48094  0.78895  0.53729  1.0000
  H   H1037     1.0  0.23983  0.86713  0.93576  1.0000
  H   H1038     1.0  0.05428  0.81898  0.48486  1.0000
  C   C585      1.0  0.24144  0.80422  0.95767  1.0000
  H   H1039     1.0  0.27453  0.78618  0.94212  1.0000
  C   C586      1.0  0.41987  0.70014  0.95751  1.0000
  H   H1040     1.0  0.19739  0.85460  0.49475  1.0000
  H   H1041     1.0  0.24887  0.88668  0.95708  1.0000
  H   H1042     1.0  0.28805  0.80821  0.49991  1.0000
  H   H1043     1.0  0.48229  0.75261  0.88496  1.0000
  S   S128      1.0  0.04220  0.89256  0.97092  1.0000
  H   H1044     1.0  0.24714  0.81975  0.94818  1.0000
  C   C587      1.0  0.24547  0.80476  0.48759  1.0000
  H   H1045     1.0  0.48128  0.81605  0.68662  1.0000
  H   H1046     1.0  0.24496  0.84730  0.97144  1.0000
  H   H1047     1.0  0.98798  0.87111  0.47489  1.0000
  H   H1048     1.0  0.98809  0.94392  0.93929  1.0000
  H   H1049     1.0  0.25253  0.80364  0.97400  1.0000
  Fe  Fe65      1.0  0.62895  0.26754  0.09875  1.0000
  S   S129      1.0  0.62233  0.24224  0.07240  1.0000
  H   H1050     1.0  0.60407  0.29031  0.25045  1.0000
  Fe  Fe66      1.0  0.63353  0.23145  0.13656  1.0000
  S   S130      1.0  0.62749  0.20389  0.11154  1.0000
  S   S131      1.0  0.63248  0.21914  0.17366  1.0000
  Fe  Fe67      1.0  0.65742  0.22308  0.08909  1.0000
  S   S132      1.0  0.69159  0.21169  0.06473  1.0000
  Fe  Fe68      1.0  0.59325  0.22526  0.09688  1.0000
  S   S133      1.0  0.55051  0.21405  0.08382  1.0000
  S   S134      1.0  0.66538  0.24966  0.11489  1.0000
  S   S135      1.0  0.59799  0.25156  0.12243  1.0000
  Fe  Fe69      1.0  0.81323  0.13263  0.00694  1.0000
  H   H1051     1.0  0.90969  0.02115  0.43932  1.0000
  S   S136      1.0  0.78082  0.13886  0.03451  1.0000
  Fe  Fe70      1.0  0.87595  0.13555  0.99593  1.0000
  S   S137      1.0  0.91704  0.15026  0.00917  1.0000
  C   C588      1.0  0.56277  0.15615  0.13004  1.0000
  H   H1052     1.0  0.83732  0.19819  0.12690  1.0000
  H   H1053     1.0  0.56616  0.17067  0.20152  1.0000
  S   S138      1.0  0.84038  0.15958  0.99147  1.0000
  S   S139      1.0  0.84965  0.10952  0.01398  1.0000
  Fe  Fe71      1.0  0.64638  0.24426  0.30819  1.0000
  S   S140      1.0  0.64508  0.20903  0.32266  1.0000
  S   S141      1.0  0.65611  0.25693  0.27222  1.0000
  Fe  Fe72      1.0  0.63105  0.26416  0.35378  1.0000
  S   S142      1.0  0.62779  0.23024  0.37040  1.0000
  S   S143      1.0  0.61618  0.29291  0.37457  1.0000
  Fe  Fe73      1.0  0.66777  0.22244  0.35316  1.0000
  S   S144      1.0  0.70396  0.21135  0.37680  1.0000
  Fe  Fe74      1.0  0.60551  0.22001  0.33904  1.0000
  S   S145      1.0  0.56498  0.19997  0.33830  1.0000
  S   S146      1.0  0.67155  0.25720  0.33755  1.0000
  S   S147      1.0  0.60614  0.25431  0.32347  1.0000
  S   S148      1.0  0.86435  0.15761  0.44447  1.0000
  C   C589      1.0  0.62784  0.31638  0.06314  1.0000
  S   S149      1.0  0.85631  0.10436  0.43907  1.0000
  C   C590      1.0  0.81631  0.10338  0.08215  1.0000
  Fe  Fe75      1.0  0.89221  0.12774  0.44629  1.0000
  S   S150      1.0  0.62381  0.30481  0.09065  1.0000
  Fe  Fe76      1.0  0.82799  0.13429  0.44076  1.0000
  S   S151      1.0  0.79222  0.13879  0.41467  1.0000
  H   H1054     1.0  0.56053  0.25393  0.17869  1.0000
  C   C591      1.0  0.96954  0.12593  0.42741  1.0000
  H   H1055     1.0  0.52984  0.19661  0.19017  1.0000
  H   H1056     1.0  0.82080  0.08724  0.09093  1.0000
  H   H1057     1.0  0.97084  0.11969  0.39218  1.0000
  H   H1058     1.0  0.53476  0.23245  0.28423  1.0000
  H   H1059     1.0  0.57518  0.21602  0.18878  1.0000
  C   C592      1.0  0.56364  0.17778  0.14391  1.0000
  H   H1060     1.0  0.57226  0.22006  0.15873  1.0000
  C   C593      1.0  0.85673  0.01063  0.45926  1.0000
  C   C594      1.0  0.96156  0.24245  0.43782  1.0000
  C   C595      1.0  0.59112  0.28555  0.26512  1.0000
  N   N34       1.0  0.69968  0.29416  0.45107  1.0000
  H   H1061     1.0  0.49694  0.14715  0.14617  1.0000
  C   C596      1.0  0.76542  0.02279  0.46400  1.0000
  C   C597      1.0  0.57448  0.17045  0.18419  1.0000
  C   C598      1.0  0.53225  0.21293  0.34117  1.0000
  C   C599      1.0  0.50771  0.20066  0.33715  1.0000
  C   C600      1.0  0.53021  0.23505  0.34779  1.0000
  H   H1062     1.0  0.50903  0.18350  0.33215  1.0000
  H   H1063     1.0  0.54882  0.24469  0.35107  1.0000
  C   C601      1.0  0.72888  0.19112  0.38673  1.0000
  C   C602      1.0  0.74632  0.19620  0.40506  1.0000
  C   C603      1.0  0.76582  0.18063  0.41380  1.0000
  C   C604      1.0  0.76817  0.15954  0.40444  1.0000
  C   C605      1.0  0.75057  0.15444  0.38623  1.0000
  C   C606      1.0  0.73124  0.17004  0.37741  1.0000
  H   H1064     1.0  0.74480  0.21234  0.41257  1.0000
  H   H1065     1.0  0.77903  0.18493  0.42781  1.0000
  H   H1066     1.0  0.75213  0.13830  0.37870  1.0000
  H   H1067     1.0  0.71839  0.16575  0.36324  1.0000
  C   C607      1.0  0.95208  0.14343  0.00335  1.0000
  C   C608      1.0  0.65440  0.30372  0.47142  1.0000
  H   H1068     1.0  0.63709  0.30854  0.27540  1.0000
  H   H1069     1.0  0.73794  0.30842  0.46366  1.0000
  H   H1070     1.0  0.52986  0.24327  0.16489  1.0000
  C   C609      1.0  0.92122  0.18630  0.39756  1.0000
  H   H1071     1.0  0.54155  0.15328  0.12335  1.0000
  H   H1072     1.0  0.55259  0.19059  0.13350  1.0000
  H   H1073     1.0  0.93913  0.17611  0.39277  1.0000
  H   H1074     1.0  0.89396  0.19207  0.99209  1.0000
  C   C610      1.0  0.63723  0.30354  0.04567  1.0000
  H   H1075     1.0  0.85925  0.00656  0.44188  1.0000
  H   H1076     1.0  0.53459  0.23900  0.19478  1.0000
  C   C611      1.0  0.65453  0.14304  0.41779  1.0000
  H   H1077     1.0  0.64227  0.28620  0.04881  1.0000
  H   H1078     1.0  0.80101  0.21477  0.03896  1.0000
  C   C612      1.0  0.53998  0.19812  0.17351  1.0000
  C   C613      1.0  0.51683  0.21515  0.09559  1.0000
  C   C614      1.0  0.51236  0.22197  0.11744  1.0000
  H   H1079     1.0  0.55901  0.30133  0.14782  1.0000
  H   H1080     1.0  0.52978  0.22734  0.12750  1.0000
  H   H1081     1.0  0.52277  0.26032  0.27790  1.0000
  C   C615      1.0  0.63817  0.23053  0.20085  1.0000
  C   C616      1.0  0.64932  0.25192  0.20395  1.0000
  C   C617      1.0  0.65439  0.25970  0.22582  1.0000
  C   C618      1.0  0.64819  0.24638  0.24500  1.0000
  C   C619      1.0  0.63642  0.22518  0.24191  1.0000
  C   C620      1.0  0.63162  0.21732  0.22004  1.0000
  H   H1082     1.0  0.65461  0.26232  0.18949  1.0000
  H   H1083     1.0  0.66356  0.27608  0.22785  1.0000
  H   H1084     1.0  0.63158  0.21465  0.25636  1.0000
  H   H1085     1.0  0.62310  0.20073  0.21800  1.0000
  C   C621      1.0  0.75609  0.15944  0.04237  1.0000
  C   C622      1.0  0.75177  0.17938  0.03005  1.0000
  C   C623      1.0  0.73217  0.19505  0.03718  1.0000
  C   C624      1.0  0.71640  0.19119  0.05672  1.0000
  C   C625      1.0  0.72090  0.17132  0.06910  1.0000
  C   C626      1.0  0.74054  0.15568  0.06201  1.0000
  H   H1086     1.0  0.76339  0.18268  0.01493  1.0000
  H   H1087     1.0  0.72903  0.21026  0.02738  1.0000
  H   H1088     1.0  0.70913  0.16794  0.08413  1.0000
  H   H1089     1.0  0.74355  0.14043  0.07178  1.0000
  H   H1090     1.0  0.52205  0.15736  0.18736  1.0000
  H   H1091     1.0  0.57934  0.14277  0.09967  1.0000
  H   H1092     1.0  0.53597  0.14192  0.16607  1.0000
  H   H1093     1.0  0.95011  0.98562  0.44694  1.0000
  H   H1094     1.0  0.60401  0.15844  0.11585  1.0000
  C   C627      1.0  0.95910  0.12439  0.99173  1.0000
  H   H1095     1.0  0.92052  0.17119  0.43004  1.0000
  H   H1096     1.0  0.70015  0.25799  0.42108  1.0000
  C   C628      1.0  0.66957  0.10322  0.42637  1.0000
  C   C629      1.0  0.97357  0.15760  0.01082  1.0000
  H   H1097     1.0  0.50630  0.28510  0.10545  1.0000
  H   H1098     1.0  0.56928  0.28386  0.25941  1.0000
  H   H1099     1.0  0.73796  0.25738  0.44621  1.0000
  H   H1100     1.0  0.54948  0.27310  0.14138  1.0000
  C   C630      1.0  0.93811  0.17759  0.47015  1.0000
  H   H1101     1.0  0.54510  0.17029  0.37874  1.0000
  H   H1102     1.0  0.59123  0.18333  0.18342  1.0000
  H   H1103     1.0  0.55739  0.14208  0.38095  1.0000
  H   H1104     1.0  0.57530  0.13366  0.18189  1.0000
  C   C631      1.0  0.58212  0.15774  0.11005  1.0000
  C   C632      1.0  0.98584  0.12959  0.44673  1.0000
  N   N35       1.0  0.63767  0.15979  0.40417  1.0000
  C   C633      1.0  0.60791  0.15202  0.40221  1.0000
  S   S152      1.0  0.93258  0.12577  0.42652  1.0000
  C   C634      1.0  0.63789  0.18158  0.41642  1.0000
  C   C635      1.0  0.65033  0.16436  0.38148  1.0000
  C   C636      1.0  0.65212  0.14429  0.36586  1.0000
  C   C637      1.0  0.58831  0.16772  0.38853  1.0000
  C   C638      1.0  0.66631  0.18926  0.42624  1.0000
  C   C639      1.0  0.64749  0.11789  0.41512  1.0000
  H   H1105     1.0  0.94609  0.22745  0.40735  1.0000
  C   C640      1.0  0.65833  0.15191  0.34181  1.0000
  C   C641      1.0  0.55858  0.15872  0.38866  1.0000
  C   C642      1.0  0.66676  0.21418  0.43102  1.0000
  H   H1106     1.0  0.59908  0.14939  0.41926  1.0000
  H   H1107     1.0  0.60616  0.13554  0.39433  1.0000
  H   H1108     1.0  0.74771  0.27315  0.47029  1.0000
  H   H1109     1.0  0.64576  0.11313  0.39744  1.0000
  H   H1110     1.0  0.62328  0.18073  0.43074  1.0000
  H   H1111     1.0  0.63025  0.19534  0.40522  1.0000
  H   H1112     1.0  0.63944  0.17818  0.37239  1.0000
  H   H1113     1.0  0.67181  0.17077  0.38334  1.0000
  H   H1114     1.0  0.63258  0.13449  0.36530  1.0000
  H   H1115     1.0  0.66927  0.13331  0.37166  1.0000
  H   H1116     1.0  0.58799  0.18469  0.39544  1.0000
  H   H1117     1.0  0.59482  0.16908  0.37079  1.0000
  H   H1118     1.0  0.68352  0.18594  0.41487  1.0000
  H   H1119     1.0  0.50699  0.31618  0.07925  1.0000
  H   H1120     1.0  0.50287  0.23301  0.25140  1.0000
  H   H1121     1.0  0.51124  0.31035  0.05080  1.0000
  H   H1122     1.0  0.89593  0.17271  0.37078  1.0000
  H   H1123     1.0  0.97586  0.13162  0.46262  1.0000
  C   C643      1.0  0.49385  0.20873  0.08250  1.0000
  H   H1124     1.0  0.66252  0.13719  0.33155  1.0000
  H   H1125     1.0  0.64020  0.16071  0.33436  1.0000
  H   H1126     1.0  0.67670  0.16324  0.34116  1.0000
  H   H1127     1.0  0.65782  0.28581  0.44089  1.0000
  H   H1128     1.0  0.55061  0.15743  0.40602  1.0000
  H   H1129     1.0  0.85608  0.04635  0.45224  1.0000
  N   N36       1.0  0.94425  0.20173  0.43366  1.0000
  C   C644      1.0  0.90456  0.20616  0.98312  1.0000
  H   H1130     1.0  0.65194  0.14574  0.43603  1.0000
  N   N37       1.0  0.52835  0.28535  0.07398  1.0000
  C   C645      1.0  0.55613  0.27784  0.06593  1.0000
  C   C646      1.0  0.81960  0.02215  0.98675  1.0000
  C   C647      1.0  0.56024  0.27865  0.04009  1.0000
  C   C648      1.0  0.58973  0.14817  0.18141  1.0000
  H   H1131     1.0  0.89380  0.15708  0.39687  1.0000
  C   C649      1.0  0.55971  0.25544  0.02999  1.0000
  H   H1132     1.0  0.56056  0.26068  0.07255  1.0000
  H   H1133     1.0  0.57321  0.28782  0.07320  1.0000
  H   H1134     1.0  0.53179  0.26408  0.10362  1.0000
  C   C650      1.0  0.62396  0.30713  0.29062  1.0000
  C   C651      1.0  0.97186  0.19136  0.42875  1.0000
  H   H1135     1.0  0.64891  0.30328  0.01099  1.0000
  N   N38       1.0  0.55192  0.17597  0.16731  1.0000
  H   H1136     1.0  0.50850  0.24422  0.30122  1.0000
  H   H1137     1.0  0.92069  0.23177  0.42753  1.0000
  H   H1138     1.0  0.80978  0.09995  0.06465  1.0000
  H   H1139     1.0  0.57680  0.24518  0.03714  1.0000
  H   H1140     1.0  0.53984  0.24655  0.03328  1.0000
  H   H1141     1.0  0.72400  0.30460  0.31353  1.0000
  N   N39       1.0  0.85813  0.15901  0.07287  1.0000
  C   C652      1.0  0.83690  0.14074  0.06933  1.0000
  C   C653      1.0  0.85305  0.17760  0.05576  1.0000
  C   C654      1.0  0.88623  0.14944  0.06821  1.0000
  C   C655      1.0  0.85813  0.16766  0.09641  1.0000
  C   C656      1.0  0.82993  0.16758  0.10871  1.0000
  C   C657      1.0  0.84214  0.11837  0.08227  1.0000
  C   C658      1.0  0.91098  0.16623  0.06808  1.0000
  C   C659      1.0  0.82524  0.19000  0.05730  1.0000
  C   C660      1.0  0.82057  0.20553  0.03691  1.0000
  C   C661      1.0  0.83204  0.18035  0.13046  1.0000
  H   H1142     1.0  0.98272  0.05482  0.46231  1.0000
  C   C662      1.0  0.93865  0.15412  0.06926  1.0000
  H   H1143     1.0  0.83570  0.13675  0.05128  1.0000
  H   H1144     1.0  0.81580  0.14625  0.07339  1.0000
  H   H1145     1.0  0.86918  0.19088  0.05700  1.0000
  H   H1146     1.0  0.85472  0.17101  0.03856  1.0000
  H   H1147     1.0  0.88600  0.14114  0.05170  1.0000
  H   H1148     1.0  0.89138  0.13614  0.08089  1.0000
  H   H1149     1.0  0.87234  0.15775  0.10750  1.0000
  H   H1150     1.0  0.86670  0.18501  0.09645  1.0000
  H   H1151     1.0  0.82331  0.15024  0.11316  1.0000
  H   H1152     1.0  0.81319  0.17514  0.09840  1.0000
  H   H1153     1.0  0.85888  0.10914  0.07407  1.0000
  H   H1154     1.0  0.84848  0.12115  0.09988  1.0000
  H   H1155     1.0  0.91019  0.17753  0.08244  1.0000
  H   H1156     1.0  0.91078  0.17650  0.05230  1.0000
  H   H1157     1.0  0.80729  0.17841  0.05815  1.0000
  H   H1158     1.0  0.82546  0.20051  0.07230  1.0000
  H   H1159     1.0  0.97814  0.27614  0.43390  1.0000
  H   H1160     1.0  0.61332  0.29348  0.45971  1.0000
  H   H1161     1.0  0.83788  0.21779  0.03508  1.0000
  H   H1162     1.0  0.67270  0.31123  0.37078  1.0000
  H   H1163     1.0  0.56867  0.29477  0.10861  1.0000
  H   H1164     1.0  0.81181  0.17954  0.13912  1.0000
  H   H1165     1.0  0.95592  0.16643  0.06761  1.0000
  C   C663      1.0  0.52732  0.28184  0.09910  1.0000
  H   H1166     1.0  0.50594  0.27272  0.04529  1.0000
  H   H1167     1.0  0.94015  0.14219  0.05543  1.0000
  C   C664      1.0  0.63420  0.31488  0.38790  1.0000
  H   H1168     1.0  0.94099  0.14486  0.08552  1.0000
  H   H1169     1.0  0.52351  0.20316  0.16140  1.0000
  H   H1170     1.0  0.87629  0.18350  0.39347  1.0000
  C   C665      1.0  0.94226  0.22574  0.42557  1.0000
  H   H1171     1.0  0.54100  0.31456  0.11104  1.0000
  H   H1172     1.0  0.94463  0.27207  0.42094  1.0000
  H   H1173     1.0  0.92058  0.21001  0.46294  1.0000
  H   H1174     1.0  0.73432  0.29173  0.42858  1.0000
  H   H1175     1.0  0.62742  0.11379  0.42327  1.0000
  H   H1176     1.0  0.73706  0.26851  0.39445  1.0000
  H   H1177     1.0  0.98233  0.23535  0.44118  1.0000
  H   H1178     1.0  0.94412  0.19072  0.98069  1.0000
  H   H1179     1.0  0.97376  0.20107  0.39257  1.0000
  C   C666      1.0  0.50665  0.27020  0.06379  1.0000
  H   H1180     1.0  0.50279  0.26167  0.35603  1.0000
  C   C667      1.0  0.49403  0.23367  0.26843  1.0000
  C   C668      1.0  0.51632  0.24335  0.28386  1.0000
  H   H1181     1.0  0.92220  0.20277  0.38872  1.0000
  H   H1182     1.0  0.48967  0.21635  0.27448  1.0000
  H   H1183     1.0  0.90055  0.19582  0.42791  1.0000
  H   H1184     1.0  0.80832  0.03403  0.99632  1.0000
  H   H1185     1.0  0.77748  0.02408  0.44831  1.0000
  H   H1186     1.0  0.49699  0.20347  0.06555  1.0000
  C   C669      1.0  0.50402  0.24464  0.35062  1.0000
  H   H1187     1.0  0.63006  0.29111  0.29900  1.0000
  H   H1188     1.0  0.66622  0.31444  0.43781  1.0000
  H   H1189     1.0  0.71531  0.28994  0.38181  1.0000
  H   H1190     1.0  0.96847  0.17234  0.01989  1.0000
  C   C670      1.0  0.71139  0.29326  0.42782  1.0000
  C   C671      1.0  0.70265  0.27208  0.46359  1.0000
  C   C672      1.0  0.85493  0.03327  0.46508  1.0000
  H   H1191     1.0  0.80644  0.98428  0.44976  1.0000
  H   H1192     1.0  0.76374  0.05896  0.46509  1.0000
  H   H1193     1.0  0.67722  0.29608  0.30031  1.0000
  H   H1194     1.0  0.94292  0.11324  0.98594  1.0000
  H   H1195     1.0  0.51226  0.25239  0.06675  1.0000
  H   H1196     1.0  0.66372  0.22418  0.41526  1.0000
  H   H1197     1.0  0.81859  0.19572  0.02147  1.0000
  C   C673      1.0  0.92079  0.18860  0.42328  1.0000
  H   H1198     1.0  0.50722  0.17516  0.14020  1.0000
  H   H1199     1.0  0.73166  0.98677  0.45096  1.0000
  H   H1200     1.0  0.56254  0.25699  0.01160  1.0000
  H   H1201     1.0  0.95246  0.24653  0.45420  1.0000
  H   H1202     1.0  0.79900  0.11146  0.09077  1.0000
  H   H1203     1.0  0.60234  0.31340  0.33145  1.0000
  H   H1204     1.0  0.68753  0.25954  0.45719  1.0000
  H   H1205     1.0  0.70765  0.30920  0.41841  1.0000
  H   H1206     1.0  0.70559  0.26092  0.38012  1.0000
  H   H1207     1.0  0.57752  0.17273  0.09939  1.0000
  C   C674      1.0  0.52877  0.15891  0.16958  1.0000
  H   H1208     1.0  0.62207  0.12861  0.19774  1.0000
  C   C675      1.0  0.68096  0.31286  0.30724  1.0000
  C   C676      1.0  0.54529  0.23989  0.17842  1.0000
  H   H1209     1.0  0.65033  0.21821  0.44305  1.0000
  H   H1210     1.0  0.62674  0.15833  0.20001  1.0000
  C   C677      1.0  0.56049  0.21816  0.17452  1.0000
  H   H1211     1.0  0.52298  0.29385  0.14402  1.0000
  H   H1212     1.0  0.58085  0.28629  0.03642  1.0000
  C   C678      1.0  0.89518  0.17419  0.38925  1.0000
  H   H1213     1.0  0.56861  0.14112  0.14006  1.0000
  H   H1214     1.0  0.64997  0.30721  0.33262  1.0000
  H   H1215     1.0  0.67704  0.14567  0.41445  1.0000
  H   H1216     1.0  0.84800  0.17291  0.14182  1.0000
  H   H1217     1.0  0.67158  0.10687  0.44446  1.0000
  H   H1218     1.0  0.67737  0.27821  0.40828  1.0000
  H   H1219     1.0  0.54486  0.28933  0.03121  1.0000
  C   C679      1.0  0.69928  0.27472  0.41278  1.0000
  C   C680      1.0  0.64095  0.31330  0.02419  1.0000
  C   C681      1.0  0.93994  0.20114  0.45871  1.0000
  H   H1220     1.0  0.66373  0.08535  0.42478  1.0000
  H   H1221     1.0  0.68994  0.10611  0.41823  1.0000
  C   C682      1.0  0.54429  0.29085  0.13814  1.0000
  H   H1222     1.0  0.58542  0.18415  0.14458  1.0000
  H   H1223     1.0  0.60095  0.14363  0.21677  1.0000
  C   C683      1.0  0.61112  0.14453  0.20018  1.0000
  C   C684      1.0  0.71537  0.27357  0.39098  1.0000
  H   H1224     1.0  0.59784  0.26906  0.27197  1.0000
  H   H1225     1.0  0.95714  0.21015  0.46724  1.0000
  C   C685      1.0  0.54675  0.29676  0.11320  1.0000
  H   H1226     1.0  0.60123  0.14858  0.16543  1.0000
  H   H1227     1.0  0.91725  0.17017  0.46731  1.0000
  H   H1228     1.0  0.74308  0.02154  0.45976  1.0000
  H   H1229     1.0  0.94643  0.02541  0.43563  1.0000
  C   C686      1.0  0.70628  0.31135  0.32278  1.0000
  H   H1230     1.0  0.71766  0.22754  0.47123  1.0000
  H   H1231     1.0  0.68720  0.21885  0.43826  1.0000
  H   H1232     1.0  0.67072  0.18009  0.44227  1.0000
  C   C687      1.0  0.73187  0.26159  0.46342  1.0000
  H   H1233     1.0  0.95365  0.16624  0.46345  1.0000
  H   H1234     1.0  0.98201  0.05616  0.43190  1.0000
  C   C688      1.0  0.50293  0.16307  0.15417  1.0000
  C   C689      1.0  0.96506  0.26431  0.42430  1.0000
  C   C690      1.0  0.93502  0.01100  0.46825  1.0000
  C   C691      1.0  0.59340  0.30313  0.28313  1.0000
  H   H1235     1.0  0.77546  0.99051  0.43481  1.0000
  H   H1236     1.0  0.97536  0.26128  0.40815  1.0000
  H   H1237     1.0  0.97651  0.08087  0.44751  1.0000
  C   C692      1.0  0.93641  0.98618  0.46162  1.0000
  C   C693      1.0  0.98297  0.12264  0.40718  1.0000
  H   H1238     1.0  0.70207  0.30008  0.33743  1.0000
  H   H1239     1.0  0.91284  0.21784  0.99572  1.0000
  Fe  Fe77      1.0  0.84121  0.09508  0.97988  1.0000
  H   H1240     1.0  0.96931  0.17296  0.42737  1.0000
  C   C694      1.0  0.81334  0.99902  0.98897  1.0000
  C   C695      1.0  0.92928  0.02618  0.44777  1.0000
  H   H1241     1.0  0.60291  0.28159  0.99527  1.0000
  C   C696      1.0  0.71538  0.31176  0.46384  1.0000
  C   C697      1.0  0.59936  0.29114  0.97932  1.0000
  C   C698      1.0  0.66936  0.29959  0.44909  1.0000
  H   H1242     1.0  0.68381  0.98901  0.46530  1.0000
  H   H1243     1.0  0.92722  0.04371  0.45305  1.0000
  C   C699      1.0  0.52206  0.30931  0.06735  1.0000
  C   C700      1.0  0.57391  0.30578  0.98133  1.0000
  H   H1244     1.0  0.61807  0.30160  0.97587  1.0000
  C   C701      1.0  0.62366  0.30816  0.46728  1.0000
  H   H1245     1.0  0.79722  0.99344  0.00031  1.0000
  H   H1246     1.0  0.58101  0.29689  0.29762  1.0000
  H   H1247     1.0  0.55583  0.29462  0.98447  1.0000
  H   H1248     1.0  0.57725  0.31620  0.99621  1.0000
  H   H1249     1.0  0.91433  0.16386  0.96284  1.0000
  S   S153      1.0  0.81983  0.16073  0.92640  1.0000
  H   H1250     1.0  0.95471  0.01669  0.47600  1.0000
  S   S154      1.0  0.86666  0.18648  0.49790  1.0000
  C   C702      1.0  0.77015  0.04467  0.47612  1.0000
  Fe  Fe78      1.0  0.84727  0.29159  0.81398  1.0000
  S   S155      1.0  0.84071  0.27678  0.77898  1.0000
  Fe  Fe79      1.0  0.86426  0.27521  0.86178  1.0000
  C   C703      1.0  0.84969  0.02156  0.50377  1.0000
  S   S156      1.0  0.87641  0.25093  0.89032  1.0000
  H   H1251     1.0  0.74792  0.22842  0.93075  1.0000
  S   S157      1.0  0.82304  0.28256  0.84555  1.0000
  S   S158      1.0  0.88782  0.28077  0.82980  1.0000
  Fe  Fe80      1.0  0.84988  0.26557  0.60247  1.0000
  S   S159      1.0  0.86895  0.29185  0.57962  1.0000
  S   S160      1.0  0.84660  0.22871  0.59351  1.0000
  Fe  Fe81      1.0  0.84232  0.29827  0.64134  1.0000
  C   C704      1.0  0.85132  0.03897  0.48741  1.0000
  H   H1252     1.0  0.95857  0.30319  0.57276  1.0000
  C   C705      1.0  0.93311  0.27524  0.76368  1.0000
  S   S161      1.0  0.81416  0.28682  0.61317  1.0000
  S   S162      1.0  0.87582  0.27456  0.63272  1.0000
  H   H1253     1.0  0.95438  0.25528  0.59460  1.0000
  C   C706      1.0  0.83812  0.28686  0.75051  1.0000
  C   C707      1.0  0.84372  0.27217  0.73313  1.0000
  C   C708      1.0  0.84183  0.27917  0.71035  1.0000
  C   C709      1.0  0.83377  0.30093  0.70451  1.0000
  H   H1254     1.0  0.95473  0.28946  0.82839  1.0000
  H   H1255     1.0  0.84942  0.25515  0.73734  1.0000
  H   H1256     1.0  0.84597  0.26754  0.69730  1.0000
  S   S163      1.0  0.82221  0.12988  0.47813  1.0000
  H   H1257     1.0  0.78609  0.21189  0.96943  1.0000
  S   S164      1.0  0.88975  0.12354  0.48357  1.0000
  H   H1258     1.0  0.91791  0.01345  0.48018  1.0000
  H   H1259     1.0  0.84810  0.30048  0.94529  1.0000
  H   H1260     1.0  0.88994  0.17412  0.90592  1.0000
  C   C710      1.0  0.85918  0.19755  0.52449  1.0000
  C   C711      1.0  0.85489  0.18402  0.54364  1.0000
  C   C712      1.0  0.85079  0.19380  0.56459  1.0000
  C   C713      1.0  0.85063  0.21716  0.56662  1.0000
  C   C714      1.0  0.85439  0.23063  0.54739  1.0000
  C   C715      1.0  0.85895  0.22089  0.52654  1.0000
  H   H1261     1.0  0.85509  0.16606  0.54238  1.0000
  H   H1262     1.0  0.84777  0.18319  0.57933  1.0000
  H   H1263     1.0  0.85363  0.24855  0.54860  1.0000
  H   H1264     1.0  0.86197  0.23153  0.51183  1.0000
  H   H1265     1.0  0.89803  0.14163  0.88140  1.0000
  C   C716      1.0  0.85166  0.99889  0.49796  1.0000
  C   C717      1.0  0.96475  0.16871  0.94295  1.0000
  H   H1266     1.0  0.97333  0.18217  0.95350  1.0000
  C   C718      1.0  0.83344  0.18691  0.91709  1.0000
  C   C719      1.0  0.84860  0.20060  0.93141  1.0000
  C   C720      1.0  0.86109  0.22044  0.92303  1.0000
  C   C721      1.0  0.85783  0.22714  0.90043  1.0000
  C   C722      1.0  0.84158  0.21398  0.88632  1.0000
  C   C723      1.0  0.82947  0.19394  0.89464  1.0000
  H   H1267     1.0  0.85095  0.19567  0.94886  1.0000
  H   H1268     1.0  0.87346  0.23062  0.93407  1.0000
  H   H1269     1.0  0.83903  0.21889  0.86887  1.0000
  H   H1270     1.0  0.81753  0.18353  0.88349  1.0000
  C   C724      1.0  0.94624  0.23864  0.58954  1.0000
  C   C725      1.0  0.82818  0.31564  0.72188  1.0000
  H   H1271     1.0  0.75395  0.28827  0.60801  1.0000
  H   H1272     1.0  0.96589  0.19357  0.55392  1.0000
  H   H1273     1.0  0.93768  0.24317  0.78107  1.0000
  C   C726      1.0  0.93868  0.19588  0.91847  1.0000
  H   H1274     1.0  0.90322  0.25425  0.78197  1.0000
  C   C727      1.0  0.94265  0.17862  0.49545  1.0000
  H   H1275     1.0  0.96230  0.18218  0.89033  1.0000
  H   H1276     1.0  0.75037  0.23610  0.86911  1.0000
  H   H1277     1.0  0.75243  0.28073  0.95778  1.0000
  H   H1278     1.0  0.56981  0.30908  0.94544  1.0000
  H   H1279     1.0  0.94127  0.26474  0.52359  1.0000
  H   H1280     1.0  0.75779  0.31209  0.56842  1.0000
  H   H1281     1.0  0.95204  0.19442  0.58186  1.0000
  H   H1282     1.0  0.70927  0.30702  0.95769  1.0000
  N   N40       1.0  0.92085  0.31423  0.74654  1.0000
  C   C728      1.0  0.84042  0.02986  0.97223  1.0000
  C   C729      1.0  0.83054  0.30875  0.74468  1.0000
  H   H1283     1.0  0.96808  0.22360  0.88796  1.0000
  H   H1284     1.0  0.78020  0.23005  0.90180  1.0000
  C   C730      1.0  0.92825  0.19773  0.96899  1.0000
  H   H1285     1.0  0.79890  0.01819  0.93396  1.0000
  H   H1286     1.0  0.89210  0.30002  0.68153  1.0000
  C   C731      1.0  0.77486  0.00254  0.47879  1.0000
  H   H1287     1.0  0.79240  0.04698  0.48038  1.0000
  H   H1288     1.0  0.94055  0.21989  0.63263  1.0000
  H   H1289     1.0  0.70971  0.31110  0.48188  1.0000
  C   C732      1.0  0.82481  0.28206  0.92010  1.0000
  H   H1290     1.0  0.80071  0.24159  0.93357  1.0000
  S   S165      1.0  0.87134  0.31051  0.87225  1.0000
  C   C733      1.0  0.77187  0.24287  0.86888  1.0000
  C   C734      1.0  0.78305  0.24973  0.94159  1.0000
  H   H1291     1.0  0.93010  0.21625  0.53795  1.0000
  N   N41       1.0  0.77366  0.27004  0.92815  1.0000
  H   H1292     1.0  0.79743  0.00483  0.48202  1.0000
  H   H1293     1.0  0.92165  0.17396  0.54172  1.0000
  H   H1294     1.0  0.96245  0.15380  0.95440  1.0000
  S   S166      1.0  0.84779  0.06729  0.49573  1.0000
  H   H1295     1.0  0.96963  0.28414  0.88182  1.0000
  S   S167      1.0  0.84945  0.05896  0.96854  1.0000
  H   H1296     1.0  0.61351  0.31152  0.48341  1.0000
  H   H1297     1.0  0.77221  0.25879  0.85895  1.0000
  H   H1298     1.0  0.93710  0.15129  0.90637  1.0000
  H   H1299     1.0  0.93391  0.24959  0.63345  1.0000
  Fe  Fe82      1.0  0.83214  0.14255  0.95906  1.0000
  C   C735      1.0  0.88577  0.13967  0.89695  1.0000
  C   C736      1.0  0.76598  0.26492  0.90418  1.0000
  C   C737      1.0  0.92564  0.25868  0.78262  1.0000
  N   N42       1.0  0.94348  0.23815  0.56434  1.0000
  S   S168      1.0  0.82944  0.31051  0.67602  1.0000
  C   C738      1.0  0.94423  0.19280  0.89317  1.0000
  C   C739      1.0  0.92382  0.25648  0.55711  1.0000
  C   C740      1.0  0.93127  0.21637  0.55654  1.0000
  C   C741      1.0  0.76044  0.23155  0.94606  1.0000
  C   C742      1.0  0.91949  0.23376  0.60294  1.0000
  C   C743      1.0  0.92097  0.26107  0.53141  1.0000
  C   C744      1.0  0.74841  0.27902  0.93947  1.0000
  H   H1300     1.0  0.93254  0.29143  0.72071  1.0000
  C   C745      1.0  0.74000  0.29142  0.62219  1.0000
  C   C746      1.0  0.92553  0.23319  0.62812  1.0000
  C   C747      1.0  0.90260  0.28117  0.52623  1.0000
  C   C748      1.0  0.97121  0.24309  0.55354  1.0000
  H   H1301     1.0  0.93051  0.26628  0.74779  1.0000
  H   H1302     1.0  0.88043  0.15522  0.92830  1.0000
  H   H1303     1.0  0.98110  0.15179  0.91345  1.0000
  H   H1304     1.0  0.93000  0.27244  0.56497  1.0000
  H   H1305     1.0  0.90258  0.25268  0.56318  1.0000
  H   H1306     1.0  0.90934  0.21460  0.56186  1.0000
  C   C749      1.0  0.92881  0.17417  0.55944  1.0000
  H   H1307     1.0  0.76190  0.01904  0.93044  1.0000
  H   H1308     1.0  0.97462  0.26148  0.55159  1.0000
  H   H1309     1.0  0.90403  0.24693  0.59953  1.0000
  H   H1310     1.0  0.91021  0.21736  0.59874  1.0000
  H   H1311     1.0  0.91147  0.24651  0.52307  1.0000
  Fe  Fe83      1.0  0.89344  0.30182  0.61033  1.0000
  C   C750      1.0  0.78245  0.24637  0.89276  1.0000
  H   H1312     1.0  0.91036  0.17387  0.57039  1.0000
  C   C751      1.0  0.89413  0.15745  0.91363  1.0000
  H   H1313     1.0  0.92896  0.29601  0.67877  1.0000
  H   H1314     1.0  0.65586  0.28899  0.48298  1.0000
  H   H1315     1.0  0.89626  0.29535  0.72299  1.0000
  H   H1316     1.0  0.94090  0.15886  0.56314  1.0000
  H   H1317     1.0  0.97144  0.23654  0.53628  1.0000
  C   C752      1.0  0.84642  0.29956  0.92678  1.0000
  H   H1318     1.0  0.79126  0.25477  0.95825  1.0000
  C   C753      1.0  0.94669  0.19489  0.56380  1.0000
  H   H1319     1.0  0.88127  0.27794  0.53228  1.0000
  H   H1320     1.0  0.91114  0.29635  0.53419  1.0000
  H   H1321     1.0  0.90147  0.28435  0.50784  1.0000
  H   H1322     1.0  0.96490  0.30919  0.74362  1.0000
  C   C754      1.0  0.79596  0.28790  0.92911  1.0000
  H   H1323     1.0  0.97666  0.99034  0.49540  1.0000
  H   H1324     1.0  0.76784  0.28032  0.89334  1.0000
  C   C755      1.0  0.78099  0.01086  0.92478  1.0000
  C   C756      1.0  0.91450  0.29610  0.76388  1.0000
  Fe  Fe84      1.0  0.83401  0.31361  0.59140  1.0000
  H   H1325     1.0  0.88879  0.12270  0.90447  1.0000
  S   S169      1.0  0.86937  0.12046  0.96235  1.0000
  C   C757      1.0  0.85466  0.01392  0.95993  1.0000
  H   H1326     1.0  0.86350  0.14148  0.89250  1.0000
  C   C758      1.0  0.77311  0.20949  0.95420  1.0000
  H   H1327     1.0  0.78525  0.23074  0.86054  1.0000
  H   H1328     1.0  0.83233  0.26577  0.92660  1.0000
  H   H1329     1.0  0.78975  0.30307  0.91920  1.0000
  H   H1330     1.0  0.96416  0.18408  0.49937  1.0000
  H   H1331     1.0  0.75789  0.04489  0.49172  1.0000
  H   H1332     1.0  0.69372  0.29454  0.93319  1.0000
  H   H1333     1.0  0.93122  0.22636  0.88304  1.0000
  H   H1334     1.0  0.78382  0.01442  0.90660  1.0000
  H   H1335     1.0  0.86695  0.29490  0.92033  1.0000
  H   H1336     1.0  0.75641  0.19720  0.95835  1.0000
  H   H1337     1.0  0.95513  0.28003  0.76601  1.0000
  H   H1338     1.0  0.82413  0.28203  0.90153  1.0000
  H   H1339     1.0  0.93071  0.26592  0.79908  1.0000
  C   C759      1.0  0.73791  0.30195  0.93033  1.0000
  H   H1340     1.0  0.89754  0.18473  0.94645  1.0000
  C   C760      1.0  0.97238  0.30050  0.83044  1.0000
  H   H1341     1.0  0.78596  0.20245  0.94090  1.0000
  H   H1342     1.0  0.91907  0.20547  0.91906  1.0000
  H   H1343     1.0  0.93910  0.16176  0.50318  1.0000
  H   H1344     1.0  0.95226  0.21275  0.86298  1.0000
  Fe  Fe85      1.0  0.85997  0.15234  0.48185  1.0000
  H   H1345     1.0  0.92787  0.19033  0.50280  1.0000
  H   H1346     1.0  0.93742  0.21235  0.95988  1.0000
  C   C761      1.0  0.91266  0.30854  0.68138  1.0000
  H   H1347     1.0  0.88921  0.21514  0.97238  1.0000
  H   H1348     1.0  0.80472  0.25060  0.89196  1.0000
  Fe  Fe86      1.0  0.85259  0.10117  0.47645  1.0000
  C   C762      1.0  0.74950  0.31203  0.63487  1.0000
  H   H1349     1.0  0.84677  0.02568  0.52109  1.0000
  H   H1350     1.0  0.73070  0.26705  0.93810  1.0000
  C   C763      1.0  0.70914  0.30703  0.93909  1.0000
  H   H1351     1.0  0.71864  0.29365  0.61550  1.0000
  H   H1352     1.0  0.74380  0.25976  0.90288  1.0000
  Fe  Fe87      1.0  0.89249  0.31636  0.83933  1.0000
  H   H1353     1.0  0.76972  0.30827  0.64299  1.0000
  H   H1354     1.0  0.74015  0.27654  0.63370  1.0000
  H   H1355     1.0  0.92613  0.18489  0.88486  1.0000
  C   C764      1.0  0.91815  0.17948  0.95271  1.0000
  H   H1356     1.0  0.92589  0.13988  0.93228  1.0000
  H   H1357     1.0  0.95492  0.20737  0.92504  1.0000
  H   H1358     1.0  0.93044  0.98902  0.50742  1.0000
  C   C765      1.0  0.92480  0.15520  0.92125  1.0000
  N   N43       1.0  0.93683  0.17499  0.93326  1.0000
  H   H1359     1.0  0.90604  0.22956  0.63731  1.0000
  H   H1360     1.0  0.69729  0.27389  0.48152  1.0000
  C   C766      1.0  0.97189  0.30251  0.60720  1.0000
  H   H1361     1.0  0.74627  0.23701  0.95931  1.0000
  C   C767      1.0  0.97591  0.30100  0.58414  1.0000
  H   H1362     1.0  0.52236  0.30711  0.94266  1.0000
  H   H1363     1.0  0.59643  0.27911  0.96566  1.0000
  H   H1364     1.0  0.73693  0.30259  0.91175  1.0000
  H   H1365     1.0  0.79868  0.29331  0.94672  1.0000
  C   C768      1.0  0.84845  0.99078  0.96219  1.0000
  H   H1366     1.0  0.72191  0.99347  0.49319  1.0000
  H   H1367     1.0  0.73377  0.31464  0.64786  1.0000
  H   H1368     1.0  0.85028  0.98584  0.51078  1.0000
  H   H1369     1.0  0.89279  0.29024  0.76171  1.0000
  C   C769      1.0  0.94929  0.21530  0.88113  1.0000
  H   H1370     1.0  0.96166  0.22649  0.59598  1.0000
  H   H1371     1.0  0.75199  0.31548  0.93602  1.0000
  S   S170      1.0  0.93927  0.30921  0.61868  1.0000
  C   C770      1.0  0.85510  0.99325  0.47559  1.0000
  H   H1372     1.0  0.84092  0.31624  0.91955  1.0000
  H   H1373     1.0  0.76507  0.00425  0.49533  1.0000
  H   H1374     1.0  0.72795  0.24338  0.49542  1.0000
  H   H1375     1.0  0.91546  0.30239  0.78116  1.0000
  H   H1376     1.0  0.87074  0.01954  0.94857  1.0000
  C   C771      1.0  0.91667  0.30423  0.72374  1.0000
  H   H1377     1.0  0.51624  0.30841  0.97166  1.0000
  C   C772      1.0  0.73271  0.24003  0.47768  1.0000
  H   H1378     1.0  0.75374  0.23280  0.47710  1.0000
  C   C773      1.0  0.77953  0.98571  0.92968  1.0000
  S   S171      1.0  0.80325  0.11637  0.97402  1.0000
  C   C774      1.0  0.54041  0.34713  0.98011  1.0000
  S   S172      1.0  0.64089  0.34705  0.99230  1.0000
  H   H1379     1.0  0.66204  0.61612  0.38838  1.0000
  C   C775      1.0  0.56494  0.51579  0.99755  1.0000
  H   H1380     1.0  0.81880  0.63376  0.29872  1.0000
  S   S173      1.0  0.63518  0.60476  0.00935  1.0000
  H   H1381     1.0  0.51005  0.35808  0.40519  1.0000
  Fe  Fe88      1.0  0.60094  0.62697  0.99601  1.0000
  S   S174      1.0  0.55653  0.61528  0.00452  1.0000
  H   H1382     1.0  0.59932  0.46740  0.98247  1.0000
  H   H1383     1.0  0.54383  0.51066  0.99189  1.0000
  C   C776      1.0  0.51933  0.55987  0.44664  1.0000
  C   C777      1.0  0.90538  0.64429  0.04024  1.0000
  S   S175      1.0  0.61626  0.62043  0.42331  1.0000
  H   H1384     1.0  0.72481  0.46567  0.98150  1.0000
  Fe  Fe89      1.0  0.59528  0.63891  0.45065  1.0000
  C   C778      1.0  0.56140  0.37193  0.00970  1.0000
  H   H1385     1.0  0.52850  0.55542  0.46324  1.0000
  H   H1386     1.0  0.64458  0.36066  0.30379  1.0000
  H   H1387     1.0  0.54445  0.36868  0.43419  1.0000
  Fe  Fe90      1.0  0.65980  0.39018  0.45205  1.0000
  S   S176      1.0  0.67609  0.37582  0.41985  1.0000
  C   C779      1.0  0.69305  0.59057  0.38409  1.0000
  C   C780      1.0  0.62050  0.38062  0.26864  1.0000
  S   S177      1.0  0.67842  0.63276  0.97648  1.0000
  H   H1388     1.0  0.50948  0.55659  0.05511  1.0000
  H   H1389     1.0  0.92364  0.59041  0.02494  1.0000
  C   C781      1.0  0.83371  0.63168  0.08797  1.0000
  H   H1390     1.0  0.60678  0.50870  0.98583  1.0000
  C   C782      1.0  0.57294  0.46409  0.47149  1.0000
  C   C783      1.0  0.62169  0.33900  0.05873  1.0000
  H   H1391     1.0  0.61220  0.55024  0.99287  1.0000
  C   C784      1.0  0.64519  0.53638  0.45775  1.0000
  S   S178      1.0  0.66079  0.46493  0.97992  1.0000
  H   H1392     1.0  0.54532  0.57022  0.00170  1.0000
  C   C785      1.0  0.59508  0.54960  0.00518  1.0000
  H   H1393     1.0  0.92064  0.63376  0.08358  1.0000
  C   C786      1.0  0.86257  0.63138  0.07775  1.0000
  H   H1394     1.0  0.48871  0.60707  0.05859  1.0000
  Fe  Fe91      1.0  0.66263  0.63577  0.01167  1.0000
  S   S179      1.0  0.67383  0.62364  0.45288  1.0000
  H   H1395     1.0  0.60799  0.34680  0.26385  1.0000
  C   C787      1.0  0.91510  0.60738  0.02202  1.0000
  H   H1396     1.0  0.68172  0.54552  0.41181  1.0000
  H   H1397     1.0  0.69349  0.57410  0.37619  1.0000
  C   C788      1.0  0.52359  0.62741  0.99887  1.0000
  H   H1398     1.0  0.68537  0.50470  0.41674  1.0000
  C   C789      1.0  0.73124  0.57643  0.44010  1.0000
  H   H1399     1.0  0.51428  0.57798  0.03370  1.0000
  C   C790      1.0  0.51823  0.34481  0.41667  1.0000
  H   H1400     1.0  0.63811  0.53994  0.05205  1.0000
  Fe  Fe92      1.0  0.63673  0.60029  0.45151  1.0000
  H   H1401     1.0  0.50570  0.32431  0.44528  1.0000
  C   C791      1.0  0.67409  0.33959  0.39246  1.0000
  C   C792      1.0  0.65973  0.35228  0.40793  1.0000
  C   C793      1.0  0.51256  0.62458  0.43497  1.0000
  C   C794      1.0  0.63523  0.33596  0.01979  1.0000
  C   C795      1.0  0.54644  0.35266  0.42549  1.0000
  H   H1402     1.0  0.72758  0.36944  0.46174  1.0000
  H   H1403     1.0  0.56598  0.51041  0.01542  1.0000
  H   H1404     1.0  0.65325  0.34473  0.28061  1.0000
  H   H1405     1.0  0.74284  0.58161  0.36890  1.0000
  H   H1406     1.0  0.54139  0.46667  0.44435  1.0000
  C   C796      1.0  0.75290  0.58834  0.40464  1.0000
  H   H1407     1.0  0.57507  0.53795  0.46741  1.0000
  C   C797      1.0  0.58562  0.50158  0.98458  1.0000
  H   H1408     1.0  0.50290  0.59546  0.99635  1.0000
  H   H1409     1.0  0.50418  0.63098  0.08925  1.0000
  C   C798      1.0  0.60943  0.34830  0.33877  1.0000
  H   H1410     1.0  0.56089  0.35539  0.41132  1.0000
  N   N44       1.0  0.56863  0.54076  0.99465  1.0000
  C   C799      1.0  0.49788  0.33946  0.43611  1.0000
  H   H1411     1.0  0.72248  0.50648  0.41533  1.0000
  H   H1412     1.0  0.56680  0.48904  0.44427  1.0000
  H   H1413     1.0  0.59497  0.47653  0.01063  1.0000
  C   C800      1.0  0.63260  0.34609  0.41339  1.0000
  C   C801      1.0  0.62923  0.55006  0.03793  1.0000
  H   H1414     1.0  0.86157  0.61959  0.06378  1.0000
  H   H1415     1.0  0.62455  0.39247  0.28231  1.0000
  H   H1416     1.0  0.53723  0.53037  0.03445  1.0000
  H   H1417     1.0  0.67676  0.50443  0.00327  1.0000
  H   H1418     1.0  0.52311  0.35353  0.05157  1.0000
  H   H1419     1.0  0.61221  0.36473  0.33001  1.0000
  H   H1420     1.0  0.73001  0.61317  0.44367  1.0000
  H   H1421     1.0  0.56533  0.35403  0.34318  1.0000
  C   C802      1.0  0.66151  0.32080  0.38267  1.0000
  H   H1422     1.0  0.63189  0.51762  0.42921  1.0000
  H   H1423     1.0  0.78810  0.59375  0.35372  1.0000
  H   H1424     1.0  0.72477  0.55149  0.38934  1.0000
  C   C803      1.0  0.61245  0.35757  0.27829  1.0000
  S   S180      1.0  0.61032  0.41153  0.97831  1.0000
  H   H1425     1.0  0.57328  0.44547  0.47286  1.0000
  C   C804      1.0  0.50019  0.61331  0.99670  1.0000
  H   H1426     1.0  0.55634  0.55608  0.03922  1.0000
  H   H1427     1.0  0.70346  0.60673  0.41442  1.0000
  C   C805      1.0  0.53908  0.54832  0.02967  1.0000
  C   C806      1.0  0.63633  0.34754  0.29260  1.0000
  N   N45       1.0  0.62987  0.32640  0.30593  1.0000
  Fe  Fe93      1.0  0.63699  0.38111  0.97435  1.0000
  H   H1428     1.0  0.70246  0.53779  0.43602  1.0000
  H   H1429     1.0  0.75169  0.34764  0.46869  1.0000
  H   H1430     1.0  0.58360  0.31851  0.27645  1.0000
  H   H1431     1.0  0.70689  0.60253  0.37496  1.0000
  C   C807      1.0  0.72627  0.55271  0.40778  1.0000
  H   H1432     1.0  0.53815  0.61992  0.05989  1.0000
  H   H1433     1.0  0.59062  0.53228  0.03846  1.0000
  H   H1434     1.0  0.71178  0.64751  0.30210  1.0000
  H   H1435     1.0  0.63926  0.37959  0.25815  1.0000
  C   C808      1.0  0.56348  0.47085  0.44737  1.0000
  C   C809      1.0  0.66362  0.59929  0.38125  1.0000
  H   H1436     1.0  0.58006  0.33361  0.36263  1.0000
  H   H1437     1.0  0.61453  0.34909  0.07217  1.0000
  S   S181      1.0  0.62963  0.41822  0.45500  1.0000
  C   C810      1.0  0.50252  0.63811  0.07195  1.0000
  C   C811      1.0  0.49199  0.54728  0.44314  1.0000
  C   C812      1.0  0.91619  0.62013  0.04382  1.0000
  C   C813      1.0  0.57999  0.45857  0.42998  1.0000
  H   H1438     1.0  0.64618  0.55471  0.02625  1.0000
  H   H1439     1.0  0.56224  0.35815  0.02246  1.0000
  H   H1440     1.0  0.62105  0.36625  0.03408  1.0000
  H   H1441     1.0  0.50761  0.39671  0.45324  1.0000
  H   H1442     1.0  0.62737  0.34544  0.35013  1.0000
  H   H1443     1.0  0.56500  0.46989  0.99339  1.0000
  H   H1444     1.0  0.65806  0.60061  0.36319  1.0000
  H   H1445     1.0  0.59248  0.56736  0.00972  1.0000
  C   C814      1.0  0.51963  0.65049  0.99907  1.0000
  H   H1446     1.0  0.82237  0.64263  0.32722  1.0000
  H   H1447     1.0  0.71866  0.33831  0.43748  1.0000
  H   H1448     1.0  0.55612  0.36131  0.06375  1.0000
  C   C815      1.0  0.56503  0.36260  0.98643  1.0000
  C   C816      1.0  0.66545  0.53313  0.98258  1.0000
  H   H1449     1.0  0.64270  0.48043  0.44654  1.0000
  H   H1450     1.0  0.75053  0.60679  0.40517  1.0000
  H   H1451     1.0  0.94158  0.63922  0.12154  1.0000
  C   C817      1.0  0.60673  0.53657  0.02602  1.0000
  C   C818      1.0  0.60610  0.32931  0.32176  1.0000
  H   H1452     1.0  0.69507  0.34432  0.38810  1.0000
  H   H1453     1.0  0.62048  0.56549  0.04473  1.0000
  C   C819      1.0  0.51260  0.55965  0.03689  1.0000
  H   H1454     1.0  0.59495  0.46945  0.47282  1.0000
  C   C820      1.0  0.50509  0.39826  0.47109  1.0000
  C   C821      1.0  0.51750  0.64209  0.44954  1.0000
  C   C822      1.0  0.61989  0.32758  0.40332  1.0000
  H   H1455     1.0  0.52211  0.35813  0.97877  1.0000
  H   H1456     1.0  0.77232  0.61588  0.36864  1.0000
  H   H1457     1.0  0.71128  0.57173  0.44829  1.0000
  C   C823      1.0  0.62533  0.34877  0.03715  1.0000
  H   H1458     1.0  0.88611  0.64346  0.02985  1.0000
  H   H1459     1.0  0.57328  0.46400  0.41287  1.0000
  H   H1460     1.0  0.49696  0.52924  0.44327  1.0000
  C   C824      1.0  0.64022  0.51657  0.44608  1.0000
  H   H1461     1.0  0.66200  0.33531  0.32989  1.0000
  C   C825      1.0  0.64620  0.49539  0.45589  1.0000
  H   H1462     1.0  0.54146  0.38081  0.01083  1.0000
  H   H1463     1.0  0.53421  0.55557  0.43344  1.0000
  H   H1464     1.0  0.58723  0.36286  0.36604  1.0000
  C   C826      1.0  0.70187  0.53854  0.41745  1.0000
  C   C827      1.0  0.66759  0.50998  0.98750  1.0000
  H   H1465     1.0  0.89339  0.60560  0.01595  1.0000
  H   H1466     1.0  0.52457  0.54662  0.99516  1.0000
  C   C828      1.0  0.53783  0.35001  0.06560  1.0000
  H   H1467     1.0  0.90419  0.61041  0.05646  1.0000
  H   H1468     1.0  0.57854  0.38384  0.01334  1.0000
  H   H1469     1.0  0.57647  0.44024  0.43187  1.0000
  H   H1470     1.0  0.59342  0.35956  0.28814  1.0000
  H   H1471     1.0  0.55546  0.34000  0.43729  1.0000
  H   H1472     1.0  0.67331  0.54511  0.99434  1.0000
  H   H1473     1.0  0.64857  0.58780  0.38974  1.0000
  C   C829      1.0  0.54374  0.55189  0.00424  1.0000
  S   S182      1.0  0.63773  0.56262  0.44408  1.0000
  H   H1474     1.0  0.93815  0.62066  0.04959  1.0000
  H   H1475     1.0  0.53608  0.33548  0.99453  1.0000
  H   H1476     1.0  0.81808  0.63708  0.07521  1.0000
  H   H1477     1.0  0.60332  0.38723  0.25799  1.0000
  H   H1478     1.0  0.61614  0.52074  0.02089  1.0000
  H   H1479     1.0  0.51606  0.57816  0.44567  1.0000
  C   C830      1.0  0.58387  0.34974  0.35348  1.0000
  H   H1480     1.0  0.74587  0.54411  0.41258  1.0000
  H   H1481     1.0  0.62125  0.35580  0.42513  1.0000
  H   H1482     1.0  0.52983  0.61674  0.42710  1.0000
  C   C831      1.0  0.82131  0.64852  0.30943  1.0000
  H   H1483     1.0  0.52776  0.35356  0.08172  1.0000
  H   H1484     1.0  0.60244  0.46226  0.43182  1.0000
  H   H1485     1.0  0.92761  0.61617  0.00891  1.0000
  H   H1486     1.0  0.68399  0.58209  0.41879  1.0000
  H   H1487     1.0  0.77182  0.58442  0.41477  1.0000
  H   H1488     1.0  0.80044  0.60024  0.38141  1.0000
  H   H1489     1.0  0.76370  0.60160  0.44714  1.0000
  C   C832      1.0  0.76081  0.58226  0.38044  1.0000
  C   C833      1.0  0.73056  0.44795  0.97951  1.0000
  C   C834      1.0  0.70297  0.51451  0.40958  1.0000
  C   C835      1.0  0.78170  0.59908  0.37053  1.0000
  C   C836      1.0  0.70170  0.58918  0.40908  1.0000
  H   H1490     1.0  0.77051  0.56553  0.38071  1.0000
  H   H1491     1.0  0.70141  0.51407  0.39104  1.0000
  H   H1492     1.0  0.52183  0.32961  0.40694  1.0000
  H   H1493     1.0  0.58481  0.35369  0.98656  1.0000
  N   N46       1.0  0.72788  0.57670  0.41485  1.0000
  H   H1494     1.0  0.87706  0.62507  0.09088  1.0000
  C   C837      1.0  0.58611  0.47740  0.99339  1.0000
  H   H1495     1.0  0.58645  0.33250  0.31259  1.0000
  H   H1496     1.0  0.82789  0.61468  0.09429  1.0000
  H   H1497     1.0  0.74622  0.56340  0.44577  1.0000
  C   C838      1.0  0.71195  0.33621  0.45510  1.0000
  H   H1498     1.0  0.74744  0.44386  0.99163  1.0000
  Fe  Fe94      1.0  0.65266  0.64451  0.42630  1.0000
  H   H1499     1.0  0.54653  0.64603  0.07278  1.0000
  H   H1500     1.0  0.69014  0.34156  0.45613  1.0000
  S   S183      1.0  0.68776  0.64595  0.04320  1.0000
  H   H1501     1.0  0.49435  0.55295  0.02770  1.0000
  H   H1502     1.0  0.50015  0.35335  0.44804  1.0000
  H   H1503     1.0  0.51590  0.47293  0.47338  1.0000
  H   H1504     1.0  0.71242  0.43707  0.98355  1.0000
  C   C839      1.0  0.74141  0.59861  0.45056  1.0000
  C   C840      1.0  0.53138  0.63741  0.06179  1.0000
  C   C841      1.0  0.54718  0.32576  0.06547  1.0000
  C   C842      1.0  0.72952  0.35224  0.46893  1.0000
  C   C843      1.0  0.65514  0.32071  0.32006  1.0000
  H   H1505     1.0  0.56247  0.32347  0.07921  1.0000
  H   H1506     1.0  0.72733  0.64327  0.41402  1.0000
  H   H1507     1.0  0.54467  0.50394  0.47320  1.0000
  H   H1508     1.0  0.59872  0.32318  0.40739  1.0000
  H   H1509     1.0  0.55830  0.32329  0.04958  1.0000
  H   H1510     1.0  0.62090  0.32296  0.45592  1.0000
  S   S184      1.0  0.56185  0.39481  0.47295  1.0000
  H   H1511     1.0  0.83325  0.64324  0.10219  1.0000
  H   H1512     1.0  0.53154  0.64607  0.04513  1.0000
  H   H1513     1.0  0.77607  0.64799  0.40140  1.0000
  H   H1514     1.0  0.71220  0.32813  0.32882  1.0000
  H   H1515     1.0  0.68647  0.32442  0.29319  1.0000
  H   H1516     1.0  0.56674  0.37681  0.97428  1.0000
  N   N47       1.0  0.76090  0.35438  0.62906  1.0000
  H   H1517     1.0  0.77476  0.34947  0.92063  1.0000
  H   H1518     1.0  0.57431  0.59301  0.93344  1.0000
  H   H1519     1.0  0.82151  0.36130  0.67629  1.0000
  S   S185      1.0  0.62306  0.37584  0.93872  1.0000
  S   S186      1.0  0.68925  0.40437  0.47779  1.0000
  S   S187      1.0  0.63391  0.42840  0.92858  1.0000
  H   H1520     1.0  0.49109  0.34080  0.93587  1.0000
  Fe  Fe95      1.0  0.59844  0.40720  0.94217  1.0000
  S   S188      1.0  0.55449  0.41168  0.92739  1.0000
  Fe  Fe96      1.0  0.65992  0.39707  0.92873  1.0000
  S   S189      1.0  0.68772  0.38860  0.89875  1.0000
  C   C844      1.0  0.73229  0.39754  0.58437  1.0000
  H   H1521     1.0  0.52073  0.48074  0.97203  1.0000
  H   H1522     1.0  0.67058  0.51239  0.50615  1.0000
  H   H1523     1.0  0.84451  0.35884  0.65289  1.0000
  S   S190      1.0  0.80978  0.33927  0.56906  1.0000
  C   C845      1.0  0.74025  0.44414  0.95570  1.0000
  C   C846      1.0  0.65799  0.49396  0.97232  1.0000
  S   S191      1.0  0.66509  0.46737  0.49104  1.0000
  S   S192      1.0  0.63481  0.40911  0.50976  1.0000
  H   H1524     1.0  0.54292  0.40039  0.51928  1.0000
  H   H1525     1.0  0.51048  0.48118  0.51718  1.0000
  H   H1526     1.0  0.74375  0.49028  0.94476  1.0000
  S   S193      1.0  0.63767  0.36750  0.47637  1.0000
  Fe  Fe97      1.0  0.66625  0.38237  0.50253  1.0000
  S   S194      1.0  0.68755  0.35725  0.52745  1.0000
  C   C847      1.0  0.89046  0.33880  0.77203  1.0000
  C   C848      1.0  0.65387  0.54074  0.96223  1.0000
  C   C849      1.0  0.87443  0.36063  0.77153  1.0000
  H   H1527     1.0  0.55937  0.47478  0.52640  1.0000
  C   C850      1.0  0.96813  0.32310  0.83444  1.0000
  C   C851      1.0  0.74509  0.43379  0.90857  1.0000
  C   C852      1.0  0.77604  0.34301  0.55633  1.0000
  C   C853      1.0  0.73216  0.37587  0.59848  1.0000
  C   C854      1.0  0.72762  0.33207  0.54994  1.0000
  C   C855      1.0  0.72223  0.35196  0.53751  1.0000
  C   C856      1.0  0.74422  0.36712  0.53418  1.0000
  C   C857      1.0  0.77074  0.36273  0.54361  1.0000
  C   C858      1.0  0.57457  0.57489  0.93789  1.0000
  H   H1528     1.0  0.74068  0.38249  0.52472  1.0000
  H   H1529     1.0  0.78726  0.37487  0.54118  1.0000
  S   S195      1.0  0.85238  0.32784  0.82288  1.0000
  H   H1530     1.0  0.63837  0.48959  0.94021  1.0000
  H   H1531     1.0  0.74271  0.48113  0.89410  1.0000
  H   H1532     1.0  0.63559  0.53030  0.93108  1.0000
  C   C859      1.0  0.82898  0.36962  0.66060  1.0000
  H   H1533     1.0  0.58844  0.33125  0.95757  1.0000
  N   N48       1.0  0.55593  0.47297  0.49027  1.0000
  C   C860      1.0  0.79055  0.35206  0.63688  1.0000
  C   C861      1.0  0.76857  0.34958  0.88484  1.0000
  C   C862      1.0  0.76111  0.35441  0.90696  1.0000
  C   C863      1.0  0.73628  0.36569  0.91165  1.0000
  C   C864      1.0  0.71858  0.37284  0.89419  1.0000
  C   C865      1.0  0.72620  0.36823  0.87207  1.0000
  C   C866      1.0  0.75075  0.35657  0.86743  1.0000
  C   C867      1.0  0.64627  0.50155  0.95198  1.0000
  H   H1534     1.0  0.73108  0.36916  0.92875  1.0000
  H   H1535     1.0  0.91293  0.32069  0.66698  1.0000
  H   H1536     1.0  0.75484  0.33497  0.67287  1.0000
  C   C868      1.0  0.49747  0.40963  0.92357  1.0000
  C   C869      1.0  0.52038  0.40832  0.93834  1.0000
  C   C870      1.0  0.51547  0.40402  0.96109  1.0000
  H   H1537     1.0  0.53139  0.47266  0.94460  1.0000
  H   H1538     1.0  0.95415  0.32015  0.78535  1.0000
  Fe  Fe98      1.0  0.83036  0.31835  0.85544  1.0000
  H   H1539     1.0  0.78282  0.41514  0.86307  1.0000
  C   C871      1.0  0.74167  0.36092  0.64751  1.0000
  C   C872      1.0  0.65617  0.53465  0.47950  1.0000
  N   N49       1.0  0.54372  0.33440  0.95891  1.0000
  C   C873      1.0  0.52507  0.40048  0.50819  1.0000
  C   C874      1.0  0.64450  0.52472  0.94693  1.0000
  H   H1540     1.0  0.76723  0.36241  0.67824  1.0000
  H   H1541     1.0  0.90981  0.34889  0.74059  1.0000
  C   C875      1.0  0.51896  0.31906  0.95627  1.0000
  S   S196      1.0  0.67464  0.40142  0.96416  1.0000
  H   H1542     1.0  0.50092  0.41303  0.90593  1.0000
  H   H1543     1.0  0.96622  0.37071  0.56311  1.0000
  H   H1544     1.0  0.77587  0.36852  0.59755  1.0000
  C   C876      1.0  0.54834  0.35914  0.89767  1.0000
  H   H1545     1.0  0.75894  0.45468  0.95267  1.0000
  C   C877      1.0  0.65713  0.49364  0.47765  1.0000
  C   C878      1.0  0.95038  0.32250  0.74829  1.0000
  H   H1546     1.0  0.73059  0.33434  0.61125  1.0000
  C   C879      1.0  0.60726  0.45643  0.53944  1.0000
  H   H1547     1.0  0.95002  0.34806  0.77376  1.0000
  H   H1548     1.0  0.54704  0.64728  0.53096  1.0000
  H   H1549     1.0  0.75600  0.35318  0.85032  1.0000
  H   H1550     1.0  0.80338  0.34545  0.62322  1.0000
  S   S197      1.0  0.65117  0.56985  0.95479  1.0000
  C   C880      1.0  0.56711  0.46445  0.51264  1.0000
  H   H1551     1.0  0.52997  0.37007  0.89833  1.0000
  C   C881      1.0  0.49077  0.33064  0.95167  1.0000
  H   H1552     1.0  0.87615  0.32530  0.77800  1.0000
  H   H1553     1.0  0.61010  0.47821  0.51059  1.0000
  C   C882      1.0  0.73667  0.49413  0.92736  1.0000
  C   C883      1.0  0.56902  0.54628  0.96978  1.0000
  H   H1554     1.0  0.73153  0.35084  0.70499  1.0000
  H   H1555     1.0  0.93825  0.32918  0.70202  1.0000
  C   C884      1.0  0.48697  0.47125  0.94967  1.0000
  H   H1556     1.0  0.54919  0.57919  0.96637  1.0000
  H   H1557     1.0  0.55824  0.56637  0.92794  1.0000
  C   C885      1.0  0.77812  0.41673  0.88111  1.0000
  H   H1558     1.0  0.90163  0.33372  0.70414  1.0000
  H   H1559     1.0  0.59765  0.44020  0.54471  1.0000
  H   H1560     1.0  0.63012  0.45479  0.54059  1.0000
  H   H1561     1.0  0.60091  0.46959  0.55098  1.0000
  C   C886      1.0  0.97921  0.35960  0.57394  1.0000
  C   C887      1.0  0.74398  0.47471  0.91176  1.0000
  C   C888      1.0  0.75086  0.51595  0.91979  1.0000
  H   H1562     1.0  0.72779  0.36211  0.58688  1.0000
  H   H1563     1.0  0.59512  0.56834  0.93342  1.0000
  Fe  Fe99      1.0  0.60864  0.39625  0.48115  1.0000
  H   H1564     1.0  0.52853  0.36291  0.93963  1.0000
  C   C889      1.0  0.55453  0.49814  0.48921  1.0000
  S   S198      1.0  0.80040  0.33516  0.88011  1.0000
  H   H1565     1.0  0.53517  0.64619  0.50221  1.0000
  H   H1566     1.0  0.86700  0.36408  0.78859  1.0000
  C   C890      1.0  0.74923  0.35280  0.67178  1.0000
  H   H1567     1.0  0.55936  0.44708  0.51612  1.0000
  H   H1568     1.0  0.56737  0.36952  0.89980  1.0000
  H   H1569     1.0  0.81305  0.38330  0.62948  1.0000
  C   C891      1.0  0.48823  0.40031  0.96878  1.0000
  H   H1570     1.0  0.85618  0.35945  0.76012  1.0000
  C   C892      1.0  0.52666  0.46403  0.48750  1.0000
  H   H1571     1.0  0.71493  0.37659  0.61053  1.0000
  H   H1572     1.0  0.70262  0.43460  0.93845  1.0000
  H   H1573     1.0  0.76678  0.38865  0.61731  1.0000
  C   C893      1.0  0.52867  0.39804  0.48519  1.0000
  H   H1574     1.0  0.88795  0.37480  0.76595  1.0000
  H   H1575     1.0  0.74017  0.37942  0.64821  1.0000
  H   H1576     1.0  0.70699  0.34595  0.68270  1.0000
  H   H1577     1.0  0.55087  0.53845  0.96124  1.0000
  C   C894      1.0  0.70262  0.45337  0.89854  1.0000
  H   H1578     1.0  0.77263  0.39991  0.88806  1.0000
  H   H1579     1.0  0.54074  0.50421  0.50241  1.0000
  C   C895      1.0  0.91774  0.32076  0.70322  1.0000
  H   H1580     1.0  0.82586  0.32022  0.75773  1.0000
  H   H1581     1.0  0.71419  0.49720  0.92806  1.0000
  C   C896      1.0  0.68097  0.47175  0.90171  1.0000
  C   C897      1.0  0.65698  0.46949  0.88497  1.0000
  H   H1582     1.0  0.74555  0.61386  0.48301  1.0000
  H   H1583     1.0  0.72019  0.35509  0.64367  1.0000
  H   H1584     1.0  0.74644  0.42638  0.95480  1.0000
  C   C898      1.0  0.75414  0.43279  0.88378  1.0000
  H   H1585     1.0  0.74347  0.52120  0.90280  1.0000
  H   H1586     1.0  0.70943  0.45554  0.88090  1.0000
  H   H1587     1.0  0.69165  0.43689  0.89960  1.0000
  H   H1588     1.0  0.56200  0.54332  0.49516  1.0000
  S   S199      1.0  0.61390  0.62503  0.96020  1.0000
  C   C899      1.0  0.71718  0.44912  0.93799  1.0000
  S   S200      1.0  0.86068  0.32611  0.61994  1.0000
  H   H1589     1.0  0.74982  0.39788  0.57249  1.0000
  H   H1590     1.0  0.75028  0.58402  0.48372  1.0000
  H   H1591     1.0  0.76076  0.44947  0.87715  1.0000
  H   H1592     1.0  0.73425  0.41769  0.91275  1.0000
  H   H1593     1.0  0.60662  0.44942  0.50451  1.0000
  H   H1594     1.0  0.73661  0.42658  0.87335  1.0000
  H   H1595     1.0  0.67224  0.47075  0.91877  1.0000
  H   H1596     1.0  0.69034  0.48848  0.89851  1.0000
  H   H1597     1.0  0.64112  0.48219  0.88829  1.0000
  H   H1598     1.0  0.66442  0.47218  0.86756  1.0000
  H   H1599     1.0  0.64710  0.45270  0.88646  1.0000
  H   H1600     1.0  0.52824  0.33037  0.91244  1.0000
  C   C900      1.0  0.50772  0.46530  0.50832  1.0000
  C   C901      1.0  0.59898  0.46265  0.51534  1.0000
  Fe  Fe100     1.0  0.65648  0.43039  0.48311  1.0000
  C   C902      1.0  0.66207  0.51345  0.48933  1.0000
  C   C903      1.0  0.57903  0.53582  0.48570  1.0000
  C   C904      1.0  0.75425  0.32752  0.55908  1.0000
  H   H1601     1.0  0.56483  0.36137  0.94106  1.0000
  H   H1602     1.0  0.72233  0.35213  0.48651  1.0000
  H   H1603     1.0  0.58775  0.53916  0.96211  1.0000
  H   H1604     1.0  0.76641  0.47155  0.91475  1.0000
  H   H1605     1.0  0.71942  0.37404  0.68784  1.0000
  H   H1606     1.0  0.71597  0.59552  0.48053  1.0000
  C   C905      1.0  0.54687  0.34075  0.91589  1.0000
  H   H1607     1.0  0.66018  0.54962  0.48877  1.0000
  C   C906      1.0  0.95965  0.33163  0.77122  1.0000
  C   C907      1.0  0.49820  0.40266  0.51694  1.0000
  C   C908      1.0  0.76041  0.37221  0.61062  1.0000
  H   H1608     1.0  0.79014  0.38511  0.65271  1.0000
  H   H1609     1.0  0.58588  0.58054  0.97221  1.0000
  H   H1610     1.0  0.79241  0.33932  0.65059  1.0000
  H   H1611     1.0  0.71293  0.37369  0.85833  1.0000
  C   C909      1.0  0.90087  0.33334  0.74835  1.0000
  H   H1612     1.0  0.88158  0.32986  0.73861  1.0000
  H   H1613     1.0  0.83920  0.38565  0.66491  1.0000
  S   S201      1.0  0.93431  0.33476  0.83523  1.0000
  H   H1614     1.0  0.95420  0.33631  0.73587  1.0000
  C   C910      1.0  0.51665  0.46893  0.95839  1.0000
  H   H1615     1.0  0.73400  0.41223  0.59525  1.0000
  H   H1616     1.0  0.59851  0.54497  0.48973  1.0000
  H   H1617     1.0  0.79698  0.42296  0.88983  1.0000
  N   N50       1.0  0.72720  0.45330  0.91439  1.0000
  H   H1618     1.0  0.70461  0.46313  0.94381  1.0000
  H   H1619     1.0  0.96621  0.35270  0.58779  1.0000
  C   C911      1.0  0.80484  0.37404  0.64442  1.0000
  C   C912      1.0  0.54583  0.35089  0.93946  1.0000
  C   C913      1.0  0.58214  0.51110  0.49210  1.0000
  H   H1620     1.0  0.54887  0.35159  0.88093  1.0000
  H   H1621     1.0  0.71272  0.39874  0.57448  1.0000
  H   H1622     1.0  0.90745  0.34025  0.78447  1.0000
  Fe  Fe101     1.0  0.64670  0.43166  0.96455  1.0000
  H   H1623     1.0  0.70270  0.32382  0.93276  1.0000
  H   H1624     1.0  0.51260  0.45145  0.52043  1.0000
  H   H1625     1.0  0.76568  0.32854  0.60505  1.0000
  H   H1626     1.0  0.52036  0.45164  0.96477  1.0000
  H   H1627     1.0  0.76436  0.43368  0.91895  1.0000
  C   C914      1.0  0.56940  0.57147  0.96296  1.0000
  C   C915      1.0  0.72524  0.35617  0.68773  1.0000
  H   H1628     1.0  0.53263  0.40369  0.97280  1.0000
  H   H1629     1.0  0.82174  0.33247  0.71767  1.0000
  H   H1630     1.0  0.74581  0.52930  0.93156  1.0000
  C   C916      1.0  0.73808  0.59786  0.47600  1.0000
  H   H1631     1.0  0.77369  0.51400  0.91965  1.0000
  H   H1632     1.0  0.51056  0.64464  0.52458  1.0000
  H   H1633     1.0  0.71098  0.32009  0.55262  1.0000
  H   H1634     1.0  0.58883  0.51019  0.50994  1.0000
  H   H1635     1.0  0.57967  0.50135  0.96655  1.0000
  Fe  Fe102     1.0  0.64928  0.64321  0.47739  1.0000
  H   H1636     1.0  0.59855  0.50449  0.48152  1.0000
  C   C917      1.0  0.56959  0.32051  0.95979  1.0000
  C   C918      1.0  0.75155  0.33273  0.61888  1.0000
  H   H1637     1.0  0.49567  0.40432  0.53479  1.0000
  H   H1638     1.0  0.52684  0.44612  0.48288  1.0000
  S   S202      1.0  0.61412  0.61800  0.47874  1.0000
  H   H1639     1.0  0.56548  0.33030  0.91428  1.0000
  Fe  Fe103     1.0  0.64854  0.60310  0.97356  1.0000
  H   H1640     1.0  0.66337  0.31838  0.47998  1.0000
  H   H1641     1.0  0.53733  0.66156  0.00093  1.0000
  H   H1642     1.0  0.96463  0.95196  0.43996  1.0000
  S   S203      1.0  0.85698  0.83923  0.99799  1.0000
  H   H1643     1.0  0.93551  0.78181  0.10146  1.0000
  Fe  Fe104     1.0  0.84323  0.88203  0.46014  1.0000
  S   S204      1.0  0.83303  0.86835  0.42568  1.0000
  Fe  Fe105     1.0  0.83985  0.75894  0.10270  1.0000
  S   S205      1.0  0.85543  0.73603  0.07716  1.0000
  S   S206      1.0  0.82346  0.79294  0.09137  1.0000
  Fe  Fe106     1.0  0.84928  0.72482  0.14111  1.0000
  S   S207      1.0  0.86520  0.69950  0.11682  1.0000
  S   S208      1.0  0.85011  0.71246  0.17824  1.0000
  Fe  Fe107     1.0  0.88990  0.72813  0.10163  1.0000
  S   S209      1.0  0.93243  0.72837  0.08461  1.0000
  Fe  Fe108     1.0  0.82939  0.70930  0.09399  1.0000
  S   S210      1.0  0.80805  0.68761  0.06715  1.0000
  S   S211      1.0  0.87576  0.75298  0.12655  1.0000
  S   S212      1.0  0.81195  0.73275  0.11897  1.0000
  C   C919      1.0  0.95991  0.80090  0.40456  1.0000
  Fe  Fe109     1.0  0.84523  0.73714  0.31286  1.0000
  S   S213      1.0  0.85733  0.70165  0.32061  1.0000
  S   S214      1.0  0.83447  0.75043  0.27721  1.0000
  Fe  Fe110     1.0  0.85043  0.75007  0.36250  1.0000
  S   S215      1.0  0.86439  0.71545  0.37208  1.0000
  S   S216      1.0  0.84542  0.76775  0.39561  1.0000
  Fe  Fe111     1.0  0.89114  0.71726  0.34174  1.0000
  S   S217      1.0  0.93472  0.70259  0.34229  1.0000
  Fe  Fe112     1.0  0.82914  0.70327  0.35068  1.0000
  S   S218      1.0  0.80220  0.67536  0.36724  1.0000
  S   S219      1.0  0.87994  0.75280  0.33332  1.0000
  S   S220      1.0  0.81463  0.73774  0.34160  1.0000
  H   H1644     1.0  0.82380  0.85492  0.03543  1.0000
  C   C920      1.0  0.76702  0.67343  0.37626  1.0000
  C   C921      1.0  0.95016  0.73307  0.27962  1.0000
  H   H1645     1.0  0.72867  0.76353  0.06473  1.0000
  C   C922      1.0  0.94628  0.79475  0.01942  1.0000
  H   H1646     1.0  0.89036  0.84936  0.43863  1.0000
  C   C923      1.0  0.84707  0.72402  0.20552  1.0000
  C   C924      1.0  0.83642  0.74527  0.20887  1.0000
  C   C925      1.0  0.83305  0.75308  0.23082  1.0000
  C   C926      1.0  0.84062  0.74000  0.24985  1.0000
  C   C927      1.0  0.85163  0.71885  0.24652  1.0000
  C   C928      1.0  0.85452  0.71088  0.22458  1.0000
  H   H1647     1.0  0.83039  0.75560  0.19454  1.0000
  H   H1648     1.0  0.82446  0.76944  0.23306  1.0000
  H   H1649     1.0  0.85759  0.70850  0.26084  1.0000
  H   H1650     1.0  0.86270  0.69439  0.22232  1.0000
  C   C929      1.0  0.77404  0.67697  0.06071  1.0000
  C   C930      1.0  0.75273  0.67581  0.07640  1.0000
  H   H1651     1.0  0.74397  0.69857  0.45555  1.0000
  H   H1652     1.0  0.75647  0.68172  0.09311  1.0000
  H   H1653     1.0  0.97060  0.77673  0.37893  1.0000
  H   H1654     1.0  0.81134  0.83630  0.07182  1.0000
  C   C931      1.0  0.70543  0.66514  0.30364  1.0000
  C   C932      1.0  0.96621  0.72226  0.09515  1.0000
  H   H1655     1.0  0.93269  0.74441  0.27555  1.0000
  H   H1656     1.0  0.95425  0.71411  0.12900  1.0000
  H   H1657     1.0  0.61980  0.73783  0.46761  1.0000
  C   C933      1.0  0.91615  0.81857  0.41255  1.0000
  C   C934      1.0  0.96751  0.71632  0.34448  1.0000
  H   H1658     1.0  0.91010  0.71980  0.41208  1.0000
  H   H1659     1.0  0.95181  0.74973  0.34391  1.0000
  C   C935      1.0  0.92550  0.81666  0.36320  1.0000
  C   C936      1.0  0.83653  0.84028  0.41756  1.0000
  C   C937      1.0  0.83585  0.83541  0.39464  1.0000
  C   C938      1.0  0.83855  0.81331  0.38750  1.0000
  C   C939      1.0  0.84158  0.79585  0.40329  1.0000
  C   C940      1.0  0.84203  0.80068  0.42620  1.0000
  C   C941      1.0  0.83972  0.82278  0.43332  1.0000
  H   H1660     1.0  0.83328  0.84885  0.38235  1.0000
  H   H1661     1.0  0.83812  0.80983  0.36983  1.0000
  H   H1662     1.0  0.84438  0.78728  0.43855  1.0000
  H   H1663     1.0  0.84017  0.82629  0.45098  1.0000
  H   H1664     1.0  0.92977  0.78618  0.13073  1.0000
  C   C942      1.0  0.74980  0.75635  0.06531  1.0000
  C   C943      1.0  0.84765  0.82734  0.02436  1.0000
  C   C944      1.0  0.85728  0.80588  0.03008  1.0000
  C   C945      1.0  0.85070  0.79549  0.05077  1.0000
  C   C946      1.0  0.83391  0.80627  0.06589  1.0000
  C   C947      1.0  0.82432  0.82780  0.06023  1.0000
  C   C948      1.0  0.83127  0.83837  0.03959  1.0000
  H   H1665     1.0  0.86983  0.79715  0.01836  1.0000
  H   H1666     1.0  0.85836  0.77904  0.05486  1.0000
  C   C949      1.0  0.91877  0.66398  0.10143  1.0000
  H   H1667     1.0  0.79573  0.73426  0.05392  1.0000
  C   C950      1.0  0.79160  0.74976  0.04390  1.0000
  C   C951      1.0  0.71101  0.66720  0.39014  1.0000
  H   H1668     1.0  0.94816  0.81947  0.36191  1.0000
  C   C952      1.0  0.88794  0.69130  0.03417  1.0000
  H   H1669     1.0  0.81747  0.71411  0.40120  1.0000
  C   C953      1.0  0.76854  0.66892  0.03912  1.0000
  H   H1670     1.0  0.77852  0.75521  0.30589  1.0000
  H   H1671     1.0  0.71409  0.70946  0.00245  1.0000
  H   H1672     1.0  0.92389  0.79788  0.33240  1.0000
  C   C954      1.0  0.77672  0.71056  0.29114  1.0000
  H   H1673     1.0  0.90260  0.89286  0.02487  1.0000
  H   H1674     1.0  0.73002  0.72536  0.46253  1.0000
  H   H1675     1.0  0.79560  0.75479  0.00674  1.0000
  H   H1676     1.0  0.89599  0.79380  0.37871  1.0000
  C   C955      1.0  0.97014  0.73958  0.34493  1.0000
  H   H1677     1.0  0.72981  0.68695  0.26658  1.0000
  C   C956      1.0  0.74588  0.68614  0.36627  1.0000
  H   H1678     1.0  0.58731  0.70516  0.46990  1.0000
  H   H1679     1.0  0.75308  0.71816  0.03953  1.0000
  H   H1680     1.0  0.71057  0.66527  0.08314  1.0000
  C   C957      1.0  0.93101  0.86550  0.03182  1.0000
  C   C958      1.0  0.92146  0.65181  0.07902  1.0000
  H   H1681     1.0  0.76877  0.72680  0.08199  1.0000
  H   H1682     1.0  0.93149  0.77581  0.43217  1.0000
  H   H1683     1.0  0.92735  0.78154  0.37092  1.0000
  H   H1684     1.0  0.94134  0.81128  0.97646  1.0000
  H   H1685     1.0  0.80183  0.76292  0.05400  1.0000
  H   H1686     1.0  0.89139  0.81023  0.33991  1.0000
  N   N51       1.0  0.76089  0.75371  0.04199  1.0000
  C   C959      1.0  0.74756  0.73410  0.03065  1.0000
  C   C960      1.0  0.75463  0.77473  0.02842  1.0000
  C   C961      1.0  0.77223  0.79561  0.03425  1.0000
  C   C962      1.0  0.80752  0.74848  0.02143  1.0000
  C   C963      1.0  0.71565  0.73516  0.02778  1.0000
  C   C964      1.0  0.76160  0.81643  0.02172  1.0000
  H   H1687     1.0  0.92180  0.89486  0.05075  1.0000
  H   H1688     1.0  0.75596  0.73247  0.01353  1.0000
  H   H1689     1.0  0.75668  0.77207  0.01018  1.0000
  H   H1690     1.0  0.73255  0.77929  0.03041  1.0000
  H   H1691     1.0  0.79406  0.79338  0.02931  1.0000
  H   H1692     1.0  0.77175  0.79875  0.05245  1.0000
  H   H1693     1.0  0.93628  0.78703  0.00469  1.0000
  H   H1694     1.0  0.82639  0.75925  0.02244  1.0000
  H   H1695     1.0  0.70997  0.74896  0.01588  1.0000
  H   H1696     1.0  0.85636  0.69790  0.42262  1.0000
  S   S221      1.0  0.67534  0.66304  0.39719  1.0000
  H   H1697     1.0  0.77481  0.83105  0.02591  1.0000
  H   H1698     1.0  0.76237  0.81423  0.00335  1.0000
  H   H1699     1.0  0.82809  0.72474  0.00061  1.0000
  H   H1700     1.0  0.77800  0.65410  0.30963  1.0000
  C   C965      1.0  0.94422  0.77905  0.11859  1.0000
  N   N52       1.0  0.77304  0.69055  0.27654  1.0000
  C   C966      1.0  0.73059  0.68078  0.30208  1.0000
  C   C967      1.0  0.79579  0.67413  0.28193  1.0000
  C   C968      1.0  0.77670  0.69860  0.25250  1.0000
  H   H1701     1.0  0.93819  0.75078  0.39691  1.0000
  C   C969      1.0  0.91047  0.84380  0.44581  1.0000
  C   C970      1.0  0.77472  0.74878  0.43890  1.0000
  C   C971      1.0  0.77835  0.68029  0.23473  1.0000
  H   H1702     1.0  0.89021  0.68098  0.01921  1.0000
  H   H1703     1.0  0.90911  0.84400  0.46435  1.0000
  C   C972      1.0  0.75869  0.73100  0.28433  1.0000
  C   C973      1.0  0.75920  0.76799  0.36974  1.0000
  C   C974      1.0  0.77611  0.69036  0.21099  1.0000
  S   S222      1.0  0.85727  0.96500  0.46686  1.0000
  H   H1704     1.0  0.63772  0.71177  0.46587  1.0000
  H   H1705     1.0  0.94757  0.72651  0.29705  1.0000
  H   H1706     1.0  0.81636  0.68206  0.27829  1.0000
  H   H1707     1.0  0.79581  0.70908  0.25088  1.0000
  H   H1708     1.0  0.75940  0.70968  0.24716  1.0000
  C   C975      1.0  0.97763  0.74584  0.27727  1.0000
  S   S223      1.0  0.62956  0.66483  0.45086  1.0000
  S   S224      1.0  0.81849  0.95402  0.98028  1.0000
  C   C976      1.0  0.97758  0.78181  0.39572  1.0000
  H   H1709     1.0  0.74961  0.74005  0.31859  1.0000
  C   C977      1.0  0.77010  0.73820  0.39961  1.0000
  C   C978      1.0  0.93118  0.82683  0.98165  1.0000
  C   C979      1.0  0.82775  0.98309  0.97683  1.0000
  C   C980      1.0  0.74231  0.65980  0.03330  1.0000
  C   C981      1.0  0.90491  0.68216  0.05462  1.0000
  H   H1710     1.0  0.74454  0.78136  0.36465  1.0000
  H   H1711     1.0  0.92727  0.68572  0.05142  1.0000
  H   H1712     1.0  0.72484  0.92602  0.98344  1.0000
  H   H1713     1.0  0.88419  0.72154  0.01349  1.0000
  C   C982      1.0  0.72664  0.66638  0.07068  1.0000
  H   H1714     1.0  0.86660  0.66709  0.08186  1.0000
  H   H1715     1.0  0.75562  0.69818  0.20814  1.0000
  H   H1716     1.0  0.98495  0.72869  0.06305  1.0000
  H   H1717     1.0  0.77863  0.67709  0.19859  1.0000
  H   H1718     1.0  0.96908  0.79394  0.01774  1.0000
  C   C983      1.0  0.93823  0.78045  0.04003  1.0000
  H   H1719     1.0  0.89914  0.69285  0.06867  1.0000
  C   C984      1.0  0.91903  0.77771  0.41646  1.0000
  C   C985      1.0  0.94202  0.65747  0.11780  1.0000
  H   H1720     1.0  0.89531  0.72634  0.04184  1.0000
  C   C986      1.0  0.49261  0.65921  0.99835  1.0000
  H   H1721     1.0  0.50702  0.71498  0.43891  1.0000
  S   S225      1.0  0.62680  0.65783  0.00177  1.0000
  C   C987      1.0  0.91831  0.75486  0.40463  1.0000
  H   H1722     1.0  0.94814  0.78701  0.05540  1.0000
  H   H1723     1.0  0.93766  0.90615  0.45011  1.0000
  H   H1724     1.0  0.92009  0.68231  0.09901  1.0000
  H   H1725     1.0  0.91473  0.85555  0.04073  1.0000
  H   H1726     1.0  0.77300  0.70622  0.30902  1.0000
  C   C988      1.0  0.72114  0.65819  0.04913  1.0000
  C   C989      1.0  0.92312  0.89005  0.03298  1.0000
  C   C990      1.0  0.78589  0.70995  0.42689  1.0000
  S   S226      1.0  0.87956  0.90552  0.46126  1.0000
  C   C991      1.0  0.75015  0.75711  0.39195  1.0000
  H   H1727     1.0  0.78600  0.70371  0.44452  1.0000
  H   H1728     1.0  0.82747  0.67862  0.42171  1.0000
  H   H1729     1.0  0.73861  0.65363  0.01667  1.0000
  H   H1730     1.0  0.94559  0.76083  0.12224  1.0000
  H   H1731     1.0  0.89395  0.81980  0.40752  1.0000
  H   H1732     1.0  0.94513  0.76301  0.03806  1.0000
  H   H1733     1.0  0.97407  0.91318  0.45063  1.0000
  H   H1734     1.0  0.68522  0.71467  0.44416  1.0000
  H   H1735     1.0  0.73201  0.70967  0.41386  1.0000
  H   H1736     1.0  0.74937  0.77040  0.40447  1.0000
  H   H1737     1.0  0.79140  0.74482  0.39665  1.0000
  H   H1738     1.0  0.91541  0.78017  0.04216  1.0000
  H   H1739     1.0  0.69507  0.69564  0.46665  1.0000
  H   H1740     1.0  0.48983  0.67702  0.99955  1.0000
  H   H1741     1.0  0.76727  0.72421  0.38787  1.0000
  H   H1742     1.0  0.72893  0.75024  0.38937  1.0000
  H   H1743     1.0  0.91894  0.82751  0.32858  1.0000
  C   C992      1.0  0.93686  0.81921  0.02178  1.0000
  H   H1744     1.0  0.86566  0.69178  0.03837  1.0000
  H   H1745     1.0  0.91395  0.81890  0.02384  1.0000
  H   H1746     1.0  0.93885  0.90092  0.02452  1.0000
  H   H1747     1.0  0.94914  0.71894  0.26798  1.0000
  H   H1748     1.0  0.71736  0.74685  0.10323  1.0000
  H   H1749     1.0  0.97669  0.76021  0.28858  1.0000
  H   H1750     1.0  0.79233  0.94228  0.44775  1.0000
  H   H1751     1.0  0.91579  0.83206  0.36915  1.0000
  H   H1752     1.0  0.97924  0.75225  0.25973  1.0000
  H   H1753     1.0  0.84113  0.65715  0.30528  1.0000
  H   H1754     1.0  0.74462  0.67642  0.31621  1.0000
  C   C993      1.0  0.75995  0.65785  0.39345  1.0000
  H   H1755     1.0  0.79400  0.65941  0.27107  1.0000
  H   H1756     1.0  0.93772  0.81595  0.44564  1.0000
  H   H1757     1.0  0.91917  0.71522  0.02212  1.0000
  H   H1758     1.0  0.79041  0.76021  0.43092  1.0000
  H   H1759     1.0  0.89726  0.78006  0.42178  1.0000
  H   H1760     1.0  0.82483  0.72976  0.42582  1.0000
  H   H1761     1.0  0.70532  0.73792  0.04392  1.0000
  H   H1762     1.0  0.70189  0.69241  0.36477  1.0000
  H   H1763     1.0  0.92624  0.83398  0.40549  1.0000
  C   C994      1.0  0.91890  0.79638  0.37900  1.0000
  H   H1764     1.0  0.92848  0.94635  0.43658  1.0000
  H   H1765     1.0  0.76154  0.66767  0.23698  1.0000
  H   H1766     1.0  0.70687  0.69952  0.03067  1.0000
  C   C995      1.0  0.93267  0.85816  0.00715  1.0000
  H   H1767     1.0  0.97005  0.80844  0.11855  1.0000
  H   H1768     1.0  0.96660  0.80285  0.42224  1.0000
  C   C996      1.0  0.95378  0.91744  0.44284  1.0000
  C   C997      1.0  0.83484  0.69481  0.42838  1.0000
  C   C998      1.0  0.72984  0.71207  0.44997  1.0000
  C   C999      1.0  0.50593  0.72070  0.45641  1.0000
  C   C1000     1.0  0.89726  0.71504  0.02755  1.0000
  H   H1769     1.0  0.75284  0.75213  0.11186  1.0000
  H   H1770     1.0  0.95078  0.86322  0.04103  1.0000
  C   C1001     1.0  0.97523  0.83679  0.99925  1.0000
  N   N53       1.0  0.76728  0.72983  0.42362  1.0000
  H   H1771     1.0  0.76268  0.76871  0.07454  1.0000
  H   H1772     1.0  0.98009  0.84905  0.98549  1.0000
  H   H1773     1.0  0.83127  0.71892  0.03025  1.0000
  H   H1774     1.0  0.79864  0.67181  0.23600  1.0000
  C   C1002     1.0  0.74481  0.67953  0.27888  1.0000
  C   C1003     1.0  0.81697  0.72482  0.01676  1.0000
  H   H1775     1.0  0.96655  0.81678  0.39601  1.0000
  C   C1004     1.0  0.74831  0.73482  0.08034  1.0000
  H   H1776     1.0  0.69942  0.68773  0.43809  1.0000
  H   H1777     1.0  0.90908  0.82221  0.98462  1.0000
  H   H1778     1.0  0.80323  0.93963  0.40800  1.0000
  H   H1779     1.0  0.72320  0.73632  0.42388  1.0000
  C   C1005     1.0  0.70061  0.70197  0.44960  1.0000
  H   H1780     1.0  0.74591  0.66164  0.27442  1.0000
  H   H1781     1.0  0.94528  0.82481  0.03803  1.0000
  H   H1782     1.0  0.75082  0.69816  0.35304  1.0000
  H   H1783     1.0  0.95491  0.91455  0.42460  1.0000
  H   H1784     1.0  0.79903  0.67757  0.31848  1.0000
  H   H1785     1.0  0.79263  0.70316  0.20809  1.0000
  C   C1006     1.0  0.73761  0.72219  0.42670  1.0000
  H   H1786     1.0  0.83499  0.69386  0.44697  1.0000
  H   H1787     1.0  0.94279  0.65505  0.07266  1.0000
  H   H1788     1.0  0.79867  0.71635  0.29091  1.0000
  H   H1789     1.0  0.78475  0.66959  0.02678  1.0000
  H   H1790     1.0  0.90241  0.75493  0.39109  1.0000
  N   N54       1.0  0.94439  0.83537  0.00290  1.0000
  S   S227      1.0  0.87333  0.90295  0.97844  1.0000
  N   N55       1.0  0.92888  0.79799  0.40295  1.0000
  H   H1791     1.0  0.94436  0.87119  0.99754  1.0000
  H   H1792     1.0  0.74365  0.76178  0.29768  1.0000
  H   H1793     1.0  0.98307  0.82064  0.99331  1.0000
  C   C1007     1.0  0.94716  0.94190  0.44672  1.0000
  C   C1008     1.0  0.71809  0.68283  0.37299  1.0000
  H   H1794     1.0  0.77773  0.69568  0.41715  1.0000
  C   C1009     1.0  0.73228  0.65504  0.40060  1.0000
  C   C1010     1.0  0.91422  0.81275  0.33960  1.0000
  C   C1011     1.0  0.70391  0.71352  0.01838  1.0000
  C   C1012     1.0  0.81635  0.71372  0.41974  1.0000
  H   H1795     1.0  0.91093  0.85922  0.00085  1.0000
  H   H1796     1.0  0.97660  0.76723  0.40756  1.0000
  H   H1797     1.0  0.73343  0.72252  0.07337  1.0000
  H   H1798     1.0  0.79668  0.96897  0.40325  1.0000
  H   H1799     1.0  0.79909  0.71305  0.01589  1.0000
  C   C1013     1.0  0.80364  0.95622  0.41586  1.0000
  C   C1014     1.0  0.79684  0.66425  0.30610  1.0000
  H   H1800     1.0  0.72327  0.69796  0.30478  1.0000
  C   C1015     1.0  0.97132  0.71584  0.11749  1.0000
  C   C1016     1.0  0.75760  0.74796  0.30288  1.0000
  H   H1801     1.0  0.92693  0.85584  0.44045  1.0000
  H   H1802     1.0  0.92624  0.73447  0.43480  1.0000
  H   H1803     1.0  0.76764  0.73976  0.26938  1.0000
  H   H1804     1.0  0.73722  0.72580  0.28006  1.0000
  H   H1805     1.0  0.53501  0.69658  0.46818  1.0000
  H   H1806     1.0  0.76365  0.95095  0.43035  1.0000
  H   H1807     1.0  0.68135  0.71518  0.01511  1.0000
  H   H1808     1.0  0.97995  0.78656  0.13830  1.0000
  C   C1017     1.0  0.91067  0.73581  0.42103  1.0000
  C   C1018     1.0  0.73858  0.73995  0.10386  1.0000
  H   H1809     1.0  0.77409  0.72988  0.47143  1.0000
  H   H1810     1.0  0.69545  0.66684  0.32017  1.0000
  C   C1019     1.0  0.78474  0.95567  0.43621  1.0000
  H   H1811     1.0  0.88987  0.73853  0.42814  1.0000
  H   H1812     1.0  0.54999  0.72314  0.45951  1.0000
  C   C1020     1.0  0.91717  0.82024  0.43851  1.0000
  H   H1813     1.0  0.82533  0.96002  0.42101  1.0000
  H   H1814     1.0  0.69005  0.66940  0.29029  1.0000
  H   H1815     1.0  0.74005  0.81999  0.02665  1.0000
  H   H1816     1.0  0.73829  0.72435  0.11435  1.0000
  H   H1817     1.0  0.73766  0.89807  0.98093  1.0000
  H   H1818     1.0  0.90166  0.80866  0.44624  1.0000
  C   C1021     1.0  0.97272  0.79017  0.12090  1.0000
  H   H1819     1.0  0.75934  0.75544  0.35645  1.0000
  C   C1022     1.0  0.78455  0.97873  0.44749  1.0000
  H   H1820     1.0  0.89883  0.65946  0.10952  1.0000
  H   H1821     1.0  0.93938  0.66631  0.13373  1.0000
  H   H1822     1.0  0.73590  0.95835  0.45846  1.0000
  H   H1823     1.0  0.75630  0.75938  0.44140  1.0000
  H   H1824     1.0  0.98212  0.78089  0.08744  1.0000
  H   H1825     1.0  0.78020  0.77562  0.37142  1.0000
  H   H1826     1.0  0.49670  0.65590  0.07282  1.0000
  H   H1827     1.0  0.96248  0.66243  0.11080  1.0000
  H   H1828     1.0  0.76165  0.92100  0.98458  1.0000
  H   H1829     1.0  0.91540  0.98147  0.45521  1.0000
  C   C1023     1.0  0.53281  0.71486  0.46884  1.0000
  Fe  Fe113     1.0  0.84706  0.87147  0.97825  1.0000
  C   C1024     1.0  0.87112  0.65487  0.06878  1.0000
  H   H1830     1.0  0.50269  0.73902  0.45599  1.0000
  H   H1831     1.0  0.80795  0.73559  0.46083  1.0000
  C   C1025     1.0  0.94143  0.94606  0.47184  1.0000
  C   C1026     1.0  0.73915  0.97548  0.46478  1.0000
  H   H1832     1.0  0.85629  0.65896  0.05494  1.0000
  C   C1027     1.0  0.78690  0.74250  0.46237  1.0000
  N   N56       1.0  0.90052  0.65776  0.06090  1.0000
  N   N57       1.0  0.76946  0.97969  0.46947  1.0000
  C   C1028     1.0  0.74173  0.91594  0.97658  1.0000
  H   H1833     1.0  0.92118  0.65275  0.02936  1.0000
  S   S228      1.0  0.55150  0.65255  0.45540  1.0000
  C   C1029     1.0  0.49465  0.65232  0.45929  1.0000
  H   H1834     1.0  0.49811  0.66598  0.47043  1.0000
  H   H1835     1.0  0.48800  0.71212  0.46455  1.0000
  H   H1836     1.0  0.80296  0.77599  0.46872  1.0000
  H   H1837     1.0  0.68536  0.95895  0.46924  1.0000
  Fe  Fe114     1.0  0.64165  0.81586  0.85219  1.0000
  S   S229      1.0  0.66442  0.79455  0.82826  1.0000
  S   S230      1.0  0.66358  0.83878  0.87803  1.0000
  Fe  Fe115     1.0  0.58373  0.79418  0.83900  1.0000
  S   S231      1.0  0.60456  0.77182  0.81471  1.0000
  S   S232      1.0  0.53768  0.78321  0.84316  1.0000
  Fe  Fe116     1.0  0.63707  0.76650  0.84159  1.0000
  S   S233      1.0  0.65184  0.73133  0.85079  1.0000
  Fe  Fe117     1.0  0.62964  0.80178  0.80337  1.0000
  S   S234      1.0  0.63580  0.81463  0.76680  1.0000
  S   S235      1.0  0.61548  0.78723  0.86635  1.0000
  S   S236      1.0  0.60773  0.82484  0.82675  1.0000
  Fe  Fe118     1.0  0.81708  0.88448  0.93350  1.0000
  H   H1838     1.0  0.49725  0.84133  0.58454  1.0000
  S   S237      1.0  0.78757  0.87049  0.90599  1.0000
  Fe  Fe119     1.0  0.87997  0.89692  0.94201  1.0000
  S   S238      1.0  0.92221  0.89921  0.92482  1.0000
  H   H1839     1.0  0.82653  0.94088  0.88651  1.0000
  H   H1840     1.0  0.79936  0.97861  0.92430  1.0000
  S   S239      1.0  0.85540  0.86489  0.94209  1.0000
  S   S240      1.0  0.84263  0.91641  0.92997  1.0000
  Fe  Fe120     1.0  0.63186  0.78539  0.62951  1.0000
  S   S241      1.0  0.62829  0.81884  0.61147  1.0000
  S   S242      1.0  0.63314  0.77604  0.66723  1.0000
  Fe  Fe121     1.0  0.62362  0.75993  0.58515  1.0000
  S   S243      1.0  0.61879  0.79176  0.56480  1.0000
  S   S244      1.0  0.61243  0.72542  0.57233  1.0000
  Fe  Fe122     1.0  0.65564  0.80456  0.58478  1.0000
  S   S245      1.0  0.69256  0.82029  0.56479  1.0000
  Fe  Fe123     1.0  0.59216  0.80316  0.59296  1.0000
  S   S246      1.0  0.55069  0.82104  0.58877  1.0000
  S   S247      1.0  0.66127  0.77171  0.60413  1.0000
  S   S248      1.0  0.59482  0.77076  0.61193  1.0000
  Fe  Fe124     1.0  0.82944  0.88896  0.50930  1.0000
  H   H1841     1.0  0.75651  0.78688  0.91736  1.0000
  S   S249      1.0  0.79902  0.88217  0.53867  1.0000
  H   H1842     1.0  0.51181  0.71926  0.50031  1.0000
  H   H1843     1.0  0.90863  0.94655  0.55065  1.0000
  H   H1844     1.0  0.80973  0.91399  0.88272  1.0000
  C   C1030     1.0  0.93173  0.84308  0.96085  1.0000
  S   S250      1.0  0.86613  0.91295  0.51402  1.0000
  H   H1845     1.0  0.51522  0.69961  0.87800  1.0000
  H   H1846     1.0  0.51441  0.76052  0.91732  1.0000
  H   H1847     1.0  0.59421  0.84827  0.65324  1.0000
  C   C1031     1.0  0.96824  0.89062  0.49978  1.0000
  C   C1032     1.0  0.50776  0.79936  0.66283  1.0000
  C   C1033     1.0  0.97271  0.90659  0.51613  1.0000
  C   C1034     1.0  0.54503  0.75517  0.55842  1.0000
  H   H1848     1.0  0.77096  0.94719  0.95279  1.0000
  C   C1035     1.0  0.54934  0.72299  0.53185  1.0000
  C   C1036     1.0  0.63000  0.70854  0.55331  1.0000
  C   C1037     1.0  0.65485  0.71517  0.54316  1.0000
  C   C1038     1.0  0.66765  0.70102  0.52796  1.0000
  C   C1039     1.0  0.65528  0.68053  0.52225  1.0000
  C   C1040     1.0  0.63031  0.67409  0.53224  1.0000
  C   C1041     1.0  0.61804  0.68786  0.54794  1.0000
  H   H1849     1.0  0.66436  0.73101  0.54722  1.0000
  H   H1850     1.0  0.68716  0.70600  0.52054  1.0000
  H   H1851     1.0  0.64081  0.82513  0.92743  1.0000
  H   H1852     1.0  0.59918  0.68239  0.55611  1.0000
  C   C1042     1.0  0.51665  0.80984  0.59239  1.0000
  C   C1043     1.0  0.57660  0.66473  0.91445  1.0000
  H   H1853     1.0  0.65541  0.77518  0.92844  1.0000
  H   H1854     1.0  0.52907  0.77631  0.60077  1.0000
  H   H1855     1.0  0.55540  0.69524  0.82494  1.0000
  C   C1044     1.0  0.72192  0.83781  0.55748  1.0000
  C   C1045     1.0  0.73219  0.85428  0.57171  1.0000
  C   C1046     1.0  0.75564  0.86747  0.56565  1.0000
  C   C1047     1.0  0.76931  0.86471  0.54518  1.0000
  C   C1048     1.0  0.75903  0.84827  0.53090  1.0000
  C   C1049     1.0  0.73565  0.83494  0.53705  1.0000
  H   H1856     1.0  0.72194  0.85698  0.58736  1.0000
  H   H1857     1.0  0.76316  0.88008  0.57689  1.0000
  H   H1858     1.0  0.76912  0.84578  0.51512  1.0000
  H   H1859     1.0  0.72811  0.82233  0.52582  1.0000
  C   C1050     1.0  0.95557  0.89819  0.93778  1.0000
  C   C1051     1.0  0.73884  0.79757  0.92144  1.0000
  H   H1860     1.0  0.97644  0.94667  0.96751  1.0000
  H   H1861     1.0  0.67554  0.97611  0.49205  1.0000
  H   H1862     1.0  0.71837  0.83438  0.85656  1.0000
  C   C1052     1.0  0.65110  0.71970  0.87843  1.0000
  C   C1053     1.0  0.64791  0.73313  0.89693  1.0000
  C   C1054     1.0  0.64638  0.72344  0.91861  1.0000
  C   C1055     1.0  0.64794  0.70022  0.92212  1.0000
  C   C1056     1.0  0.65163  0.68672  0.90367  1.0000
  C   C1057     1.0  0.65335  0.69648  0.88192  1.0000
  H   H1863     1.0  0.64595  0.75094  0.89445  1.0000
  H   H1864     1.0  0.64338  0.73396  0.93278  1.0000
  S   S251      1.0  0.80745  0.88956  0.96978  1.0000
  H   H1865     1.0  0.65607  0.68595  0.86772  1.0000
  C   C1058     1.0  0.50436  0.79601  0.84263  1.0000
  C   C1059     1.0  0.50092  0.81898  0.84485  1.0000
  H   H1866     1.0  0.70189  0.76087  0.85283  1.0000
  H   H1867     1.0  0.51894  0.82975  0.84643  1.0000
  C   C1060     1.0  0.57150  0.69192  0.88126  1.0000
  C   C1061     1.0  0.63397  0.78734  0.69467  1.0000
  C   C1062     1.0  0.63071  0.77271  0.71338  1.0000
  C   C1063     1.0  0.63119  0.78065  0.73547  1.0000
  C   C1064     1.0  0.63528  0.80341  0.73927  1.0000
  C   C1065     1.0  0.63866  0.81803  0.72052  1.0000
  C   C1066     1.0  0.63792  0.81012  0.69841  1.0000
  H   H1868     1.0  0.62778  0.75504  0.71078  1.0000
  H   H1869     1.0  0.62859  0.76913  0.74958  1.0000
  H   H1870     1.0  0.64178  0.83567  0.72317  1.0000
  H   H1871     1.0  0.64054  0.82164  0.68431  1.0000
  C   C1067     1.0  0.69824  0.84807  0.88491  1.0000
  C   C1068     1.0  0.70285  0.85992  0.90476  1.0000
  C   C1069     1.0  0.72982  0.86658  0.91166  1.0000
  C   C1070     1.0  0.75282  0.86208  0.89850  1.0000
  C   C1071     1.0  0.74818  0.85051  0.87851  1.0000
  C   C1072     1.0  0.72127  0.84338  0.87187  1.0000
  H   H1872     1.0  0.68538  0.86367  0.91510  1.0000
  H   H1873     1.0  0.73278  0.87528  0.92710  1.0000
  H   H1874     1.0  0.76562  0.84691  0.86807  1.0000
  N   N58       1.0  0.55652  0.71102  0.86968  1.0000
  C   C1073     1.0  0.57304  0.71873  0.84955  1.0000
  C   C1074     1.0  0.55354  0.73046  0.88498  1.0000
  H   H1875     1.0  0.53815  0.72658  0.89828  1.0000
  C   C1075     1.0  0.70667  0.78174  0.89387  1.0000
  H   H1876     1.0  0.53232  0.84013  0.64333  1.0000
  C   C1076     1.0  0.57580  0.70158  0.83072  1.0000
  H   H1877     1.0  0.52902  0.68673  0.85448  1.0000
  C   C1077     1.0  0.58060  0.73858  0.89643  1.0000
  C   C1078     1.0  0.57578  0.75840  0.91133  1.0000
  C   C1079     1.0  0.78950  0.76304  0.47690  1.0000
  C   C1080     1.0  0.59027  0.71202  0.81030  1.0000
  H   H1878     1.0  0.59453  0.72306  0.85464  1.0000
  H   H1879     1.0  0.56470  0.73459  0.84216  1.0000
  H   H1880     1.0  0.55797  0.74643  0.57130  1.0000
  H   H1881     1.0  0.54521  0.74519  0.87550  1.0000
  H   H1882     1.0  0.62090  0.65816  0.52837  1.0000
  H   H1883     1.0  0.69443  0.75214  0.92377  1.0000
  C   C1081     1.0  0.68923  0.97521  0.47729  1.0000
  C   C1082     1.0  0.97450  0.97369  0.48779  1.0000
  C   C1083     1.0  0.78102  0.96609  0.51071  1.0000
  C   C1084     1.0  0.72504  0.94160  0.90910  1.0000
  H   H1884     1.0  0.72270  0.91407  0.94420  1.0000
  C   C1085     1.0  0.68899  0.80047  0.92642  1.0000
  C   C1086     1.0  0.52800  0.70304  0.86290  1.0000
  H   H1885     1.0  0.58982  0.72520  0.90716  1.0000
  H   H1886     1.0  0.59574  0.74404  0.88364  1.0000
  H   H1887     1.0  0.56664  0.77252  0.90146  1.0000
  H   H1888     1.0  0.56207  0.75346  0.92545  1.0000
  H   H1889     1.0  0.59592  0.76411  0.91842  1.0000
  H   H1890     1.0  0.95189  0.97025  0.92555  1.0000
  S   S252      1.0  0.67254  0.66252  0.50410  1.0000
  H   H1891     1.0  0.49775  0.78714  0.92026  1.0000
  H   H1892     1.0  0.61124  0.71828  0.81493  1.0000
  H   H1893     1.0  0.59256  0.69931  0.79730  1.0000
  H   H1894     1.0  0.57798  0.72605  0.80304  1.0000
  N   N59       1.0  0.73540  0.80871  0.63658  1.0000
  C   C1087     1.0  0.72147  0.79115  0.65135  1.0000
  C   C1088     1.0  0.73143  0.80247  0.61249  1.0000
  C   C1089     1.0  0.76573  0.80982  0.64285  1.0000
  C   C1090     1.0  0.72314  0.83141  0.63971  1.0000
  C   C1091     1.0  0.69166  0.83324  0.63488  1.0000
  C   C1092     1.0  0.71775  0.79723  0.67623  1.0000
  C   C1093     1.0  0.78445  0.82430  0.62703  1.0000
  C   C1094     1.0  0.74499  0.78037  0.60569  1.0000
  C   C1095     1.0  0.74058  0.77638  0.58074  1.0000
  C   C1096     1.0  0.68061  0.85556  0.64241  1.0000
  C   C1097     1.0  0.70868  0.77687  0.69043  1.0000
  C   C1098     1.0  0.81456  0.82401  0.63511  1.0000
  H   H1895     1.0  0.73329  0.77533  0.65128  1.0000
  H   H1896     1.0  0.70063  0.78657  0.64458  1.0000
  H   H1897     1.0  0.70906  0.80064  0.60848  1.0000
  H   H1898     1.0  0.73878  0.81615  0.60100  1.0000
  H   H1899     1.0  0.77460  0.79277  0.64412  1.0000
  H   H1900     1.0  0.76845  0.81663  0.65987  1.0000
  H   H1901     1.0  0.72756  0.83729  0.65691  1.0000
  H   H1902     1.0  0.73306  0.84403  0.62831  1.0000
  H   H1903     1.0  0.67958  0.81980  0.64353  1.0000
  H   H1904     1.0  0.68764  0.83229  0.61659  1.0000
  H   H1905     1.0  0.73722  0.80379  0.68365  1.0000
  H   H1906     1.0  0.70160  0.81011  0.67769  1.0000
  H   H1907     1.0  0.77785  0.84196  0.62638  1.0000
  H   H1908     1.0  0.78405  0.81808  0.60972  1.0000
  H   H1909     1.0  0.76760  0.78060  0.60895  1.0000
  H   H1910     1.0  0.73569  0.76594  0.61507  1.0000
  H   H1911     1.0  0.75075  0.76067  0.57616  1.0000
  H   H1912     1.0  0.71815  0.77483  0.57669  1.0000
  H   H1913     1.0  0.74959  0.79037  0.57048  1.0000
  H   H1914     1.0  0.68318  0.85704  0.66082  1.0000
  H   H1915     1.0  0.69161  0.86966  0.63373  1.0000
  H   H1916     1.0  0.65822  0.85669  0.63822  1.0000
  H   H1917     1.0  0.72543  0.76437  0.69152  1.0000
  H   H1918     1.0  0.70375  0.78206  0.70763  1.0000
  H   H1919     1.0  0.68988  0.76895  0.68315  1.0000
  H   H1920     1.0  0.82262  0.80672  0.63535  1.0000
  H   H1921     1.0  0.82745  0.83448  0.62353  1.0000
  H   H1922     1.0  0.81646  0.83086  0.65215  1.0000
  H   H1923     1.0  0.75541  0.98040  0.89974  1.0000
  H   H1924     1.0  0.72600  0.74966  0.88792  1.0000
  H   H1925     1.0  0.69862  0.92541  0.87044  1.0000
  H   H1926     1.0  0.53358  0.74161  0.49158  1.0000
  H   H1927     1.0  0.54827  0.77343  0.56017  1.0000
  H   H1928     1.0  0.56040  0.68187  0.49429  1.0000
  C   C1099     1.0  0.52771  0.67785  0.51818  1.0000
  H   H1929     1.0  0.59367  0.69636  0.88417  1.0000
  H   H1930     1.0  0.73183  0.82236  0.94704  1.0000
  C   C1100     1.0  0.56085  0.81831  0.73246  1.0000
  H   H1931     1.0  0.55300  0.72978  0.67100  1.0000
  H   H1932     1.0  0.49371  0.78356  0.55193  1.0000
  H   H1933     1.0  0.94027  0.97343  0.95403  1.0000
  H   H1934     1.0  0.73922  0.79492  0.95844  1.0000
  C   C1101     1.0  0.55324  0.74855  0.53492  1.0000
  H   H1935     1.0  0.65307  0.66882  0.90615  1.0000
  H   H1936     1.0  0.53791  0.67626  0.90108  1.0000
  S   S253      1.0  0.64456  0.68934  0.94987  1.0000
  H   H1937     1.0  0.58838  0.68720  0.83669  1.0000
  H   H1938     1.0  0.70654  0.97100  0.89245  1.0000
  H   H1939     1.0  0.49783  0.83514  0.66725  1.0000
  C   C1102     1.0  0.90749  0.95977  0.53728  1.0000
  C   C1103     1.0  0.77483  0.81435  0.94766  1.0000
  C   C1104     1.0  0.58320  0.72333  0.50169  1.0000
  H   H1940     1.0  0.50881  0.79879  0.64423  1.0000
  H   H1941     1.0  0.54897  0.80575  0.74257  1.0000
  H   H1942     1.0  0.56690  0.65846  0.93022  1.0000
  C   C1105     1.0  0.51121  0.71942  0.84764  1.0000
  H   H1943     1.0  0.53719  0.76686  0.68939  1.0000
  H   H1944     1.0  0.91254  0.97611  0.54477  1.0000
  C   C1106     1.0  0.91903  0.83206  0.94033  1.0000
  H   H1945     1.0  0.95311  0.84827  0.95645  1.0000
  H   H1946     1.0  0.81151  0.93410  0.85980  1.0000
  H   H1947     1.0  0.69126  0.81733  0.91849  1.0000
  H   H1948     1.0  0.69093  0.80292  0.94477  1.0000
  Fe  Fe125     1.0  0.83461  0.92095  0.96660  1.0000
  C   C1107     1.0  0.97928  0.89697  0.92439  1.0000
  H   H1949     1.0  0.72483  0.78487  0.84955  1.0000
  H   H1950     1.0  0.51964  0.75620  0.65291  1.0000
  H   H1951     1.0  0.93734  0.94679  0.94098  1.0000
  C   C1108     1.0  0.55505  0.68931  0.51043  1.0000
  H   H1952     1.0  0.56964  0.77580  0.67845  1.0000
  H   H1953     1.0  0.55011  0.83458  0.73235  1.0000
  H   H1954     1.0  0.75068  0.75928  0.94764  1.0000
  H   H1955     1.0  0.54737  0.84623  0.67043  1.0000
  C   C1109     1.0  0.74311  0.91919  0.95114  1.0000
  H   H1956     1.0  0.59727  0.72442  0.51656  1.0000
  H   H1957     1.0  0.79544  0.94274  0.91969  1.0000
  C   C1110     1.0  0.97920  0.95565  0.95118  1.0000
  H   H1958     1.0  0.65381  0.79354  0.90398  1.0000
  C   C1111     1.0  0.72286  0.76761  0.85668  1.0000
  C   C1112     1.0  0.74451  0.80723  0.94491  1.0000
  H   H1959     1.0  0.97695  0.83766  0.54779  1.0000
  H   H1960     1.0  0.80310  0.95870  0.48144  1.0000
  H   H1961     1.0  0.61675  0.80202  0.92952  1.0000
  C   C1113     1.0  0.53254  0.72311  0.49314  1.0000
  Fe  Fe126     1.0  0.85336  0.92869  0.48076  1.0000
  H   H1962     1.0  0.76503  0.93330  0.87530  1.0000
  H   H1963     1.0  0.78858  0.79969  0.94702  1.0000
  H   H1964     1.0  0.70756  0.94260  0.92105  1.0000
  C   C1114     1.0  0.95901  0.89869  0.96101  1.0000
  H   H1965     1.0  0.76881  0.77021  0.47984  1.0000
  H   H1966     1.0  0.92245  0.93791  0.51261  1.0000
  H   H1967     1.0  0.57199  0.67728  0.87024  1.0000
  H   H1968     1.0  0.52213  0.68286  0.53525  1.0000
  C   C1115     1.0  0.56450  0.81023  0.70864  1.0000
  H   H1969     1.0  0.81048  0.93992  0.51965  1.0000
  H   H1970     1.0  0.52293  0.75105  0.56155  1.0000
  H   H1971     1.0  0.54031  0.75834  0.52290  1.0000
  H   H1972     1.0  0.97689  0.89677  0.90637  1.0000
  H   H1973     1.0  0.52777  0.71890  0.53691  1.0000
  C   C1116     1.0  0.98568  0.89709  0.97076  1.0000
  C   C1117     1.0  0.73091  0.72714  0.94576  1.0000
  N   N60       1.0  0.94514  0.96966  0.47985  1.0000
  C   C1118     1.0  0.92786  0.95472  0.51875  1.0000
  H   H1974     1.0  0.52192  0.72329  0.83165  1.0000
  C   C1119     1.0  0.55074  0.83788  0.65442  1.0000
  H   H1975     1.0  0.70133  0.76613  0.94884  1.0000
  H   H1976     1.0  0.49493  0.79614  0.52428  1.0000
  Fe  Fe127     1.0  0.89081  0.88884  0.49402  1.0000
  H   H1977     1.0  0.78963  0.94880  0.54245  1.0000
  H   H1978     1.0  0.54715  0.77029  0.63851  1.0000
  H   H1979     1.0  0.73540  0.98264  0.92412  1.0000
  H   H1980     1.0  0.91868  0.84432  0.92602  1.0000
  C   C1120     1.0  0.75058  0.94382  0.94466  1.0000
  C   C1121     1.0  0.54177  0.76124  0.65422  1.0000
  S   S254      1.0  0.85548  0.86361  0.49196  1.0000
  H   H1981     1.0  0.75889  0.90768  0.94501  1.0000
  H   H1982     1.0  0.57845  0.84311  0.62620  1.0000
  C   C1122     1.0  0.55649  0.81270  0.65794  1.0000
  H   H1983     1.0  0.67364  0.93881  0.88782  1.0000
  N   N61       1.0  0.53669  0.79970  0.67291  1.0000
  H   H1984     1.0  0.51587  0.78139  0.89492  1.0000
  H   H1985     1.0  0.89742  0.82649  0.94372  1.0000
  C   C1123     1.0  0.53620  0.80871  0.69626  1.0000
  H   H1986     1.0  0.52166  0.79536  0.78101  1.0000
  C   C1124     1.0  0.55900  0.68327  0.90377  1.0000
  H   H1987     1.0  0.94879  0.95415  0.52647  1.0000
  C   C1125     1.0  0.57500  0.84997  0.64298  1.0000
  C   C1126     1.0  0.63820  0.80755  0.93356  1.0000
  H   H1988     1.0  0.50681  0.81770  0.79613  1.0000
  H   H1989     1.0  0.74856  0.74846  0.92011  1.0000
  H   H1990     1.0  0.72664  0.92356  0.90514  1.0000
  H   H1991     1.0  0.73825  0.75700  0.84852  1.0000
  H   H1992     1.0  0.56300  0.71446  0.54452  1.0000
  H   H1993     1.0  0.71805  0.71720  0.93401  1.0000
  C   C1127     1.0  0.70971  0.76354  0.93182  1.0000
  S   S255      1.0  0.93574  0.87653  0.49671  1.0000
  H   H1994     1.0  0.78078  0.82665  0.93422  1.0000
  C   C1128     1.0  0.59968  0.70954  0.48484  1.0000
  C   C1129     1.0  0.78942  0.94522  0.52431  1.0000
  C   C1130     1.0  0.49378  0.82393  0.58911  1.0000
  H   H1995     1.0  0.58154  0.74074  0.49480  1.0000
  C   C1131     1.0  0.80900  0.93210  0.87820  1.0000
  H   H1996     1.0  0.57170  0.68369  0.52215  1.0000
  C   C1132     1.0  0.77630  0.93815  0.91037  1.0000
  H   H1997     1.0  0.55661  0.80571  0.64089  1.0000
  H   H1998     1.0  0.57032  0.86798  0.64072  1.0000
  H   H1999     1.0  0.74023  0.81193  0.90920  1.0000
  C   C1133     1.0  0.65878  0.79256  0.92213  1.0000
  H   H2000     1.0  0.79886  0.75826  0.49337  1.0000
  H   H2001     1.0  0.52761  0.82575  0.69635  1.0000
  H   H2002     1.0  0.70533  0.79816  0.88468  1.0000
  H   H2003     1.0  0.88597  0.96012  0.53054  1.0000
  H   H2004     1.0  0.63891  0.72664  0.49158  1.0000
  H   H2005     1.0  0.68652  0.77321  0.89090  1.0000
  C   C1134     1.0  0.98014  0.85473  0.55418  1.0000
  C   C1135     1.0  0.51178  0.78738  0.59826  1.0000
  H   H2006     1.0  0.74954  0.77331  0.88465  1.0000
  H   H2007     1.0  0.76057  0.97132  0.51662  1.0000
  H   H2008     1.0  0.58138  0.82061  0.74061  1.0000
  N   N62       1.0  0.71152  0.78537  0.91855  1.0000
  H   H2009     1.0  0.52195  0.79828  0.70687  1.0000
  C   C1136     1.0  0.54693  0.77595  0.67491  1.0000
  H   H2010     1.0  0.73545  0.95464  0.95302  1.0000
  H   H2011     1.0  0.77427  0.91975  0.91287  1.0000
  C   C1137     1.0  0.62557  0.72231  0.47703  1.0000
  H   H2012     1.0  0.57820  0.81073  0.66411  1.0000
  C   C1138     1.0  0.92628  0.97268  0.49954  1.0000
  C   C1139     1.0  0.69121  0.94174  0.87622  1.0000
  H   H2013     1.0  0.57469  0.79378  0.70998  1.0000
  H   H2014     1.0  0.57520  0.75374  0.53263  1.0000
  H   H2015     1.0  0.55463  0.72976  0.64082  1.0000
  H   H2016     1.0  0.77805  0.82239  0.96402  1.0000
  H   H2017     1.0  0.57851  0.82227  0.69980  1.0000
  H   H2018     1.0  0.93144  0.81751  0.93555  1.0000
  H   H2019     1.0  0.58121  0.74390  0.65654  1.0000
  N   N63       1.0  0.55502  0.71451  0.50873  1.0000
  C   C1140     1.0  0.72804  0.76730  0.88196  1.0000
  H   H2020     1.0  0.64116  0.80667  0.95202  1.0000
  H   H2021     1.0  0.78205  0.95990  0.88018  1.0000
  H   H2022     1.0  0.55776  0.69672  0.91607  1.0000
  H   H2023     1.0  0.95578  0.91122  0.52662  1.0000
  C   C1141     1.0  0.55870  0.73987  0.65584  1.0000
  C   C1142     1.0  0.73691  0.75044  0.93573  1.0000
  C   C1143     1.0  0.50587  0.80867  0.78015  1.0000
  H   H2024     1.0  0.91963  0.85832  0.96377  1.0000
  H   H2025     1.0  0.95426  0.93443  0.48225  1.0000
  H   H2026     1.0  0.51053  0.68209  0.50645  1.0000
  H   H2027     1.0  0.59760  0.67117  0.91864  1.0000
  H   H2028     1.0  0.68366  0.95157  0.86140  1.0000
  H   H2029     1.0  0.77457  0.93124  0.52146  1.0000
  N   N64       1.0  0.75169  0.94969  0.91990  1.0000
  H   H2030     1.0  0.51104  0.82053  0.76616  1.0000
  C   C1144     1.0  0.78145  0.94194  0.88504  1.0000
  H   H2031     1.0  0.50798  0.73530  0.85620  1.0000
  H   H2032     1.0  0.49643  0.78388  0.66831  1.0000
  C   C1145     1.0  0.95048  0.96204  0.94240  1.0000
  C   C1146     1.0  0.78100  0.96171  0.48520  1.0000
  C   C1147     1.0  0.50270  0.77388  0.90836  1.0000
  C   C1148     1.0  0.48799  0.81844  0.66897  1.0000
  H   H2033     1.0  0.75064  0.71822  0.94893  1.0000
  H   H2034     1.0  0.77023  0.94544  0.48246  1.0000
  H   H2035     1.0  0.96477  0.86586  0.54578  1.0000
  Fe  Fe128     1.0  0.64214  0.65444  0.96649  1.0000
  H   H2036     1.0  0.77783  0.98341  0.94811  1.0000
  H   H2037     1.0  0.97635  0.85458  0.57249  1.0000
  H   H2038     1.0  0.60664  0.69369  0.49301  1.0000
  C   C1149     1.0  0.71467  0.95451  0.88777  1.0000
  C   C1150     1.0  0.75436  0.97481  0.91755  1.0000
  H   H2039     1.0  0.97990  0.96154  0.50149  1.0000
  H   H2040     1.0  0.90437  0.97309  0.49371  1.0000
  H   H2041     1.0  0.72330  0.96341  0.49713  1.0000
  H   H2042     1.0  0.73117  0.95763  0.87538  1.0000
  S   S256      1.0  0.81559  0.90636  0.47709  1.0000
  H   H2043     1.0  0.71981  0.72824  0.96187  1.0000
  C   C1151     1.0  0.53037  0.65246  0.51902  1.0000
  H   H2044     1.0  0.85971  0.97892  0.95260  1.0000
  H   H2045     1.0  0.94104  0.90043  0.97139  1.0000
  H   H2046     1.0  0.79627  0.97950  0.51461  1.0000
  C   C1152     1.0  0.71946  0.97728  0.48485  1.0000
  H   H2047     1.0  0.57844  0.65055  0.90300  1.0000
  H   H2048     1.0  0.91965  0.94024  0.47430  1.0000
