data_image0
_chemical_formula_structural       FeH3FeS2NHC2FeCH2SH2SC2HC5HCH2CH3CFeCH6FeNH5CH3C2H3SH3CH2CNHCH2CH2CH2CSH2SHC2H3CH2C2H2CHCHCH3SC3H6CHSC2HCHC2HC2HC3H2CH3CH3C2H2CHC2H4C2H2CSH2C2H2CH2C2HNCHSC3H4C2H2CH2SCSCH4C2H3CH2CHSH2CHFeH3CH4CFeC2HCHCHCH3CH4SC3HC2HC3H6C2HSHC2H5CHC2FeH2NCH2CHCSHCH9FeSHC2H3SHCHCH3CH3C3H2CHCHCH3SC2HCH4CH3SCSH3SH3SC5FeHC3SHFeHFeHCSFeHFeHCNH3C3H2S3CSHCSH3FeHFeNCH5CHCH2FeH3CH2CH4CHCHC2H2CHCH6FeH7CH4CH4SC2HCH2C2HSFeC2H2CSH3SCHSHCHCH2FeC4H2CHFeH3S2HCHCHCNH3SH2CHC2HFeCS2HCSH2NSHCH2CHCH2SFeHFeH5C3H2CHCHCSH3CH2CH3SH2CH4C2H2CHC2NH3C2FeH2CHCH6CH2CSH3C2H2S2CH3CH2CH2FeH2CSC5HC2H2CHSHCH3CHSHCH2NHSH2SH2C2HFeNH2NCHC4H5CH2SHCFeHCH5CH2C2HCH3C3H4CHC2HCH2CH2C2H8CSCH3SHC2H2C2H4CHC2NHFeCH3FeC2H3NH3FeH3CHCHC2SHCHSH6CHFeNHC3S2HCH2CSH7C3H2SHCFeH2CHC3H2SCH2SH3SHCH3C4HCH3C2H2CHCH2C2H2CH7FeHFeCH3SH3CH4C3SCH3CSFeCHCH4FeH3CH6SH5CSHC2HC2H6C2H5CSCH2CHC2H2SNCHC3H2CH2FeHC4H2CH2S2HSH5CHC2H2C2SC3H3CHCSH2C2HC2HCH5CH2SH2CHCH5CH2CHSH2CHC2H3NH2CH2CHNH2C3NHCH3C2HCH2CSH4C4HCFe2NH2CH3C3H5SH2C2H2CH3SH4CHCHCH4CH2CH3CH2FeHCH2C2H3CSH5CHSC3FeH5SH7FeCFeCH2C3SC3H2FeSHC3H2CH3NCH2C3H2FeSH3SFeH2C3H6CHCSH2C2HFeC6HSHSHCH2SFeNCH2SH2CH2C2H2CH3C2H5CNH2FeSHCHNCH2CSH3SCHNH3C2HCHC2HCHCSCSHCH7CH10C2HNC4H5C2HC2H4CH4CH3CHC2H4CH6CH3CH2CHC2H2CH4CH2CHCH8C2FeH2C2SC2H7SCHCH2CHSHCHSCH2SH2C2HCHCHCFeH4CHCHC2H2SH2CH7C3FeCH2FeC3HCHCHCHSHSH2C2FeCH2CH2C2HFeCSC2HFeH3S2H2C3H3FeCNH3SCHCH2CHC2SC2SH3CH2C3H3C2H2C2H16CH5C3H5N2CHC2HCNHCH3C2H4CH3CH2CSCH2C2H5SH2C2HCH7CHCH2NC2HC2H2CHSHC2H2C2HCH5C3HCHCHC3HC2H3CHC2HC2HCFeH6CH4C2FeCHC2H2CH2CH2S5HFeH2FeCHFeCHCFeH4CHSC2FeSFeHC2H3SH3SCFeSCHCHCHC2HSCH2CSHFeCFeHS2H3CH2CHSHFeCH3NH4CHS2H3C2HCHCH5SC2H4C5H2CH2SCHCH2CH2CH2C2H5CHC2NHC2HC2H2C2H7NH3CH7C2H16CH3SC2HCHC2HCHC2H2C2H7C4HCHCH4CH2CH5Fe2C3SNH2C2HCFeC2SH2FeSFe2SHNC2HCH6CHSCHSHFeH4FeCSHFeSHCSC2HCH2C4H2CH3CH2CHCH5C3HSC2H5S2CH2CSC2HCH5SC2H3CH2C2H8SCH4SHCHC3SHCHC3HCH5SCH4C2H2CH2C2H4NH5CHC2HC2HSCH2C2SCH2CH3C2H4CHC2HCH2CHSNH4CH2SH4CH7CHC2H2CH4C2H2NCH2FeC2H3CH5CHCH3SH2C
_chemical_formula_sum              "Fe80 H1280 S160 N40 C720"
_cell_length_a       34.0221
_cell_length_b       34.604
_cell_length_c       23.0948
_cell_angle_alpha    71.4441
_cell_angle_beta     93.1357
_cell_angle_gamma    89.9438

_space_group_name_H-M_alt    "P 1"
_space_group_IT_number       1

loop_
  _space_group_symop_operation_xyz
  'x, y, z'

loop_
  _atom_site_type_symbol
  _atom_site_label
  _atom_site_symmetry_multiplicity
  _atom_site_fract_x
  _atom_site_fract_y
  _atom_site_fract_z
  _atom_site_occupancy
  Fe  Fe1       1.0  0.42312  0.28915  0.86420  1.0000
  H   H1        1.0  0.25253  0.17337  0.88405  1.0000
  H   H2        1.0  0.50788  0.92117  0.87537  1.0000
  H   H3        1.0  0.37202  0.09861  0.90359  1.0000
  Fe  Fe2       1.0  0.36889  0.94474  0.96405  1.0000
  S   S1        1.0  0.41908  0.29424  0.95825  1.0000
  S   S2        1.0  0.11865  0.92432  0.02894  1.0000
  N   N1        1.0  0.23867  0.22542  0.02244  1.0000
  H   H4        1.0  0.30087  0.35165  0.07080  1.0000
  C   C1        1.0  0.55539  0.20442  0.90722  1.0000
  C   C2        1.0  0.22075  0.94337  0.94213  1.0000
  Fe  Fe3       1.0  0.39047  0.89754  0.87962  1.0000
  C   C3        1.0  0.44973  0.97028  0.02909  1.0000
  H   H5        1.0  0.29068  0.19415  0.07289  1.0000
  H   H6        1.0  0.54228  0.33668  0.86661  1.0000
  S   S3        1.0  0.56634  0.35818  0.07525  1.0000
  H   H7        1.0  0.34765  0.14386  0.94790  1.0000
  H   H8        1.0  0.50259  0.28894  0.94082  1.0000
  S   S4        1.0  0.32886  0.98869  0.89331  1.0000
  C   C4        1.0  0.16221  0.06240  0.87552  1.0000
  C   C5        1.0  0.45550  0.33667  0.02578  1.0000
  H   H9        1.0  0.42620  0.34193  0.03788  1.0000
  C   C6        1.0  0.29776  0.33555  0.87992  1.0000
  C   C7        1.0  0.49853  0.30697  0.97074  1.0000
  C   C8        1.0  0.53135  0.32122  0.99714  1.0000
  C   C9        1.0  0.49637  0.19605  0.08626  1.0000
  C   C10       1.0  0.49372  0.10263  0.01057  1.0000
  H   H10       1.0  0.40327  0.05567  0.92793  1.0000
  C   C11       1.0  0.34000  0.38276  0.96329  1.0000
  H   H11       1.0  0.46266  0.05342  0.99053  1.0000
  H   H12       1.0  0.17176  0.32882  0.07438  1.0000
  C   C12       1.0  0.48803  0.35186  0.05069  1.0000
  H   H13       1.0  0.51100  0.11125  0.96912  1.0000
  H   H14       1.0  0.54591  0.09005  0.07265  1.0000
  H   H15       1.0  0.51967  0.25591  0.85311  1.0000
  C   C13       1.0  0.57822  0.17092  0.90685  1.0000
  Fe  Fe4       1.0  0.30809  0.93395  0.87100  1.0000
  C   C14       1.0  0.15682  0.92263  0.98187  1.0000
  H   H16       1.0  0.26930  0.24581  0.93812  1.0000
  H   H17       1.0  0.44108  0.07103  0.04449  1.0000
  H   H18       1.0  0.32358  0.31734  0.90595  1.0000
  H   H19       1.0  0.48397  0.07177  0.89971  1.0000
  H   H20       1.0  0.30807  0.37827  0.95579  1.0000
  H   H21       1.0  0.31374  0.03074  0.02186  1.0000
  Fe  Fe5       1.0  0.59218  0.98839  0.02501  1.0000
  N   N2        1.0  0.42603  0.10765  0.95108  1.0000
  H   H22       1.0  0.48395  0.36917  0.08160  1.0000
  H   H23       1.0  0.38832  0.22249  0.94794  1.0000
  H   H24       1.0  0.18110  0.08628  0.88496  1.0000
  H   H25       1.0  0.42303  0.14290  0.85498  1.0000
  H   H26       1.0  0.44141  0.07691  0.84792  1.0000
  C   C15       1.0  0.23673  0.20328  0.86620  1.0000
  H   H27       1.0  0.36401  0.27545  0.06262  1.0000
  H   H28       1.0  0.18094  0.19844  0.03157  1.0000
  H   H29       1.0  0.20271  0.24418  0.89724  1.0000
  C   C16       1.0  0.32563  0.05663  0.98540  1.0000
  C   C17       1.0  0.37303  0.16436  0.93678  1.0000
  H   H30       1.0  0.16445  0.32653  0.99775  1.0000
  H   H31       1.0  0.55944  0.92382  0.98724  1.0000
  H   H32       1.0  0.48758  0.13043  0.02286  1.0000
  S   S5        1.0  0.37695  0.94242  0.06192  1.0000
  H   H33       1.0  0.14723  0.07602  0.98114  1.0000
  H   H34       1.0  0.37537  0.17423  0.88665  1.0000
  H   H35       1.0  0.30887  0.08484  0.98219  1.0000
  C   C18       1.0  0.27517  0.22408  0.06338  1.0000
  H   H36       1.0  0.45434  0.24134  0.08934  1.0000
  H   H37       1.0  0.24801  0.09835  0.05273  1.0000
  C   C19       1.0  0.46434  0.09397  0.86515  1.0000
  N   N3        1.0  0.12090  0.07933  0.85512  1.0000
  H   H38       1.0  0.58179  0.30247  0.86453  1.0000
  C   C20       1.0  0.36323  0.20154  0.95536  1.0000
  H   H39       1.0  0.17769  0.25871  0.07934  1.0000
  H   H40       1.0  0.40706  0.13308  0.02011  1.0000
  C   C21       1.0  0.41168  0.14277  0.97048  1.0000
  H   H41       1.0  0.22019  0.16273  0.04208  1.0000
  H   H42       1.0  0.55851  0.93714  0.87488  1.0000
  C   C22       1.0  0.25198  0.21946  0.96441  1.0000
  H   H43       1.0  0.37119  0.36475  0.86673  1.0000
  H   H44       1.0  0.35213  0.33544  0.08707  1.0000
  C   C23       1.0  0.21716  0.26591  0.00541  1.0000
  S   S6        1.0  0.34386  0.88950  0.94686  1.0000
  H   H45       1.0  0.46763  0.14779  0.89447  1.0000
  H   H46       1.0  0.43514  0.98976  0.98740  1.0000
  S   S7        1.0  0.56943  0.03822  0.94092  1.0000
  H   H47       1.0  0.19777  0.19099  0.93930  1.0000
  C   C24       1.0  0.33135  0.36169  0.07730  1.0000
  C   C25       1.0  0.19176  0.94379  0.98312  1.0000
  H   H48       1.0  0.50910  0.90806  0.98678  1.0000
  H   H49       1.0  0.23661  0.02960  0.89478  1.0000
  H   H50       1.0  0.43471  0.16641  0.96433  1.0000
  C   C26       1.0  0.12148  0.09569  0.95793  1.0000
  H   H51       1.0  0.32082  0.05075  0.94128  1.0000
  H   H52       1.0  0.19062  0.26616  0.97490  1.0000
  C   C27       1.0  0.53083  0.93463  0.89874  1.0000
  C   C28       1.0  0.53782  0.23041  0.85247  1.0000
  H   H53       1.0  0.24822  0.95869  0.94384  1.0000
  H   H54       1.0  0.52099  0.96567  0.89667  1.0000
  C   C29       1.0  0.46061  0.31437  0.98573  1.0000
  H   H55       1.0  0.25065  0.04538  0.05829  1.0000
  C   C30       1.0  0.34205  0.25194  0.08242  1.0000
  H   H56       1.0  0.13217  0.12680  0.93549  1.0000
  C   C31       1.0  0.52599  0.34349  0.03739  1.0000
  H   H57       1.0  0.37123  0.07842  0.03380  1.0000
  H   H58       1.0  0.27189  0.19209  0.97591  1.0000
  H   H59       1.0  0.33743  0.21816  0.92671  1.0000
  S   S8        1.0  0.41835  0.95021  0.90109  1.0000
  C   C32       1.0  0.21346  0.92391  0.89798  1.0000
  C   C33       1.0  0.39246  0.08129  0.94250  1.0000
  C   C34       1.0  0.20236  0.27838  0.05912  1.0000
  H   H60       1.0  0.59250  0.35380  0.86340  1.0000
  H   H61       1.0  0.35477  0.35222  0.97470  1.0000
  H   H62       1.0  0.23558  0.29071  0.97774  1.0000
  H   H63       1.0  0.17346  0.88680  0.86418  1.0000
  H   H64       1.0  0.35608  0.22163  0.08999  1.0000
  H   H65       1.0  0.41373  0.38531  0.93556  1.0000
  C   C35       1.0  0.21907  0.21482  0.91802  1.0000
  H   H66       1.0  0.21076  0.34381  0.02229  1.0000
  S   S9        1.0  0.59952  0.13856  0.97567  1.0000
  C   C36       1.0  0.44505  0.12518  0.89105  1.0000
  C   C37       1.0  0.51959  0.07378  0.06274  1.0000
  H   H67       1.0  0.16200  0.03706  0.91990  1.0000
  C   C38       1.0  0.17884  0.90271  0.89730  1.0000
  H   H68       1.0  0.29250  0.28855  0.03370  1.0000
  C   C39       1.0  0.21155  0.19088  0.05205  1.0000
  C   C40       1.0  0.15145  0.90079  0.94067  1.0000
  H   H69       1.0  0.38254  0.03071  0.02489  1.0000
  C   C41       1.0  0.42770  0.94483  0.07477  1.0000
  C   C42       1.0  0.36933  0.06132  0.00062  1.0000
  H   H70       1.0  0.31599  0.25836  0.99432  1.0000
  C   C43       1.0  0.18640  0.32209  0.03683  1.0000
  C   C44       1.0  0.45492  0.08184  0.99991  1.0000
  C   C45       1.0  0.49069  0.97104  0.03750  1.0000
  H   H71       1.0  0.19649  0.95993  0.01596  1.0000
  H   H72       1.0  0.35647  0.19216  0.00432  1.0000
  C   C46       1.0  0.30551  0.25813  0.03883  1.0000
  H   H73       1.0  0.55079  0.20992  0.94996  1.0000
  H   H74       1.0  0.27531  0.33669  0.91231  1.0000
  H   H75       1.0  0.50757  0.99042  0.00177  1.0000
  C   C47       1.0  0.53748  0.90848  0.96533  1.0000
  H   H76       1.0  0.56081  0.31437  0.98737  1.0000
  H   H77       1.0  0.49885  0.20937  0.03607  1.0000
  H   H78       1.0  0.52964  0.04714  0.05021  1.0000
  C   C48       1.0  0.50963  0.94622  0.09168  1.0000
  C   C49       1.0  0.24878  0.06681  0.08508  1.0000
  H   H79       1.0  0.12026  0.99473  0.07346  1.0000
  H   H80       1.0  0.47436  0.17161  0.09467  1.0000
  C   C50       1.0  0.58448  0.16398  0.85154  1.0000
  H   H81       1.0  0.60217  0.13806  0.85123  1.0000
  C   C51       1.0  0.22852  0.04315  0.84518  1.0000
  C   C52       1.0  0.57104  0.33464  0.84740  1.0000
  H   H82       1.0  0.28460  0.31935  0.84929  1.0000
  H   H83       1.0  0.11130  0.10947  0.04138  1.0000
  H   H84       1.0  0.47402  0.24781  0.30535  1.0000
  H   H85       1.0  0.13275  0.02402  0.12377  1.0000
  C   C53       1.0  0.28415  0.06126  0.13105  1.0000
  C   C54       1.0  0.16484  0.31616  0.25899  1.0000
  H   H86       1.0  0.14723  0.16243  0.12050  1.0000
  H   H87       1.0  0.27888  0.08224  0.15765  1.0000
  C   C55       1.0  0.43366  0.12310  0.25046  1.0000
  S   S10       1.0  0.27577  0.33595  0.20566  1.0000
  H   H88       1.0  0.36967  0.99589  0.32761  1.0000
  H   H89       1.0  0.41833  0.36944  0.19893  1.0000
  C   C56       1.0  0.27953  0.90992  0.21713  1.0000
  C   C57       1.0  0.17554  0.14834  0.14389  1.0000
  H   H90       1.0  0.50238  0.90086  0.17890  1.0000
  H   H91       1.0  0.58472  0.35044  0.26419  1.0000
  C   C58       1.0  0.60821  0.10179  0.17804  1.0000
  H   H92       1.0  0.38561  0.14982  0.28159  1.0000
  H   H93       1.0  0.45023  0.19891  0.18932  1.0000
  C   C59       1.0  0.22008  0.09921  0.29872  1.0000
  C   C60       1.0  0.41742  0.34320  0.18111  1.0000
  H   H94       1.0  0.23741  0.16039  0.14481  1.0000
  N   N4        1.0  0.48363  0.24426  0.21514  1.0000
  C   C61       1.0  0.36265  0.02773  0.29995  1.0000
  H   H95       1.0  0.29463  0.95741  0.28092  1.0000
  S   S11       1.0  0.32149  0.15599  0.19332  1.0000
  C   C62       1.0  0.18586  0.07705  0.31284  1.0000
  C   C63       1.0  0.50391  0.19170  0.32169  1.0000
  C   C64       1.0  0.45179  0.27638  0.18742  1.0000
  H   H96       1.0  0.52307  0.38398  0.20257  1.0000
  H   H97       1.0  0.55742  0.89325  0.25085  1.0000
  H   H98       1.0  0.60032  0.28714  0.18539  1.0000
  H   H99       1.0  0.52372  0.29059  0.16681  1.0000
  C   C65       1.0  0.44651  0.92026  0.12929  1.0000
  C   C66       1.0  0.55943  0.23662  0.20677  1.0000
  H   H100      1.0  0.34638  0.08298  0.32052  1.0000
  H   H101      1.0  0.14991  0.29555  0.29643  1.0000
  C   C67       1.0  0.14309  0.34338  0.20977  1.0000
  H   H102      1.0  0.36967  0.04458  0.16656  1.0000
  H   H103      1.0  0.47932  0.33062  0.19942  1.0000
  S   S12       1.0  0.57949  0.06192  0.33167  1.0000
  C   C68       1.0  0.40367  0.38339  0.32961  1.0000
  S   S13       1.0  0.25961  0.21820  0.26454  1.0000
  C   C69       1.0  0.12180  0.99421  0.12184  1.0000
  H   H104      1.0  0.57472  0.95201  0.28699  1.0000
  H   H105      1.0  0.41924  0.35512  0.13084  1.0000
  H   H106      1.0  0.52952  0.27680  0.24723  1.0000
  H   H107      1.0  0.28596  0.99712  0.14292  1.0000
  C   C70       1.0  0.36101  0.01219  0.17784  1.0000
  C   C71       1.0  0.32543  0.03101  0.25695  1.0000
  H   H108      1.0  0.55990  0.23286  0.16088  1.0000
  H   H109      1.0  0.39425  0.95416  0.20075  1.0000
  H   H110      1.0  0.33396  0.25454  0.12685  1.0000
  C   C72       1.0  0.47474  0.22477  0.28134  1.0000
  H   H111      1.0  0.45414  0.28922  0.13764  1.0000
  H   H112      1.0  0.44717  0.91103  0.30924  1.0000
  C   C73       1.0  0.44700  0.10966  0.20399  1.0000
  H   H113      1.0  0.60100  0.25688  0.26563  1.0000
  S   S14       1.0  0.49488  0.09047  0.20851  1.0000
  H   H114      1.0  0.20636  0.20298  0.14061  1.0000
  H   H115      1.0  0.38888  0.32789  0.19227  1.0000
  C   C74       1.0  0.20592  0.31438  0.25832  1.0000
  H   H116      1.0  0.35420  0.00779  0.13265  1.0000
  Fe  Fe6       1.0  0.31798  0.19016  0.26034  1.0000
  H   H117      1.0  0.38824  0.04082  0.27287  1.0000
  H   H118      1.0  0.48878  0.89061  0.28227  1.0000
  H   H119      1.0  0.26786  0.22557  0.10886  1.0000
  C   C75       1.0  0.23351  0.12264  0.33462  1.0000
  H   H120      1.0  0.52019  0.32634  0.30001  1.0000
  H   H121      1.0  0.44272  0.03067  0.18612  1.0000
  H   H122      1.0  0.29911  0.02466  0.28515  1.0000
  H   H123      1.0  0.14308  0.96998  0.14907  1.0000
  C   C76       1.0  0.58774  0.92219  0.31032  1.0000
  Fe  Fe7       1.0  0.51585  0.05849  0.30545  1.0000
  C   C77       1.0  0.20979  0.17712  0.12283  1.0000
  C   C78       1.0  0.57789  0.88899  0.28989  1.0000
  H   H124      1.0  0.55889  0.20568  0.24038  1.0000
  C   C79       1.0  0.57587  0.35775  0.30543  1.0000
  H   H125      1.0  0.31099  0.07088  0.10542  1.0000
  C   C80       1.0  0.16232  0.37004  0.16132  1.0000
  H   H126      1.0  0.23687  0.09742  0.26113  1.0000
  C   C81       1.0  0.20337  0.36858  0.16094  1.0000
  H   H127      1.0  0.35176  0.37504  0.27777  1.0000
  H   H128      1.0  0.22269  0.29267  0.29569  1.0000
  H   H129      1.0  0.40328  0.97971  0.25589  1.0000
  C   C82       1.0  0.28819  0.01632  0.17343  1.0000
  H   H130      1.0  0.46039  0.98057  0.19399  1.0000
  H   H131      1.0  0.34550  0.95100  0.28863  1.0000
  H   H132      1.0  0.18056  0.11914  0.13475  1.0000
  H   H133      1.0  0.27290  0.89179  0.26454  1.0000
  S   S15       1.0  0.35016  0.24752  0.25202  1.0000
  C   C83       1.0  0.39544  0.13885  0.24594  1.0000
  C   C84       1.0  0.48758  0.92062  0.13749  1.0000
  C   C85       1.0  0.52352  0.26389  0.20933  1.0000
  H   H134      1.0  0.53302  0.20511  0.32655  1.0000
  C   C86       1.0  0.48346  0.22922  0.11215  1.0000
  C   C87       1.0  0.42203  0.11204  0.15290  1.0000
  H   H135      1.0  0.50329  0.06256  0.10501  1.0000
  C   C88       1.0  0.37587  0.36028  0.30979  1.0000
  C   C89       1.0  0.37000  0.13955  0.19613  1.0000
  C   C90       1.0  0.59832  0.25580  0.21811  1.0000
  H   H136      1.0  0.59689  0.12165  0.13215  1.0000
  H   H137      1.0  0.44882  0.30520  0.26074  1.0000
  H   H138      1.0  0.50749  0.16623  0.30295  1.0000
  H   H139      1.0  0.43275  0.10182  0.11719  1.0000
  H   H140      1.0  0.11205  0.22477  0.12133  1.0000
  H   H141      1.0  0.42943  0.90045  0.16431  1.0000
  C   C91       1.0  0.45171  0.31377  0.21085  1.0000
  C   C92       1.0  0.47029  0.88663  0.32173  1.0000
  H   H142      1.0  0.32330  0.06383  0.23006  1.0000
  S   S16       1.0  0.20966  0.93535  0.30783  1.0000
  H   H143      1.0  0.27985  0.88911  0.18915  1.0000
  C   C93       1.0  0.53026  0.35639  0.30200  1.0000
  C   C94       1.0  0.22502  0.34028  0.20892  1.0000
  H   H144      1.0  0.26119  0.13738  0.32533  1.0000
  H   H145      1.0  0.32799  0.94295  0.16952  1.0000
  H   H146      1.0  0.17298  0.14160  0.19380  1.0000
  H   H147      1.0  0.50096  0.18706  0.20251  1.0000
  H   H148      1.0  0.42225  0.26241  0.19311  1.0000
  C   C95       1.0  0.32106  0.96097  0.25336  1.0000
  H   H149      1.0  0.36359  0.12753  0.11030  1.0000
  C   C96       1.0  0.47971  0.21283  0.18255  1.0000
  C   C97       1.0  0.39793  0.98458  0.20647  1.0000
  Fe  Fe8       1.0  0.29273  0.27335  0.26599  1.0000
  H   H150      1.0  0.45317  0.12328  0.28843  1.0000
  H   H151      1.0  0.43170  0.00901  0.12560  1.0000
  N   N5        1.0  0.32504  0.00499  0.21531  1.0000
  C   C98       1.0  0.38324  0.12649  0.14919  1.0000
  H   H152      1.0  0.25587  0.93321  0.19735  1.0000
  H   H153      1.0  0.26145  0.00975  0.20076  1.0000
  C   C99       1.0  0.31964  0.92963  0.21743  1.0000
  H   H154      1.0  0.34148  0.90478  0.23987  1.0000
  C   C100      1.0  0.43532  0.00242  0.17579  1.0000
  S   S17       1.0  0.17107  0.04536  0.27074  1.0000
  H   H155      1.0  0.44474  0.21145  0.28443  1.0000
  C   C101      1.0  0.37913  0.31797  0.33051  1.0000
  H   H156      1.0  0.50463  0.25434  0.09904  1.0000
  H   H157      1.0  0.22097  0.06144  0.10939  1.0000
  H   H158      1.0  0.35771  0.30135  0.31330  1.0000
  H   H159      1.0  0.58892  0.07489  0.19235  1.0000
  H   H160      1.0  0.51780  0.36154  0.34194  1.0000
  H   H161      1.0  0.52547  0.18266  0.10737  1.0000
  H   H162      1.0  0.11825  0.26977  0.14415  1.0000
  H   H163      1.0  0.60670  0.11933  0.21065  1.0000
  H   H164      1.0  0.33275  0.37263  0.11762  1.0000
  Fe  Fe9       1.0  0.18181  0.98342  0.33766  1.0000
  S   S18       1.0  0.56081  0.94572  0.10206  1.0000
  H   H165      1.0  0.22595  0.27642  0.09508  1.0000
  C   C102      1.0  0.35703  0.05133  0.34471  1.0000
  C   C103      1.0  0.38374  0.91712  0.40691  1.0000
  H   H166      1.0  0.46877  0.09828  0.48659  1.0000
  H   H167      1.0  0.33521  0.03585  0.37766  1.0000
  H   H168      1.0  0.32996  0.96679  0.59225  1.0000
  S   S19       1.0  0.29973  0.25338  0.36829  1.0000
  H   H169      1.0  0.52760  0.08327  0.53616  1.0000
  C   C104      1.0  0.43777  0.32098  0.39252  1.0000
  H   H170      1.0  0.21972  0.25121  0.43927  1.0000
  C   C105      1.0  0.57890  0.36847  0.50201  1.0000
  H   H171      1.0  0.34742  0.24905  0.49214  1.0000
  H   H172      1.0  0.30842  0.95075  0.47022  1.0000
  H   H173      1.0  0.28786  0.20653  0.58673  1.0000
  C   C106      1.0  0.57716  0.28966  0.38465  1.0000
  H   H174      1.0  0.28662  0.20664  0.50876  1.0000
  H   H175      1.0  0.44463  0.93350  0.41408  1.0000
  H   H176      1.0  0.38140  0.10284  0.51243  1.0000
  C   C107      1.0  0.33804  0.94716  0.45773  1.0000
  C   C108      1.0  0.16561  0.07753  0.36374  1.0000
  C   C109      1.0  0.14921  0.21494  0.44141  1.0000
  H   H177      1.0  0.19209  0.31555  0.40771  1.0000
  H   H178      1.0  0.31150  0.35635  0.47946  1.0000
  C   C110      1.0  0.33897  0.23100  0.53871  1.0000
  H   H179      1.0  0.31557  0.05020  0.53216  1.0000
  C   C111      1.0  0.21081  0.33080  0.43438  1.0000
  H   H180      1.0  0.27001  0.07936  0.52265  1.0000
  C   C112      1.0  0.40599  0.09432  0.48889  1.0000
  H   H181      1.0  0.47929  0.21591  0.52897  1.0000
  H   H182      1.0  0.11669  0.21770  0.43513  1.0000
  H   H183      1.0  0.48710  0.19842  0.40795  1.0000
  S   S20       1.0  0.49524  0.07419  0.38562  1.0000
  C   C113      1.0  0.27762  0.04896  0.45692  1.0000
  C   C114      1.0  0.34524  0.92195  0.42261  1.0000
  H   H184      1.0  0.54610  0.22959  0.48353  1.0000
  C   C115      1.0  0.20992  0.23990  0.48691  1.0000
  H   H185      1.0  0.16150  0.22753  0.39571  1.0000
  H   H186      1.0  0.38927  0.89781  0.37943  1.0000
  H   H187      1.0  0.56290  0.20653  0.42881  1.0000
  H   H188      1.0  0.50983  0.15036  0.41488  1.0000
  C   C116      1.0  0.36948  0.96647  0.47863  1.0000
  H   H189      1.0  0.40158  0.11065  0.43905  1.0000
  H   H190      1.0  0.46144  0.30582  0.42501  1.0000
  H   H191      1.0  0.16230  0.10337  0.43723  1.0000
  S   S21       1.0  0.51258  0.99085  0.35108  1.0000
  C   C117      1.0  0.21135  0.30750  0.50409  1.0000
  S   S22       1.0  0.44718  0.98212  0.49605  1.0000
  H   H192      1.0  0.28551  0.28672  0.54157  1.0000
  H   H193      1.0  0.29154  0.02100  0.45319  1.0000
  H   H194      1.0  0.18077  0.30826  0.51880  1.0000
  S   S23       1.0  0.21967  0.96887  0.42506  1.0000
  H   H195      1.0  0.44473  0.13967  0.50304  1.0000
  H   H196      1.0  0.22839  0.32647  0.52696  1.0000
  H   H197      1.0  0.15713  0.18207  0.46116  1.0000
  S   S24       1.0  0.14567  0.92053  0.55549  1.0000
  C   C118      1.0  0.32394  0.37145  0.43455  1.0000
  C   C119      1.0  0.28339  0.05026  0.52214  1.0000
  C   C120      1.0  0.52390  0.06761  0.58565  1.0000
  C   C121      1.0  0.57240  0.22001  0.46478  1.0000
  C   C122      1.0  0.21864  0.24431  0.59066  1.0000
  Fe  Fe10      1.0  0.55894  0.07332  0.41482  1.0000
  H   H198      1.0  0.26948  0.98604  0.55442  1.0000
  C   C123      1.0  0.44549  0.10612  0.51272  1.0000
  C   C124      1.0  0.40970  0.29791  0.37207  1.0000
  C   C125      1.0  0.29447  0.22478  0.53952  1.0000
  S   S25       1.0  0.13185  0.94517  0.37975  1.0000
  H   H199      1.0  0.55461  0.36447  0.53339  1.0000
  Fe  Fe11      1.0  0.57509  0.99612  0.38416  1.0000
  H   H200      1.0  0.52583  0.90761  0.44754  1.0000
  Fe  Fe12      1.0  0.16267  0.89526  0.35733  1.0000
  H   H201      1.0  0.56067  0.31626  0.47835  1.0000
  C   C126      1.0  0.27176  0.26633  0.51773  1.0000
  S   S26       1.0  0.30704  0.89524  0.39901  1.0000
  Fe  Fe13      1.0  0.35708  0.22627  0.35438  1.0000
  H   H202      1.0  0.31164  0.35707  0.40099  1.0000
  Fe  Fe14      1.0  0.27349  0.19473  0.36606  1.0000
  H   H203      1.0  0.22068  0.20770  0.50509  1.0000
  C   C127      1.0  0.17831  0.10237  0.39853  1.0000
  N   N6        1.0  0.22792  0.26443  0.52475  1.0000
  H   H204      1.0  0.46654  0.35643  0.58768  1.0000
  H   H205      1.0  0.58898  0.19627  0.50225  1.0000
  H   H206      1.0  0.36401  0.98598  0.50572  1.0000
  C   C128      1.0  0.48384  0.20725  0.57956  1.0000
  C   C129      1.0  0.40801  0.96132  0.46354  1.0000
  C   C130      1.0  0.26296  0.01382  0.56696  1.0000
  H   H207      1.0  0.50735  0.14662  0.54076  1.0000
  H   H208      1.0  0.15373  0.22206  0.53044  1.0000
  S   S27       1.0  0.58740  0.12103  0.44900  1.0000
  S   S28       1.0  0.22955  0.15633  0.42601  1.0000
  S   S29       1.0  0.55869  0.00717  0.47018  1.0000
  C   C131      1.0  0.41500  0.93740  0.42630  1.0000
  S   S30       1.0  0.41194  0.24426  0.39730  1.0000
  H   H209      1.0  0.24584  0.04902  0.44346  1.0000
  C   C132      1.0  0.48912  0.17426  0.38601  1.0000
  S   S31       1.0  0.33148  0.16528  0.36189  1.0000
  H   H210      1.0  0.60602  0.35423  0.52958  1.0000
  H   H211      1.0  0.29130  0.07595  0.42500  1.0000
  H   H212      1.0  0.54713  0.29386  0.39862  1.0000
  Fe  Fe15      1.0  0.17097  0.92648  0.46538  1.0000
  H   H213      1.0  0.38538  0.05231  0.37045  1.0000
  Fe  Fe16      1.0  0.49627  0.00697  0.43369  1.0000
  N   N7        1.0  0.59765  0.32994  0.36264  1.0000
  C   C133      1.0  0.16429  0.23803  0.48443  1.0000
  H   H214      1.0  0.48941  0.88999  0.36030  1.0000
  H   H215      1.0  0.40543  0.06104  0.49587  1.0000
  H   H216      1.0  0.15049  0.26883  0.46802  1.0000
  H   H217      1.0  0.45969  0.16066  0.38424  1.0000
  H   H218      1.0  0.27812  0.28072  0.46902  1.0000
  C   C134      1.0  0.21227  0.12531  0.38348  1.0000
  H   H219      1.0  0.14044  0.05849  0.37626  1.0000
  C   C135      1.0  0.43467  0.36390  0.37130  1.0000
  H   H220      1.0  0.46706  0.89338  0.52030  1.0000
  H   H221      1.0  0.23085  0.01948  0.55535  1.0000
  Fe  Fe17      1.0  0.24405  0.91680  0.39855  1.0000
  H   H222      1.0  0.45568  0.38170  0.38808  1.0000
  H   H223      1.0  0.52534  0.92082  0.54787  1.0000
  H   H224      1.0  0.24077  0.33314  0.41721  1.0000
  C   C136      1.0  0.56814  0.34820  0.45348  1.0000
  H   H225      1.0  0.54161  0.36413  0.42716  1.0000
  H   H226      1.0  0.35641  0.36664  0.43903  1.0000
  C   C137      1.0  0.59883  0.25627  0.43848  1.0000
  H   H227      1.0  0.16538  0.37407  0.44047  1.0000
  H   H228      1.0  0.35456  0.20095  0.55217  1.0000
  H   H229      1.0  0.51462  0.21361  0.59201  1.0000
  H   H230      1.0  0.59851  0.04930  0.54947  1.0000
  C   C138      1.0  0.50373  0.13418  0.59095  1.0000
  H   H231      1.0  0.41640  0.89304  0.59031  1.0000
  C   C139      1.0  0.45326  0.08366  0.58199  1.0000
  H   H232      1.0  0.57439  0.90548  0.48371  1.0000
  C   C140      1.0  0.54551  0.89020  0.48722  1.0000
  C   C141      1.0  0.60269  0.35041  0.41155  1.0000
  H   H233      1.0  0.34874  0.24704  0.57158  1.0000
  H   H234      1.0  0.60810  0.26833  0.47593  1.0000
  C   C142      1.0  0.19440  0.37414  0.42058  1.0000
  H   H235      1.0  0.44871  0.05067  0.58887  1.0000
  C   C143      1.0  0.52789  0.88891  0.54725  1.0000
  H   H236      1.0  0.51384  0.03662  0.58765  1.0000
  H   H237      1.0  0.28838  0.34547  0.58703  1.0000
  H   H238      1.0  0.57259  0.27677  0.34640  1.0000
  H   H239      1.0  0.51235  0.35999  0.67369  1.0000
  H   H240      1.0  0.26692  0.94087  0.65106  1.0000
  H   H241      1.0  0.26574  0.95570  0.71774  1.0000
  Fe  Fe18      1.0  0.46471  0.27677  0.75779  1.0000
  H   H242      1.0  0.43323  0.89001  0.70236  1.0000
  H   H243      1.0  0.19474  0.25288  0.70087  1.0000
  H   H244      1.0  0.22356  0.21072  0.60457  1.0000
  H   H245      1.0  0.50287  0.09311  0.79384  1.0000
  H   H246      1.0  0.20856  0.89781  0.67209  1.0000
  H   H247      1.0  0.51947  0.08131  0.70020  1.0000
  H   H248      1.0  0.33367  0.93954  0.67242  1.0000
  C   C144      1.0  0.19709  0.91840  0.69580  1.0000
  H   H249      1.0  0.24628  0.02498  0.70519  1.0000
  H   H250      1.0  0.24290  0.02475  0.82036  1.0000
  H   H251      1.0  0.33012  0.03315  0.62789  1.0000
  H   H252      1.0  0.27342  0.25119  0.64213  1.0000
  C   C145      1.0  0.59107  0.95704  0.75140  1.0000
  H   H253      1.0  0.46654  0.90391  0.78700  1.0000
  H   H254      1.0  0.22337  0.04742  0.63091  1.0000
  H   H255      1.0  0.41777  0.12798  0.70558  1.0000
  H   H256      1.0  0.16454  0.91720  0.69344  1.0000
  S   S32       1.0  0.43281  0.23439  0.83451  1.0000
  C   C146      1.0  0.56640  0.34898  0.77766  1.0000
  C   C147      1.0  0.31582  0.00393  0.65077  1.0000
  H   H257      1.0  0.14786  0.19682  0.73635  1.0000
  C   C148      1.0  0.33084  0.37547  0.62944  1.0000
  H   H258      1.0  0.45605  0.01880  0.69112  1.0000
  H   H259      1.0  0.26891  0.13631  0.66426  1.0000
  C   C149      1.0  0.39170  0.12866  0.72959  1.0000
  C   C150      1.0  0.54394  0.22355  0.79714  1.0000
  H   H260      1.0  0.24351  0.25478  0.73374  1.0000
  S   S33       1.0  0.36730  0.30651  0.80621  1.0000
  Fe  Fe19      1.0  0.37891  0.25483  0.77170  1.0000
  C   C151      1.0  0.48472  0.90309  0.74892  1.0000
  C   C152      1.0  0.24178  0.26010  0.63812  1.0000
  H   H261      1.0  0.47744  0.15599  0.65970  1.0000
  H   H262      1.0  0.23959  0.29363  0.62513  1.0000
  C   C153      1.0  0.37183  0.09260  0.75653  1.0000
  S   S34       1.0  0.12086  0.33450  0.69650  1.0000
  H   H263      1.0  0.30108  0.06969  0.68699  1.0000
  H   H264      1.0  0.57374  0.90670  0.72029  1.0000
  H   H265      1.0  0.57943  0.36905  0.65661  1.0000
  S   S35       1.0  0.12923  0.23227  0.83298  1.0000
  C   C154      1.0  0.56769  0.19068  0.79647  1.0000
  H   H266      1.0  0.48908  0.93492  0.71952  1.0000
  S   S36       1.0  0.41139  0.29411  0.69268  1.0000
  H   H267      1.0  0.32104  0.06656  0.80526  1.0000
  C   C155      1.0  0.34429  0.16694  0.76494  1.0000
  H   H268      1.0  0.32100  0.00007  0.70027  1.0000
  C   C156      1.0  0.20995  0.96215  0.66543  1.0000
  H   H269      1.0  0.39466  0.19326  0.71525  1.0000
  H   H270      1.0  0.35559  0.35864  0.62144  1.0000
  Fe  Fe20      1.0  0.17943  0.37353  0.81438  1.0000
  C   C157      1.0  0.27617  0.07720  0.65188  1.0000
  C   C158      1.0  0.33731  0.09396  0.78617  1.0000
  C   C159      1.0  0.22585  0.24289  0.70149  1.0000
  C   C160      1.0  0.38340  0.97655  0.63894  1.0000
  H   H271      1.0  0.60298  0.24884  0.68413  1.0000
  H   H272      1.0  0.51376  0.13133  0.82890  1.0000
  C   C161      1.0  0.25257  0.03805  0.65587  1.0000
  H   H273      1.0  0.22656  0.12041  0.62772  1.0000
  Fe  Fe21      1.0  0.14360  0.29857  0.79156  1.0000
  H   H274      1.0  0.57848  0.00519  0.60481  1.0000
  H   H275      1.0  0.57193  0.18504  0.75375  1.0000
  H   H276      1.0  0.47895  0.91604  0.62289  1.0000
  S   S37       1.0  0.60897  0.01887  0.79758  1.0000
  S   S38       1.0  0.12137  0.34372  0.83405  1.0000
  H   H277      1.0  0.56521  0.05076  0.66838  1.0000
  C   C162      1.0  0.48621  0.02643  0.70418  1.0000
  H   H278      1.0  0.20753  0.90722  0.74457  1.0000
  C   C163      1.0  0.25556  0.96502  0.66849  1.0000
  H   H279      1.0  0.50737  0.00878  0.68739  1.0000
  C   C164      1.0  0.49126  0.01163  0.77381  1.0000
  N   N8        1.0  0.27211  0.00604  0.63450  1.0000
  H   H280      1.0  0.17762  0.05981  0.78367  1.0000
  H   H281      1.0  0.48329  0.97909  0.79115  1.0000
  H   H282      1.0  0.46804  0.08749  0.69387  1.0000
  S   S39       1.0  0.20391  0.32519  0.78023  1.0000
  H   H283      1.0  0.14684  0.18193  0.66829  1.0000
  H   H284      1.0  0.28860  0.09079  0.60683  1.0000
  C   C165      1.0  0.13365  0.17647  0.71308  1.0000
  H   H285      1.0  0.39031  0.00547  0.60326  1.0000
  C   C166      1.0  0.49246  0.07302  0.67774  1.0000
  C   C167      1.0  0.13982  0.13183  0.75220  1.0000
  H   H286      1.0  0.52227  0.01487  0.78887  1.0000
  Fe  Fe22      1.0  0.37584  0.99022  0.82863  1.0000
  C   C168      1.0  0.12171  0.12334  0.81496  1.0000
  S   S40       1.0  0.45989  0.32976  0.79345  1.0000
  S   S41       1.0  0.32826  0.21280  0.77309  1.0000
  H   H287      1.0  0.29656  0.13238  0.81254  1.0000
  C   C169      1.0  0.59216  0.91629  0.75264  1.0000
  S   S42       1.0  0.52011  0.25492  0.72960  1.0000
  H   H288      1.0  0.57103  0.97848  0.71923  1.0000
  H   H289      1.0  0.59576  0.34583  0.76104  1.0000
  N   N9        1.0  0.49331  0.08970  0.60908  1.0000
  S   S43       1.0  0.39102  0.04644  0.75261  1.0000
  H   H290      1.0  0.39422  0.97792  0.68447  1.0000
  C   C170      1.0  0.25056  0.10979  0.66409  1.0000
  H   H291      1.0  0.39914  0.95133  0.62943  1.0000
  H   H292      1.0  0.11334  0.05100  0.78345  1.0000
  C   C171      1.0  0.48954  0.11564  0.81223  1.0000
  H   H293      1.0  0.23767  0.09765  0.70934  1.0000
  C   C172      1.0  0.37851  0.16565  0.73487  1.0000
  H   H294      1.0  0.47179  0.02901  0.79396  1.0000
  H   H295      1.0  0.19753  0.97174  0.61754  1.0000
  S   S44       1.0  0.35231  0.93773  0.80216  1.0000
  Fe  Fe23      1.0  0.40444  0.34443  0.73371  1.0000
  H   H296      1.0  0.12642  0.11297  0.72585  1.0000
  Fe  Fe24      1.0  0.17915  0.36483  0.68825  1.0000
  H   H297      1.0  0.17210  0.12610  0.75889  1.0000
  H   H298      1.0  0.47179  0.13842  0.77519  1.0000
  H   H299      1.0  0.51359  0.88872  0.76897  1.0000
  H   H300      1.0  0.19650  0.98154  0.68948  1.0000
  H   H301      1.0  0.22821  0.20907  0.71792  1.0000
  C   C173      1.0  0.56575  0.06361  0.61806  1.0000
  C   C174      1.0  0.33907  0.96933  0.63751  1.0000
  C   C175      1.0  0.29283  0.36810  0.60976  1.0000
  H   H302      1.0  0.30627  0.38068  0.79319  1.0000
  H   H303      1.0  0.54609  0.32823  0.76342  1.0000
  C   C176      1.0  0.32325  0.13125  0.78969  1.0000
  H   H304      1.0  0.18675  0.24842  0.59633  1.0000
  C   C177      1.0  0.18386  0.04359  0.83287  1.0000
  H   H305      1.0  0.23986  0.07466  0.82914  1.0000
  C   C178      1.0  0.30874  0.37900  0.84212  1.0000
  S   S45       1.0  0.21298  0.37528  0.60458  1.0000
  H   H306      1.0  0.42930  0.09266  0.60644  1.0000
  H   H307      1.0  0.21287  0.20110  0.83269  1.0000
  H   H308      1.0  0.53301  0.13788  0.61228  1.0000
  C   C179      1.0  0.47472  0.16228  0.60941  1.0000
  H   H309      1.0  0.57986  0.09382  0.60684  1.0000
  H   H310      1.0  0.60861  0.29254  0.71039  1.0000
  C   C180      1.0  0.59233  0.03523  0.59814  1.0000
  H   H311      1.0  0.17426  0.01161  0.84134  1.0000
  H   H312      1.0  0.25761  0.22688  0.84225  1.0000
  H   H313      1.0  0.13880  0.14192  0.83849  1.0000
  S   S46       1.0  0.24649  0.92604  0.84217  1.0000
  H   H314      1.0  0.44373  0.15782  0.59589  1.0000
  H   H315      1.0  0.46374  0.22642  0.59584  1.0000
  C   C181      1.0  0.59085  0.85004  0.06793  1.0000
  H   H316      1.0  0.30232  0.44718  0.89580  1.0000
  H   H317      1.0  0.37865  0.49595  0.89663  1.0000
  H   H318      1.0  0.22060  0.82559  0.92665  1.0000
  H   H319      1.0  0.58876  0.58872  0.93612  1.0000
  C   C182      1.0  0.21247  0.48115  0.86633  1.0000
  C   C183      1.0  0.40408  0.58293  0.95162  1.0000
  H   H320      1.0  0.54174  0.78422  0.00518  1.0000
  H   H321      1.0  0.60232  0.80656  0.95228  1.0000
  C   C184      1.0  0.13799  0.57072  0.91720  1.0000
  H   H322      1.0  0.29171  0.51215  0.91178  1.0000
  C   C185      1.0  0.33395  0.45196  0.88578  1.0000
  C   C186      1.0  0.22150  0.75214  0.00877  1.0000
  N   N10       1.0  0.55736  0.83570  0.03482  1.0000
  H   H323      1.0  0.11110  0.70330  0.97861  1.0000
  H   H324      1.0  0.55062  0.79851  0.88244  1.0000
  H   H325      1.0  0.58048  0.86878  0.94760  1.0000
  C   C187      1.0  0.25023  0.81067  0.93362  1.0000
  C   C188      1.0  0.52113  0.79992  0.85888  1.0000
  Fe  Fe25      1.0  0.56186  0.50443  0.93191  1.0000
  H   H326      1.0  0.47553  0.84821  0.99152  1.0000
  H   H327      1.0  0.51965  0.61896  0.94181  1.0000
  C   C189      1.0  0.59836  0.61924  0.90779  1.0000
  H   H328      1.0  0.50446  0.82622  0.86343  1.0000
  C   C190      1.0  0.16052  0.74085  0.84896  1.0000
  H   H329      1.0  0.55134  0.65367  0.96254  1.0000
  H   H330      1.0  0.55012  0.72151  0.91086  1.0000
  H   H331      1.0  0.33203  0.54427  0.91742  1.0000
  H   H332      1.0  0.24364  0.54183  0.04898  1.0000
  H   H333      1.0  0.12302  0.52570  0.99999  1.0000
  H   H334      1.0  0.58224  0.87877  0.07552  1.0000
  C   C191      1.0  0.60423  0.78866  0.00169  1.0000
  H   H335      1.0  0.30146  0.57337  0.05981  1.0000
  H   H336      1.0  0.14187  0.54787  0.89325  1.0000
  C   C192      1.0  0.34947  0.48506  0.91331  1.0000
  S   S47       1.0  0.17390  0.66572  0.93622  1.0000
  H   H337      1.0  0.49521  0.53961  0.00195  1.0000
  H   H338      1.0  0.37281  0.40526  0.03129  1.0000
  H   H339      1.0  0.49504  0.75766  0.93564  1.0000
  C   C193      1.0  0.11148  0.79008  0.85617  1.0000
  C   C194      1.0  0.55213  0.86498  0.97060  1.0000
  H   H340      1.0  0.20117  0.83862  0.00903  1.0000
  H   H341      1.0  0.47202  0.64346  0.85661  1.0000
  S   S48       1.0  0.42269  0.84165  0.87689  1.0000
  S   S49       1.0  0.20832  0.39955  0.88242  1.0000
  C   C195      1.0  0.49230  0.67452  0.01335  1.0000
  H   H342      1.0  0.12363  0.41941  0.91176  1.0000
  H   H343      1.0  0.15594  0.39812  0.97853  1.0000
  H   H344      1.0  0.27763  0.83104  0.02639  1.0000
  C   C196      1.0  0.46282  0.45086  0.87764  1.0000
  H   H345      1.0  0.50521  0.64342  0.03556  1.0000
  H   H346      1.0  0.30369  0.50696  0.04255  1.0000
  C   C197      1.0  0.38656  0.77745  0.85317  1.0000
  H   H347      1.0  0.36530  0.72948  0.98434  1.0000
  H   H348      1.0  0.40215  0.75844  0.89430  1.0000
  Fe  Fe26      1.0  0.31432  0.63060  0.90487  1.0000
  H   H349      1.0  0.27139  0.83607  0.92658  1.0000
  H   H350      1.0  0.46031  0.47171  0.90527  1.0000
  C   C198      1.0  0.14981  0.71348  0.90460  1.0000
  S   S50       1.0  0.57755  0.47984  0.03296  1.0000
  C   C199      1.0  0.42217  0.43831  0.85961  1.0000
  C   C200      1.0  0.35100  0.39167  0.85657  1.0000
  C   C201      1.0  0.12907  0.41702  0.96059  1.0000
  C   C202      1.0  0.32128  0.52173  0.89561  1.0000
  C   C203      1.0  0.22371  0.49286  0.01768  1.0000
  H   H351      1.0  0.42152  0.69832  0.85133  1.0000
  C   C204      1.0  0.52239  0.72328  0.88230  1.0000
  C   C205      1.0  0.33147  0.78102  0.99228  1.0000
  H   H352      1.0  0.19290  0.76933  0.99983  1.0000
  H   H353      1.0  0.33154  0.79910  0.94307  1.0000
  C   C206      1.0  0.34272  0.39611  0.02110  1.0000
  H   H354      1.0  0.35329  0.47391  0.96366  1.0000
  S   S51       1.0  0.28345  0.68948  0.89737  1.0000
  H   H355      1.0  0.13171  0.62652  0.08645  1.0000
  C   C207      1.0  0.48175  0.82522  0.03715  1.0000
  H   H356      1.0  0.51627  0.86306  0.07984  1.0000
  H   H357      1.0  0.19914  0.47420  0.90974  1.0000
  H   H358      1.0  0.29155  0.73514  0.97928  1.0000
  C   C208      1.0  0.56285  0.64585  0.87602  1.0000
  H   H359      1.0  0.48312  0.79470  0.03121  1.0000
  S   S52       1.0  0.25764  0.59780  0.90349  1.0000
  H   H360      1.0  0.21601  0.54546  0.85285  1.0000
  C   C209      1.0  0.25424  0.79267  0.88059  1.0000
  H   H361      1.0  0.24068  0.88037  0.05947  1.0000
  H   H362      1.0  0.45618  0.64953  0.95485  1.0000
  N   N11       1.0  0.25559  0.78098  0.99768  1.0000
  H   H363      1.0  0.35819  0.52187  0.09321  1.0000
  S   S53       1.0  0.51459  0.54795  0.87625  1.0000
  H   H364      1.0  0.19902  0.79851  0.08054  1.0000
  H   H365      1.0  0.32140  0.42153  0.01537  1.0000
  S   S54       1.0  0.36360  0.60371  0.97657  1.0000
  H   H366      1.0  0.40608  0.43089  0.95218  1.0000
  H   H367      1.0  0.45126  0.70274  0.93595  1.0000
  C   C210      1.0  0.53344  0.64931  0.92334  1.0000
  C   C211      1.0  0.39965  0.41589  0.91697  1.0000
  H   H368      1.0  0.23356  0.76757  0.88386  1.0000
  Fe  Fe27      1.0  0.22719  0.65824  0.88701  1.0000
  N   N12       1.0  0.50222  0.68256  0.89971  1.0000
  H   H369      1.0  0.12608  0.59946  0.88331  1.0000
  H   H370      1.0  0.38058  0.59775  0.85898  1.0000
  N   N13       1.0  0.35603  0.41152  0.90605  1.0000
  C   C212      1.0  0.43883  0.57267  0.86884  1.0000
  H   H371      1.0  0.37066  0.73661  0.05860  1.0000
  C   C213      1.0  0.47144  0.55660  0.90860  1.0000
  C   C214      1.0  0.47359  0.67765  0.94915  1.0000
  C   C215      1.0  0.22258  0.71943  0.07291  1.0000
  C   C216      1.0  0.28677  0.49096  0.08310  1.0000
  H   H372      1.0  0.58479  0.73064  0.99214  1.0000
  H   H373      1.0  0.28676  0.45838  0.08495  1.0000
  H   H374      1.0  0.56660  0.77090  0.07835  1.0000
  H   H375      1.0  0.29496  0.63863  0.08146  1.0000
  H   H376      1.0  0.27018  0.78628  0.08760  1.0000
  C   C217      1.0  0.11965  0.72436  0.93572  1.0000
  H   H377      1.0  0.16726  0.57662  0.93613  1.0000
  H   H378      1.0  0.53161  0.85255  0.94208  1.0000
  S   S55       1.0  0.56494  0.44335  0.91810  1.0000
  H   H379      1.0  0.57384  0.67607  0.84928  1.0000
  C   C218      1.0  0.24378  0.50801  0.06685  1.0000
  Fe  Fe28      1.0  0.58544  0.41957  0.01686  1.0000
  H   H380      1.0  0.51604  0.69692  0.01025  1.0000
  C   C219      1.0  0.40521  0.58531  0.89035  1.0000
  H   H381      1.0  0.23995  0.50316  0.97535  1.0000
  H   H382      1.0  0.22040  0.73462  0.97595  1.0000
  H   H383      1.0  0.59694  0.58692  0.04752  1.0000
  H   H384      1.0  0.28455  0.78091  0.88055  1.0000
  H   H385      1.0  0.13330  0.58857  0.02480  1.0000
  C   C220      1.0  0.43631  0.56561  0.99230  1.0000
  H   H386      1.0  0.24488  0.69535  0.07573  1.0000
  H   H387      1.0  0.29749  0.73634  0.05506  1.0000
  C   C221      1.0  0.29326  0.75633  0.00663  1.0000
  C   C222      1.0  0.36764  0.75258  0.00849  1.0000
  H   H388      1.0  0.41935  0.81904  0.05116  1.0000
  C   C223      1.0  0.49908  0.76057  0.88710  1.0000
  H   H389      1.0  0.13505  0.44792  0.96350  1.0000
  H   H390      1.0  0.43735  0.65947  0.05931  1.0000
  H   H391      1.0  0.39448  0.77065  0.99463  1.0000
  C   C224      1.0  0.10979  0.55447  0.96843  1.0000
  C   C225      1.0  0.52052  0.83424  0.06905  1.0000
  C   C226      1.0  0.46993  0.55194  0.97092  1.0000
  H   H392      1.0  0.22229  0.45904  0.03356  1.0000
  H   H393      1.0  0.19323  0.50548  0.00693  1.0000
  H   H394      1.0  0.48052  0.42342  0.90470  1.0000
  H   H395      1.0  0.12640  0.88172  0.94234  1.0000
  C   C227      1.0  0.56585  0.79370  0.03184  1.0000
  H   H396      1.0  0.43566  0.56358  0.04000  1.0000
  C   C228      1.0  0.25732  0.80505  0.04203  1.0000
  C   C229      1.0  0.21769  0.82303  0.05280  1.0000
  H   H397      1.0  0.44937  0.71307  0.03698  1.0000
  C   C230      1.0  0.46165  0.68150  0.05514  1.0000
  H   H398      1.0  0.17437  0.68460  0.05065  1.0000
  H   H399      1.0  0.33480  0.80207  0.01960  1.0000
  C   C231      1.0  0.22433  0.85382  0.08724  1.0000
  H   H400      1.0  0.41022  0.48664  0.05783  1.0000
  H   H401      1.0  0.44255  0.85619  0.08028  1.0000
  C   C232      1.0  0.44646  0.82567  0.07503  1.0000
  C   C233      1.0  0.18308  0.69882  0.08604  1.0000
  H   H402      1.0  0.46966  0.76403  0.86352  1.0000
  H   H403      1.0  0.16003  0.72131  0.08714  1.0000
  H   H404      1.0  0.28682  0.40097  0.84688  1.0000
  H   H405      1.0  0.31885  0.53656  0.84524  1.0000
  H   H406      1.0  0.40904  0.79424  0.21293  1.0000
  H   H407      1.0  0.57262  0.58839  0.20449  1.0000
  H   H408      1.0  0.43063  0.47893  0.13494  1.0000
  H   H409      1.0  0.31777  0.84320  0.12174  1.0000
  C   C234      1.0  0.59991  0.62528  0.28148  1.0000
  S   S56       1.0  0.24511  0.75632  0.21221  1.0000
  C   C235      1.0  0.45196  0.84443  0.34045  1.0000
  H   H410      1.0  0.12180  0.65584  0.17057  1.0000
  H   H411      1.0  0.54129  0.65319  0.19024  1.0000
  H   H412      1.0  0.36643  0.56710  0.33974  1.0000
  S   S57       1.0  0.46251  0.62661  0.23735  1.0000
  H   H413      1.0  0.12946  0.43562  0.30602  1.0000
  C   C236      1.0  0.59716  0.61707  0.11698  1.0000
  C   C237      1.0  0.25136  0.41772  0.27257  1.0000
  H   H414      1.0  0.11328  0.66176  0.33741  1.0000
  H   H415      1.0  0.48164  0.78212  0.28746  1.0000
  C   C238      1.0  0.14639  0.79675  0.26451  1.0000
  C   C239      1.0  0.33923  0.81890  0.14800  1.0000
  H   H416      1.0  0.45327  0.74543  0.26338  1.0000
  H   H417      1.0  0.31599  0.45972  0.23693  1.0000
  H   H418      1.0  0.36344  0.81803  0.11812  1.0000
  H   H419      1.0  0.23017  0.73253  0.10965  1.0000
  C   C240      1.0  0.30683  0.57362  0.10743  1.0000
  H   H420      1.0  0.52102  0.41965  0.24438  1.0000
  C   C241      1.0  0.17231  0.77547  0.23990  1.0000
  C   C242      1.0  0.56324  0.70690  0.20927  1.0000
  N   N14       1.0  0.40178  0.79996  0.30225  1.0000
  H   H421      1.0  0.37385  0.43361  0.17517  1.0000
  Fe  Fe29      1.0  0.47737  0.55978  0.27915  1.0000
  C   C243      1.0  0.41195  0.46553  0.10555  1.0000
  H   H422      1.0  0.24002  0.43908  0.17554  1.0000
  H   H423      1.0  0.32185  0.76978  0.31241  1.0000
  H   H424      1.0  0.35405  0.83427  0.32320  1.0000
  Fe  Fe30      1.0  0.53118  0.49315  0.26584  1.0000
  C   C244      1.0  0.56923  0.67058  0.18485  1.0000
  C   C245      1.0  0.38501  0.79461  0.24353  1.0000
  H   H425      1.0  0.36619  0.50313  0.17430  1.0000
  H   H426      1.0  0.11535  0.79007  0.26483  1.0000
  H   H427      1.0  0.51452  0.71477  0.32167  1.0000
  N   N15       1.0  0.30687  0.49472  0.14110  1.0000
  H   H428      1.0  0.42614  0.43656  0.10585  1.0000
  H   H429      1.0  0.57194  0.68476  0.13488  1.0000
  H   H430      1.0  0.49950  0.70474  0.21349  1.0000
  Fe  Fe31      1.0  0.45066  0.47185  0.31211  1.0000
  H   H431      1.0  0.40601  0.86561  0.26904  1.0000
  H   H432      1.0  0.34666  0.68044  0.30260  1.0000
  H   H433      1.0  0.37946  0.55449  0.27327  1.0000
  C   C246      1.0  0.29445  0.53293  0.15409  1.0000
  H   H434      1.0  0.36933  0.85824  0.18979  1.0000
  C   C247      1.0  0.37078  0.45731  0.12949  1.0000
  H   H435      1.0  0.60554  0.48000  0.32611  1.0000
  C   C248      1.0  0.20118  0.83370  0.29099  1.0000
  C   C249      1.0  0.40113  0.66263  0.27384  1.0000
  S   S58       1.0  0.53889  0.53986  0.31258  1.0000
  H   H436      1.0  0.18571  0.67460  0.13123  1.0000
  C   C250      1.0  0.34337  0.50968  0.33475  1.0000
  H   H437      1.0  0.24151  0.83978  0.13114  1.0000
  S   S59       1.0  0.39775  0.43634  0.30148  1.0000
  H   H438      1.0  0.26221  0.53463  0.15711  1.0000
  H   H439      1.0  0.16126  0.75233  0.22124  1.0000
  H   H440      1.0  0.32957  0.83044  0.23169  1.0000
  H   H441      1.0  0.12657  0.46117  0.14469  1.0000
  H   H442      1.0  0.25746  0.43124  0.30951  1.0000
  H   H443      1.0  0.30678  0.53257  0.19986  1.0000
  C   C251      1.0  0.17788  0.52488  0.28557  1.0000
  H   H444      1.0  0.17011  0.56438  0.33974  1.0000
  Fe  Fe32      1.0  0.22669  0.60308  0.28806  1.0000
  N   N16       1.0  0.60337  0.64142  0.21302  1.0000
  H   H445      1.0  0.37094  0.76432  0.25264  1.0000
  C   C252      1.0  0.29893  0.45797  0.19541  1.0000
  C   C253      1.0  0.28437  0.61006  0.11418  1.0000
  C   C254      1.0  0.13890  0.46354  0.31366  1.0000
  S   S60       1.0  0.12853  0.85326  0.31937  1.0000
  S   S61       1.0  0.57986  0.80701  0.30132  1.0000
  H   H446      1.0  0.17585  0.48092  0.23694  1.0000
  C   C255      1.0  0.52218  0.72623  0.19009  1.0000
  H   H447      1.0  0.27168  0.39135  0.27918  1.0000
  H   H448      1.0  0.33873  0.57853  0.11504  1.0000
  C   C256      1.0  0.59435  0.85028  0.32070  1.0000
  S   S62       1.0  0.27821  0.64449  0.26998  1.0000
  H   H449      1.0  0.32407  0.78920  0.16086  1.0000
  H   H450      1.0  0.19550  0.86463  0.09727  1.0000
  H   H451      1.0  0.33023  0.57220  0.27731  1.0000
  H   H452      1.0  0.44528  0.83976  0.24915  1.0000
  H   H453      1.0  0.25808  0.81900  0.26623  1.0000
  H   H454      1.0  0.51598  0.73443  0.13993  1.0000
  H   H455      1.0  0.28927  0.61154  0.16136  1.0000
  C   C257      1.0  0.21240  0.78434  0.23927  1.0000
  C   C258      1.0  0.35514  0.82812  0.20519  1.0000
  C   C259      1.0  0.37334  0.66216  0.31677  1.0000
  H   H456      1.0  0.58067  0.81055  0.16200  1.0000
  H   H457      1.0  0.33303  0.49761  0.29777  1.0000
  S   S63       1.0  0.18257  0.65301  0.28010  1.0000
  H   H458      1.0  0.22071  0.40655  0.27553  1.0000
  C   C260      1.0  0.43453  0.63711  0.29185  1.0000
  Fe  Fe33      1.0  0.23531  0.69295  0.27089  1.0000
  H   H459      1.0  0.24020  0.47793  0.21239  1.0000
  H   H460      1.0  0.52363  0.81055  0.11450  1.0000
  C   C261      1.0  0.16526  0.48909  0.27475  1.0000
  H   H461      1.0  0.45037  0.80226  0.12088  1.0000
  C   C262      1.0  0.22690  0.81331  0.26489  1.0000
  C   C263      1.0  0.35554  0.55365  0.30450  1.0000
  C   C264      1.0  0.46308  0.75488  0.30343  1.0000
  H   H462      1.0  0.56882  0.61726  0.29178  1.0000
  H   H463      1.0  0.39521  0.68010  0.22618  1.0000
  S   S64       1.0  0.47116  0.51613  0.22602  1.0000
  C   C265      1.0  0.25539  0.45019  0.21059  1.0000
  H   H464      1.0  0.60656  0.64890  0.30328  1.0000
  H   H465      1.0  0.22512  0.49940  0.10644  1.0000
  S   S65       1.0  0.21404  0.55532  0.24279  1.0000
  H   H466      1.0  0.35312  0.44492  0.09817  1.0000
  H   H467      1.0  0.30928  0.42938  0.18835  1.0000
  H   H468      1.0  0.56614  0.69805  0.25972  1.0000
  S   S66       1.0  0.57537  0.48205  0.20528  1.0000
  H   H469      1.0  0.58493  0.73075  0.18983  1.0000
  C   C266      1.0  0.16083  0.82610  0.28965  1.0000
  H   H470      1.0  0.47555  0.67688  0.10157  1.0000
  H   H471      1.0  0.11409  0.59044  0.15409  1.0000
  H   H472      1.0  0.51993  0.75400  0.20403  1.0000
  C   C267      1.0  0.35092  0.49640  0.13462  1.0000
  C   C268      1.0  0.42576  0.83826  0.28694  1.0000
  C   C269      1.0  0.16264  0.53587  0.33310  1.0000
  C   C270      1.0  0.60528  0.82029  0.13141  1.0000
  H   H473      1.0  0.14554  0.39166  0.12399  1.0000
  C   C271      1.0  0.59934  0.60609  0.18782  1.0000
  H   H474      1.0  0.11889  0.53649  0.11199  1.0000
  H   H475      1.0  0.56657  0.56324  0.11013  1.0000
  H   H476      1.0  0.21818  0.38846  0.12271  1.0000
  C   C272      1.0  0.42693  0.76298  0.33638  1.0000
  C   C273      1.0  0.59493  0.57873  0.09773  1.0000
  H   H477      1.0  0.21272  0.85474  0.31298  1.0000
  H   H478      1.0  0.58433  0.39012  0.29725  1.0000
  C   C274      1.0  0.51264  0.38877  0.24461  1.0000
  H   H479      1.0  0.48003  0.38763  0.24372  1.0000
  C   C275      1.0  0.36950  0.80410  0.34248  1.0000
  H   H480      1.0  0.25230  0.60773  0.10410  1.0000
  H   H481      1.0  0.57042  0.63559  0.09597  1.0000
  C   C276      1.0  0.53283  0.60631  0.52534  1.0000
  C   C277      1.0  0.28304  0.55748  0.57292  1.0000
  H   H482      1.0  0.28461  0.49290  0.36002  1.0000
  H   H483      1.0  0.48649  0.84369  0.53371  1.0000
  C   C278      1.0  0.12566  0.47383  0.36333  1.0000
  H   H484      1.0  0.23857  0.47115  0.41887  1.0000
  H   H485      1.0  0.41288  0.85400  0.51620  1.0000
  H   H486      1.0  0.35381  0.72191  0.54590  1.0000
  H   H487      1.0  0.36959  0.49100  0.35720  1.0000
  H   H488      1.0  0.11350  0.71330  0.55660  1.0000
  H   H489      1.0  0.47670  0.54010  0.47681  1.0000
  H   H490      1.0  0.29912  0.53729  0.37516  1.0000
  Fe  Fe34      1.0  0.60463  0.75507  0.38100  1.0000
  H   H491      1.0  0.41973  0.69046  0.57573  1.0000
  Fe  Fe35      1.0  0.28367  0.63296  0.37105  1.0000
  C   C279      1.0  0.21162  0.47527  0.49752  1.0000
  H   H492      1.0  0.40471  0.53698  0.53541  1.0000
  H   H493      1.0  0.48510  0.44420  0.58418  1.0000
  H   H494      1.0  0.24083  0.67206  0.54405  1.0000
  S   S67       1.0  0.15318  0.62677  0.45702  1.0000
  H   H495      1.0  0.28423  0.75476  0.40421  1.0000
  H   H496      1.0  0.21345  0.73287  0.56628  1.0000
  H   H497      1.0  0.11160  0.56565  0.54643  1.0000
  C   C280      1.0  0.57216  0.54870  0.52152  1.0000
  H   H498      1.0  0.32071  0.77833  0.44094  1.0000
  H   H499      1.0  0.24360  0.82814  0.58111  1.0000
  H   H500      1.0  0.41852  0.59339  0.44216  1.0000
  H   H501      1.0  0.25118  0.42975  0.48826  1.0000
  C   C281      1.0  0.43278  0.69294  0.48549  1.0000
  C   C282      1.0  0.53877  0.53213  0.50116  1.0000
  C   C283      1.0  0.41426  0.61379  0.39590  1.0000
  S   S68       1.0  0.34049  0.62546  0.42610  1.0000
  C   C284      1.0  0.48641  0.86944  0.55293  1.0000
  H   H502      1.0  0.28372  0.52461  0.57758  1.0000
  H   H503      1.0  0.35023  0.87490  0.55557  1.0000
  H   H504      1.0  0.43755  0.76485  0.38175  1.0000
  C   C285      1.0  0.17228  0.78369  0.59290  1.0000
  S   S69       1.0  0.59272  0.68899  0.39754  1.0000
  Fe  Fe36      1.0  0.51331  0.49470  0.39271  1.0000
  C   C286      1.0  0.37903  0.63588  0.37691  1.0000
  H   H505      1.0  0.41219  0.80648  0.57721  1.0000
  C   C287      1.0  0.31341  0.41697  0.41235  1.0000
  H   H506      1.0  0.44489  0.64593  0.57149  1.0000
  H   H507      1.0  0.32835  0.41984  0.50303  1.0000
  H   H508      1.0  0.43480  0.84153  0.38098  1.0000
  H   H509      1.0  0.19218  0.54379  0.54761  1.0000
  Fe  Fe37      1.0  0.58190  0.68727  0.49324  1.0000
  H   H510      1.0  0.34551  0.83131  0.52936  1.0000
  H   H511      1.0  0.36531  0.43703  0.45015  1.0000
  H   H512      1.0  0.43024  0.49358  0.52585  1.0000
  C   C288      1.0  0.40465  0.83938  0.56395  1.0000
  H   H513      1.0  0.47114  0.60461  0.50189  1.0000
  H   H514      1.0  0.34438  0.53666  0.46001  1.0000
  H   H515      1.0  0.44954  0.40300  0.52999  1.0000
  H   H516      1.0  0.14736  0.80495  0.59084  1.0000
  H   H517      1.0  0.28106  0.42000  0.40947  1.0000
  H   H518      1.0  0.21130  0.62761  0.55587  1.0000
  S   S70       1.0  0.24327  0.68329  0.37128  1.0000
  H   H519      1.0  0.21481  0.39224  0.43998  1.0000
  H   H520      1.0  0.16286  0.76051  0.47701  1.0000
  H   H521      1.0  0.13085  0.80113  0.48009  1.0000
  H   H522      1.0  0.27245  0.57533  0.52554  1.0000
  H   H523      1.0  0.50088  0.72868  0.38651  1.0000
  C   C289      1.0  0.30983  0.50613  0.37908  1.0000
  S   S71       1.0  0.23665  0.58664  0.39005  1.0000
  H   H524      1.0  0.32367  0.42986  0.36549  1.0000
  C   C290      1.0  0.24689  0.46324  0.46828  1.0000
  C   C291      1.0  0.56935  0.58645  0.53156  1.0000
  H   H525      1.0  0.18584  0.45680  0.49192  1.0000
  C   C292      1.0  0.12404  0.74394  0.55487  1.0000
  C   C293      1.0  0.13744  0.51002  0.37268  1.0000
  H   H526      1.0  0.51744  0.40942  0.56557  1.0000
  H   H527      1.0  0.40956  0.71611  0.46263  1.0000
  H   H528      1.0  0.35088  0.73998  0.37900  1.0000
  H   H529      1.0  0.36194  0.66723  0.50901  1.0000
  H   H530      1.0  0.55039  0.85889  0.48527  1.0000
  H   H531      1.0  0.47653  0.82161  0.35437  1.0000
  C   C294      1.0  0.32403  0.57098  0.58776  1.0000
  C   C295      1.0  0.38163  0.64696  0.54647  1.0000
  H   H532      1.0  0.59546  0.60014  0.54435  1.0000
  H   H533      1.0  0.30703  0.63415  0.54881  1.0000
  H   H534      1.0  0.38864  0.62055  0.53094  1.0000
  H   H535      1.0  0.34360  0.56964  0.55166  1.0000
  H   H536      1.0  0.21813  0.46972  0.54712  1.0000
  C   C296      1.0  0.35986  0.84275  0.56496  1.0000
  S   S72       1.0  0.58962  0.75417  0.47481  1.0000
  C   C297      1.0  0.35305  0.50427  0.46763  1.0000
  H   H537      1.0  0.37936  0.50580  0.44071  1.0000
  H   H538      1.0  0.58352  0.40165  0.48028  1.0000
  C   C298      1.0  0.33769  0.77065  0.35526  1.0000
  H   H539      1.0  0.37211  0.45198  0.54880  1.0000
  C   C299      1.0  0.21872  0.65315  0.57352  1.0000
  C   C300      1.0  0.11117  0.88129  0.57428  1.0000
  H   H540      1.0  0.20364  0.50791  0.47482  1.0000
  H   H541      1.0  0.38225  0.80385  0.38797  1.0000
  S   S73       1.0  0.19829  0.87317  0.44610  1.0000
  N   N17       1.0  0.31995  0.48237  0.44535  1.0000
  C   C301      1.0  0.45870  0.38902  0.57922  1.0000
  H   H542      1.0  0.12727  0.51808  0.41079  1.0000
  C   C302      1.0  0.50238  0.55254  0.49331  1.0000
  C   C303      1.0  0.28493  0.48408  0.48203  1.0000
  C   C304      1.0  0.42113  0.66878  0.54951  1.0000
  H   H543      1.0  0.47248  0.69178  0.36207  1.0000
  H   H544      1.0  0.60048  0.53322  0.52703  1.0000
  C   C305      1.0  0.36748  0.48540  0.53600  1.0000
  H   H545      1.0  0.18583  0.79561  0.54804  1.0000
  H   H546      1.0  0.27744  0.51639  0.47657  1.0000
  Fe  Fe38      1.0  0.19491  0.63829  0.38154  1.0000
  H   H547      1.0  0.29186  0.80874  0.37368  1.0000
  C   C306      1.0  0.18173  0.67865  0.57176  1.0000
  C   C307      1.0  0.13287  0.76777  0.48775  1.0000
  C   C308      1.0  0.11276  0.53252  0.55273  1.0000
  C   C309      1.0  0.33300  0.43885  0.45518  1.0000
  H   H548      1.0  0.34581  0.49161  0.56622  1.0000
  H   H549      1.0  0.19051  0.38919  0.37046  1.0000
  C   C310      1.0  0.49923  0.58907  0.50704  1.0000
  H   H550      1.0  0.46894  0.59646  0.36770  1.0000
  H   H551      1.0  0.43681  0.67229  0.45796  1.0000
  S   S74       1.0  0.52967  0.65374  0.53712  1.0000
  S   S75       1.0  0.45149  0.51720  0.36290  1.0000
  H   H552      1.0  0.12399  0.53075  0.50928  1.0000
  S   S76       1.0  0.54274  0.48623  0.48492  1.0000
  H   H553      1.0  0.17031  0.69031  0.52329  1.0000
  H   H554      1.0  0.30698  0.69743  0.55348  1.0000
  H   H555      1.0  0.58669  0.56771  0.39246  1.0000
  H   H556      1.0  0.40924  0.73484  0.34613  1.0000
  H   H557      1.0  0.46087  0.70870  0.48832  1.0000
  C   C311      1.0  0.40659  0.50319  0.54987  1.0000
  H   H558      1.0  0.29217  0.46907  0.53162  1.0000
  C   C312      1.0  0.30687  0.77871  0.39608  1.0000
  C   C313      1.0  0.44226  0.61480  0.35344  1.0000
  H   H559      1.0  0.30362  0.76349  0.57226  1.0000
  H   H560      1.0  0.54931  0.87277  0.58494  1.0000
  C   C314      1.0  0.32198  0.61459  0.59242  1.0000
  C   C315      1.0  0.18249  0.53643  0.59497  1.0000
  S   S77       1.0  0.51061  0.44577  0.34867  1.0000
  C   C316      1.0  0.48916  0.72044  0.34621  1.0000
  C   C317      1.0  0.33211  0.70595  0.57917  1.0000
  C   C318      1.0  0.48020  0.81184  0.64913  1.0000
  H   H561      1.0  0.46479  0.80082  0.69249  1.0000
  H   H562      1.0  0.11930  0.87058  0.67143  1.0000
  H   H563      1.0  0.53944  0.47186  0.61734  1.0000
  C   C319      1.0  0.26058  0.38843  0.62245  1.0000
  H   H564      1.0  0.12679  0.67628  0.78214  1.0000
  C   C320      1.0  0.57882  0.40205  0.65228  1.0000
  S   S78       1.0  0.15878  0.41503  0.72172  1.0000
  H   H565      1.0  0.29342  0.72225  0.63991  1.0000
  H   H566      1.0  0.37842  0.67777  0.64874  1.0000
  C   C321      1.0  0.30476  0.42658  0.66905  1.0000
  C   C322      1.0  0.44389  0.70239  0.81689  1.0000
  H   H567      1.0  0.57543  0.41807  0.60215  1.0000
  C   C323      1.0  0.22215  0.52138  0.83423  1.0000
  C   C324      1.0  0.37241  0.84388  0.77925  1.0000
  H   H568      1.0  0.24148  0.43404  0.66061  1.0000
  C   C325      1.0  0.31668  0.73632  0.60826  1.0000
  H   H569      1.0  0.26684  0.84980  0.81048  1.0000
  H   H570      1.0  0.47602  0.46473  0.67214  1.0000
  H   H571      1.0  0.23145  0.64025  0.62110  1.0000
  H   H572      1.0  0.33364  0.46612  0.83510  1.0000
  H   H573      1.0  0.39805  0.71018  0.74469  1.0000
  C   C326      1.0  0.12373  0.68315  0.68453  1.0000
  H   H574      1.0  0.18835  0.78849  0.68380  1.0000
  H   H575      1.0  0.53781  0.81660  0.69478  1.0000
  S   S79       1.0  0.38374  0.40921  0.69064  1.0000
  H   H576      1.0  0.24640  0.81105  0.78160  1.0000
  H   H577      1.0  0.50383  0.53390  0.62667  1.0000
  C   C327      1.0  0.52446  0.80076  0.66385  1.0000
  H   H578      1.0  0.17749  0.56525  0.60519  1.0000
  C   C328      1.0  0.23457  0.45925  0.78383  1.0000
  H   H579      1.0  0.52233  0.73801  0.66267  1.0000
  H   H580      1.0  0.51618  0.88005  0.66257  1.0000
  H   H581      1.0  0.41440  0.49147  0.59980  1.0000
  H   H582      1.0  0.44540  0.69504  0.72648  1.0000
  H   H583      1.0  0.56662  0.46935  0.68556  1.0000
  C   C329      1.0  0.50390  0.47276  0.69239  1.0000
  H   H584      1.0  0.43344  0.39105  0.60650  1.0000
  H   H585      1.0  0.18379  0.73290  0.82469  1.0000
  C   C330      1.0  0.24506  0.82502  0.81856  1.0000
  H   H586      1.0  0.37474  0.60425  0.74271  1.0000
  S   S80       1.0  0.30178  0.76413  0.73261  1.0000
  H   H587      1.0  0.41194  0.84705  0.65258  1.0000
  H   H588      1.0  0.56190  0.74789  0.71089  1.0000
  C   C331      1.0  0.36956  0.58349  0.71508  1.0000
  H   H589      1.0  0.32917  0.84577  0.70652  1.0000
  C   C332      1.0  0.53049  0.75492  0.69510  1.0000
  C   C333      1.0  0.42470  0.69067  0.76352  1.0000
  H   H590      1.0  0.21494  0.83802  0.81637  1.0000
  H   H591      1.0  0.20420  0.85447  0.60376  1.0000
  H   H592      1.0  0.46947  0.79243  0.62169  1.0000
  N   N18       1.0  0.54435  0.41154  0.68422  1.0000
  H   H593      1.0  0.20770  0.70136  0.64222  1.0000
  H   H594      1.0  0.13581  0.50836  0.64967  1.0000
  C   C334      1.0  0.14122  0.72632  0.66486  1.0000
  H   H595      1.0  0.14746  0.65992  0.69070  1.0000
  H   H596      1.0  0.57049  0.41271  0.77189  1.0000
  C   C335      1.0  0.33676  0.40431  0.65969  1.0000
  H   H597      1.0  0.24496  0.83207  0.65713  1.0000
  N   N19       1.0  0.36060  0.63287  0.60499  1.0000
  H   H598      1.0  0.53243  0.73117  0.83507  1.0000
  H   H599      1.0  0.34105  0.74637  0.63378  1.0000
  C   C336      1.0  0.20325  0.78827  0.64222  1.0000
  C   C337      1.0  0.22529  0.82825  0.61943  1.0000
  C   C338      1.0  0.48398  0.88353  0.65159  1.0000
  N   N20       1.0  0.46982  0.85602  0.61568  1.0000
  H   H600      1.0  0.16445  0.72563  0.70086  1.0000
  C   C339      1.0  0.55048  0.39361  0.75295  1.0000
  H   H601      1.0  0.30092  0.61383  0.62799  1.0000
  H   H602      1.0  0.59991  0.56509  0.67221  1.0000
  H   H603      1.0  0.26205  0.56200  0.60545  1.0000
  C   C340      1.0  0.14118  0.77892  0.82456  1.0000
  C   C341      1.0  0.42538  0.86012  0.60770  1.0000
  H   H604      1.0  0.33163  0.65782  0.66657  1.0000
  C   C342      1.0  0.24526  0.49920  0.75251  1.0000
  H   H605      1.0  0.41554  0.65837  0.77918  1.0000
  H   H606      1.0  0.33747  0.57879  0.71188  1.0000
  C   C343      1.0  0.38689  0.60225  0.65194  1.0000
  S   S81       1.0  0.22728  0.67577  0.78483  1.0000
  H   H607      1.0  0.20612  0.51842  0.62730  1.0000
  H   H608      1.0  0.44036  0.57710  0.82062  1.0000
  H   H609      1.0  0.46400  0.84609  0.74187  1.0000
  H   H610      1.0  0.42163  0.54420  0.74997  1.0000
  C   C344      1.0  0.50425  0.51908  0.67688  1.0000
  C   C345      1.0  0.34537  0.82664  0.74719  1.0000
  C   C346      1.0  0.23933  0.53027  0.77790  1.0000
  C   C347      1.0  0.26648  0.41798  0.65152  1.0000
  H   H611      1.0  0.52468  0.80515  0.80947  1.0000
  C   C348      1.0  0.39243  0.81946  0.83294  1.0000
  Fe  Fe39      1.0  0.28535  0.70354  0.79597  1.0000
  Fe  Fe40      1.0  0.26179  0.61789  0.80150  1.0000
  N   N21       1.0  0.15737  0.74114  0.60207  1.0000
  H   H612      1.0  0.36024  0.41278  0.81227  1.0000
  H   H613      1.0  0.14946  0.79993  0.78139  1.0000
  C   C349      1.0  0.50783  0.39338  0.66405  1.0000
  H   H614      1.0  0.37965  0.51915  0.72735  1.0000
  H   H615      1.0  0.50111  0.68023  0.80679  1.0000
  H   H616      1.0  0.41499  0.61636  0.66092  1.0000
  C   C350      1.0  0.35905  0.76022  0.82175  1.0000
  C   C351      1.0  0.38904  0.54229  0.74914  1.0000
  C   C352      1.0  0.33805  0.78495  0.76934  1.0000
  H   H617      1.0  0.48257  0.39637  0.69099  1.0000
  H   H618      1.0  0.22534  0.76295  0.65550  1.0000
  H   H619      1.0  0.53088  0.52862  0.69848  1.0000
  H   H620      1.0  0.33504  0.54857  0.63170  1.0000
  H   H621      1.0  0.37990  0.53246  0.79663  1.0000
  S   S82       1.0  0.32006  0.64743  0.80358  1.0000
  H   H622      1.0  0.25866  0.50584  0.70911  1.0000
  H   H623      1.0  0.47784  0.52960  0.69418  1.0000
  C   C353      1.0  0.46405  0.87839  0.71239  1.0000
  C   C354      1.0  0.21901  0.45004  0.84139  1.0000
  H   H624      1.0  0.54042  0.80824  0.62127  1.0000
  H   H625      1.0  0.39615  0.57756  0.63384  1.0000
  C   C355      1.0  0.54013  0.45712  0.66774  1.0000
  H   H626      1.0  0.15241  0.48105  0.60050  1.0000
  H   H627      1.0  0.45157  0.73488  0.79833  1.0000
  H   H628      1.0  0.51211  0.74435  0.73494  1.0000
  S   S83       1.0  0.25470  0.57967  0.73962  1.0000
  H   H629      1.0  0.23951  0.43523  0.76435  1.0000
  H   H630      1.0  0.30930  0.44883  0.69263  1.0000
  H   H631      1.0  0.50382  0.45959  0.74283  1.0000
  H   H632      1.0  0.11813  0.74821  0.66867  1.0000
  C   C356      1.0  0.35157  0.66792  0.62801  1.0000
  H   H633      1.0  0.52235  0.39428  0.77506  1.0000
  C   C357      1.0  0.14500  0.51170  0.60310  1.0000
  H   H634      1.0  0.40572  0.46570  0.83047  1.0000
  C   C358      1.0  0.49395  0.41167  0.59552  1.0000
  H   H635      1.0  0.37765  0.87609  0.76236  1.0000
  H   H636      1.0  0.35380  0.72787  0.83844  1.0000
  H   H637      1.0  0.42651  0.41787  0.83168  1.0000
  H   H638      1.0  0.34975  0.82435  0.61029  1.0000
  C   C359      1.0  0.48105  0.67574  0.84465  1.0000
  H   H639      1.0  0.47839  0.46709  0.83605  1.0000
  H   H640      1.0  0.54853  0.63155  0.84371  1.0000
  C   C360      1.0  0.19140  0.71440  0.59693  1.0000
  H   H641      1.0  0.15940  0.65824  0.59809  1.0000
  H   H642      1.0  0.78190  0.37375  0.06253  1.0000
  H   H643      1.0  0.09857  0.02081  0.85558  1.0000
  C   C361      1.0  0.76093  0.27812  0.04362  1.0000
  H   H644      1.0  0.00131  0.16868  0.88361  1.0000
  H   H645      1.0  0.71715  0.95167  0.95272  1.0000
  Fe  Fe41      1.0  0.93194  0.20220  0.93241  1.0000
  H   H646      1.0  0.07059  0.09428  0.89858  1.0000
  C   C362      1.0  0.84727  0.33728  0.90498  1.0000
  H   H647      1.0  0.81922  0.03485  0.89356  1.0000
  H   H648      1.0  0.86885  0.90619  0.89699  1.0000
  C   C363      1.0  0.80965  0.31569  0.92985  1.0000
  C   C364      1.0  0.05539  0.31484  0.07013  1.0000
  H   H649      1.0  0.03257  0.02076  0.01221  1.0000
  H   H650      1.0  0.10175  0.28706  0.03168  1.0000
  H   H651      1.0  0.90401  0.02895  0.89636  1.0000
  C   C365      1.0  0.71344  0.21868  0.86320  1.0000
  S   S84       1.0  0.80287  0.17174  0.02631  1.0000
  H   H652      1.0  0.97773  0.37702  0.92207  1.0000
  H   H653      1.0  0.81099  0.33821  0.00688  1.0000
  H   H654      1.0  0.90006  0.11131  0.84783  1.0000
  H   H655      1.0  0.79036  0.31543  0.88969  1.0000
  H   H656      1.0  0.77335  0.99289  0.92558  1.0000
  C   C366      1.0  0.73228  0.07792  0.03182  1.0000
  H   H657      1.0  0.69315  0.37109  0.90603  1.0000
  S   S85       1.0  0.89869  0.14442  0.95935  1.0000
  C   C367      1.0  0.01523  0.32332  0.97589  1.0000
  C   C368      1.0  0.68093  0.19790  0.90675  1.0000
  C   C369      1.0  0.07077  0.36881  0.97326  1.0000
  Fe  Fe42      1.0  0.06780  0.89897  0.98771  1.0000
  H   H658      1.0  0.97404  0.29758  0.88998  1.0000
  H   H659      1.0  0.79823  0.95527  0.90025  1.0000
  H   H660      1.0  0.81769  0.28375  0.95715  1.0000
  H   H661      1.0  0.81961  0.02590  0.05509  1.0000
  H   H662      1.0  0.78672  0.28027  0.07409  1.0000
  S   S86       1.0  0.89753  0.23140  0.98714  1.0000
  H   H663      1.0  0.91364  0.28665  0.04071  1.0000
  H   H664      1.0  0.05760  0.25754  0.04802  1.0000
  H   H665      1.0  0.87787  0.34883  0.03959  1.0000
  H   H666      1.0  0.01317  0.36095  0.87917  1.0000
  H   H667      1.0  0.69475  0.30103  0.96731  1.0000
  H   H668      1.0  0.86130  0.32104  0.87678  1.0000
  H   H669      1.0  0.68552  0.16426  0.92227  1.0000
  Fe  Fe43      1.0  0.61897  0.01961  0.89433  1.0000
  C   C370      1.0  0.71231  0.35023  0.89169  1.0000
  Fe  Fe44      1.0  0.99660  0.92606  0.89716  1.0000
  C   C371      1.0  0.72323  0.31223  0.94760  1.0000
  H   H670      1.0  0.91120  0.05980  0.97969  1.0000
  H   H671      1.0  0.73273  0.91596  0.91603  1.0000
  C   C372      1.0  0.05788  0.19576  0.86083  1.0000
  C   C373      1.0  0.80878  0.09805  0.88113  1.0000
  C   C374      1.0  0.01077  0.37498  0.02743  1.0000
  S   S87       1.0  0.95864  0.98150  0.85360  1.0000
  C   C375      1.0  0.00061  0.00597  0.93935  1.0000
  C   C376      1.0  0.93641  0.04566  0.96759  1.0000
  C   C377      1.0  0.75536  0.35554  0.07834  1.0000
  H   H672      1.0  0.74136  0.20294  0.88571  1.0000
  H   H673      1.0  0.65931  0.95105  0.86709  1.0000
  Fe  Fe45      1.0  0.61411  0.07741  0.96851  1.0000
  S   S88       1.0  0.74053  0.99815  0.03989  1.0000
  H   H674      1.0  0.65109  0.20479  0.88440  1.0000
  C   C378      1.0  0.00464  0.02315  0.98656  1.0000
  C   C379      1.0  0.74310  0.93726  0.94052  1.0000
  C   C380      1.0  0.76949  0.96995  0.90174  1.0000
  H   H675      1.0  0.71615  0.25056  0.86373  1.0000
  H   H676      1.0  0.93768  0.31693  0.92829  1.0000
  C   C381      1.0  0.75864  0.04533  0.04041  1.0000
  H   H677      1.0  0.70108  0.07387  0.02686  1.0000
  H   H678      1.0  0.83507  0.09859  0.91151  1.0000
  H   H679      1.0  0.10620  0.38349  0.04595  1.0000
  N   N22       1.0  0.75135  0.31901  0.99609  1.0000
  C   C382      1.0  0.89969  0.33466  0.07594  1.0000
  H   H680      1.0  0.70027  0.25500  0.05723  1.0000
  H   H681      1.0  0.93822  0.14694  0.85033  1.0000
  C   C383      1.0  0.78914  0.33759  0.96954  1.0000
  C   C384      1.0  0.97262  0.04314  0.00066  1.0000
  C   C385      1.0  0.68153  0.21202  0.96309  1.0000
  H   H682      1.0  0.71201  0.21183  0.98305  1.0000
  H   H683      1.0  0.66353  0.19141  0.99839  1.0000
  Fe  Fe46      1.0  0.94331  0.20432  0.06319  1.0000
  S   S89       1.0  0.63829  0.96636  0.97661  1.0000
  H   H684      1.0  0.84426  0.09448  0.04918  1.0000
  H   H685      1.0  0.86858  0.33755  0.94294  1.0000
  H   H686      1.0  0.88100  0.97866  0.02725  1.0000
  S   S90       1.0  0.98033  0.17993  0.00519  1.0000
  Fe  Fe47      1.0  0.67794  0.01097  0.00158  1.0000
  H   H687      1.0  0.86957  0.96166  0.96228  1.0000
  H   H688      1.0  0.73469  0.28778  0.93108  1.0000
  C   C386      1.0  0.93226  0.02805  0.92061  1.0000
  C   C387      1.0  0.74607  0.11627  0.02956  1.0000
  C   C388      1.0  0.09949  0.07779  0.91159  1.0000
  H   H689      1.0  0.66362  0.31996  0.85885  1.0000
  H   H690      1.0  0.88949  0.90376  0.05219  1.0000
  H   H691      1.0  0.07432  0.16800  0.88343  1.0000
  H   H692      1.0  0.03479  0.30298  0.96085  1.0000
  H   H693      1.0  0.75987  0.91958  0.98316  1.0000
  H   H694      1.0  0.66839  0.24313  0.95044  1.0000
  C   C389      1.0  0.01661  0.19631  0.86115  1.0000
  H   H695      1.0  0.99383  0.30307  0.00582  1.0000
  C   C390      1.0  0.85934  0.91659  0.04965  1.0000
  S   S91       1.0  0.06078  0.92418  0.88548  1.0000
  H   H696      1.0  0.77048  0.25579  0.02127  1.0000
  H   H697      1.0  0.73860  0.36695  0.87155  1.0000
  C   C391      1.0  0.81320  0.06307  0.85482  1.0000
  C   C392      1.0  0.91977  0.29919  0.07686  1.0000
  H   H698      1.0  0.78242  0.09393  0.90869  1.0000
  Fe  Fe48      1.0  0.86810  0.17156  0.02090  1.0000
  C   C393      1.0  0.96091  0.32564  0.89486  1.0000
  C   C394      1.0  0.99250  0.35008  0.91636  1.0000
  C   C395      1.0  0.07803  0.27757  0.06397  1.0000
  C   C396      1.0  0.86002  0.96080  0.00792  1.0000
  C   C397      1.0  0.96434  0.00793  0.90679  1.0000
  C   C398      1.0  0.78638  0.12264  0.03409  1.0000
  H   H699      1.0  0.94719  0.34426  0.84985  1.0000
  S   S92       1.0  0.66213  0.06275  0.91580  1.0000
  H   H700      1.0  0.02557  0.99056  0.92881  1.0000
  S   S93       1.0  0.63304  0.02914  0.05541  1.0000
  H   H701      1.0  0.70199  0.33725  0.03757  1.0000
  C   C399      1.0  0.81301  0.08992  0.04421  1.0000
  H   H702      1.0  0.83021  0.97508  0.00189  1.0000
  H   H703      1.0  0.84050  0.36917  0.87579  1.0000
  S   S94       1.0  0.00381  0.90612  0.99942  1.0000
  Fe  Fe49      1.0  0.94487  0.12343  0.03625  1.0000
  N   N23       1.0  0.03861  0.34591  0.01195  1.0000
  C   C400      1.0  0.79908  0.05108  0.04781  1.0000
  H   H704      1.0  0.72539  0.14098  0.02379  1.0000
  H   H705      1.0  0.09172  0.34747  0.96329  1.0000
  S   S95       1.0  0.97817  0.06401  0.06050  1.0000
  H   H706      1.0  0.83860  0.90025  0.02740  1.0000
  H   H707      1.0  0.98048  0.36254  0.03237  1.0000
  C   C401      1.0  0.73200  0.34779  0.02354  1.0000
  H   H708      1.0  0.78441  0.37024  0.94184  1.0000
  H   H709      1.0  0.06920  0.11933  0.98755  1.0000
  C   C402      1.0  0.72698  0.25817  0.08486  1.0000
  C   C403      1.0  0.09456  0.09815  0.00759  1.0000
  H   H710      1.0  0.08306  0.06765  0.03184  1.0000
  H   H711      1.0  0.77026  0.89587  0.08891  1.0000
  C   C404      1.0  0.02079  0.38490  0.08770  1.0000
  H   H712      1.0  0.09245  0.04562  0.93764  1.0000
  H   H713      1.0  0.72702  0.37832  0.98852  1.0000
  H   H714      1.0  0.84538  0.32488  0.33072  1.0000
  C   C405      1.0  0.78011  0.06012  0.21318  1.0000
  C   C406      1.0  0.92740  0.98517  0.16779  1.0000
  H   H715      1.0  0.77975  0.26424  0.28400  1.0000
  H   H716      1.0  0.05741  0.94609  0.10073  1.0000
  H   H717      1.0  0.70258  0.36274  0.12430  1.0000
  H   H718      1.0  0.06100  0.01119  0.11807  1.0000
  H   H719      1.0  0.98061  0.28631  0.20341  1.0000
  C   C407      1.0  0.95577  0.13051  0.25936  1.0000
  N   N24       1.0  0.84242  0.27398  0.29547  1.0000
  H   H720      1.0  0.67004  0.08059  0.26789  1.0000
  H   H721      1.0  0.89378  0.13363  0.23045  1.0000
  Fe  Fe50      1.0  0.06865  0.34463  0.29347  1.0000
  S   S96       1.0  0.09187  0.34242  0.20633  1.0000
  H   H722      1.0  0.75457  0.06448  0.32705  1.0000
  C   C408      1.0  0.73885  0.21556  0.12749  1.0000
  H   H723      1.0  0.93352  0.19914  0.33696  1.0000
  N   N25       1.0  0.03039  0.92975  0.18809  1.0000
  C   C409      1.0  0.84715  0.26696  0.23510  1.0000
  H   H724      1.0  0.04017  0.95419  0.26289  1.0000
  H   H725      1.0  0.76555  0.21677  0.15659  1.0000
  C   C410      1.0  0.06504  0.94462  0.14900  1.0000
  S   S97       1.0  0.91138  0.14570  0.10066  1.0000
  H   H726      1.0  0.74482  0.99496  0.30314  1.0000
  H   H727      1.0  0.07435  0.03565  0.33180  1.0000
  H   H728      1.0  0.89960  0.97741  0.19162  1.0000
  S   S98       1.0  0.92970  0.37631  0.31958  1.0000
  C   C411      1.0  0.90763  0.35176  0.12228  1.0000
  H   H729      1.0  0.86804  0.93116  0.13378  1.0000
  N   N26       1.0  0.70768  0.04138  0.23749  1.0000
  H   H730      1.0  0.83986  0.24052  0.13584  1.0000
  H   H731      1.0  0.80571  0.22234  0.33582  1.0000
  H   H732      1.0  0.83806  0.08613  0.19558  1.0000
  C   C412      1.0  0.85512  0.21730  0.17538  1.0000
  C   C413      1.0  0.67814  0.94776  0.18526  1.0000
  H   H733      1.0  0.95100  0.15663  0.27621  1.0000
  C   C414      1.0  0.65059  0.08842  0.17469  1.0000
  H   H734      1.0  0.79807  0.12045  0.15716  1.0000
  C   C415      1.0  0.06778  0.17356  0.32323  1.0000
  C   C416      1.0  0.84363  0.31918  0.28586  1.0000
  H   H735      1.0  0.81846  0.93189  0.10653  1.0000
  C   C417      1.0  0.66240  0.35986  0.31421  1.0000
  H   H736      1.0  0.64315  0.99651  0.19608  1.0000
  C   C418      1.0  0.70380  0.34790  0.30295  1.0000
  S   S99       1.0  0.02033  0.30449  0.33862  1.0000
  C   C419      1.0  0.94820  0.28088  0.12363  1.0000
  S   S100      1.0  0.97181  0.23494  0.12700  1.0000
  H   H737      1.0  0.08356  0.98994  0.19420  1.0000
  C   C420      1.0  0.80939  0.34540  0.24489  1.0000
  H   H738      1.0  0.98436  0.07154  0.28974  1.0000
  H   H739      1.0  0.63632  0.30286  0.31393  1.0000
  H   H740      1.0  0.07560  0.32936  0.09569  1.0000
  H   H741      1.0  0.64624  0.03748  0.25912  1.0000
  H   H742      1.0  0.69620  0.99664  0.32451  1.0000
  H   H743      1.0  0.87550  0.27924  0.21595  1.0000
  H   H744      1.0  0.72853  0.09004  0.16129  1.0000
  C   C421      1.0  0.72038  0.01656  0.30237  1.0000
  H   H745      1.0  0.66802  0.11651  0.15791  1.0000
  H   H746      1.0  0.62329  0.23708  0.21183  1.0000
  H   H747      1.0  0.84681  0.18669  0.17348  1.0000
  H   H748      1.0  0.65053  0.07238  0.14030  1.0000
  H   H749      1.0  0.87086  0.33261  0.26384  1.0000
  H   H750      1.0  0.94411  0.34873  0.20281  1.0000
  H   H751      1.0  0.73487  0.09896  0.23215  1.0000
  H   H752      1.0  0.77692  0.91347  0.18706  1.0000
  H   H753      1.0  0.92089  0.29260  0.28592  1.0000
  H   H754      1.0  0.71890  0.27664  0.11400  1.0000
  C   C422      1.0  0.06365  0.21816  0.31983  1.0000
  C   C423      1.0  0.08108  0.98685  0.14780  1.0000
  H   H755      1.0  0.81947  0.93899  0.20515  1.0000
  N   N27       1.0  0.02796  0.11420  0.30395  1.0000
  C   C424      1.0  0.84367  0.22204  0.23595  1.0000
  C   C425      1.0  0.93693  0.33449  0.16812  1.0000
  C   C426      1.0  0.73001  0.37925  0.10861  1.0000
  C   C427      1.0  0.95754  0.29926  0.16839  1.0000
  H   H756      1.0  0.04329  0.14900  0.21209  1.0000
  H   H757      1.0  0.96600  0.14235  0.21223  1.0000
  H   H758      1.0  0.67044  0.96603  0.26380  1.0000
  H   H759      1.0  0.71463  0.20269  0.15785  1.0000
  H   H760      1.0  0.78372  0.04470  0.17825  1.0000
  C   C428      1.0  0.02246  0.89167  0.30473  1.0000
  C   C429      1.0  0.73659  0.07441  0.21062  1.0000
  H   H761      1.0  0.09457  0.08353  0.17537  1.0000
  C   C430      1.0  0.80776  0.09631  0.20020  1.0000
  C   C431      1.0  0.91577  0.11057  0.25817  1.0000
  H   H762      1.0  0.00646  0.09406  0.19102  1.0000
  H   H763      1.0  0.06322  0.12527  0.12752  1.0000
  H   H764      1.0  0.07354  0.24090  0.15956  1.0000
  H   H765      1.0  0.00744  0.99136  0.16936  1.0000
  C   C432      1.0  0.67210  0.98130  0.21402  1.0000
  H   H766      1.0  0.81279  0.21203  0.24292  1.0000
  H   H767      1.0  0.70205  0.03051  0.14971  1.0000
  H   H768      1.0  0.86261  0.20100  0.27328  1.0000
  H   H769      1.0  0.79004  0.03854  0.25835  1.0000
  C   C433      1.0  0.66811  0.06098  0.23796  1.0000
  H   H770      1.0  0.91769  0.08562  0.23775  1.0000
  H   H771      1.0  0.93686  0.01539  0.17013  1.0000
  H   H772      1.0  0.05299  0.07398  0.13021  1.0000
  C   C434      1.0  0.06380  0.09307  0.15791  1.0000
  H   H773      1.0  0.80838  0.10948  0.23832  1.0000
  C   C435      1.0  0.99783  0.96159  0.16528  1.0000
  C   C436      1.0  0.03718  0.08792  0.21095  1.0000
  H   H774      1.0  0.92166  0.98727  0.11904  1.0000
  H   H775      1.0  0.94703  0.92277  0.19919  1.0000
  H   H776      1.0  0.01249  0.17864  0.27151  1.0000
  H   H777      1.0  0.96397  0.95310  0.24632  1.0000
  C   C437      1.0  0.84640  0.91395  0.11410  1.0000
  H   H778      1.0  0.67806  0.14872  0.28298  1.0000
  H   H779      1.0  0.71973  0.37561  0.27787  1.0000
  H   H780      1.0  0.73389  0.99608  0.20435  1.0000
  H   H781      1.0  0.88737  0.22048  0.17107  1.0000
  H   H782      1.0  0.04989  0.23688  0.27483  1.0000
  H   H783      1.0  0.99075  0.96715  0.11549  1.0000
  C   C438      1.0  0.95900  0.95259  0.19870  1.0000
  H   H784      1.0  0.68140  0.96085  0.13531  1.0000
  H   H785      1.0  0.07521  0.91688  0.26272  1.0000
  H   H786      1.0  0.65217  0.92768  0.19275  1.0000
  C   C439      1.0  0.93837  0.22972  0.30395  1.0000
  H   H787      1.0  0.82424  0.28448  0.20054  1.0000
  H   H788      1.0  0.01516  0.35817  0.12796  1.0000
  C   C440      1.0  0.70545  0.01310  0.19935  1.0000
  H   H789      1.0  0.92752  0.23015  0.25772  1.0000
  C   C441      1.0  0.04322  0.92459  0.25394  1.0000
  C   C442      1.0  0.02709  0.15575  0.31256  1.0000
  H   H790      1.0  0.70471  0.92894  0.20674  1.0000
  H   H791      1.0  0.97057  0.23478  0.30305  1.0000
  C   C443      1.0  0.91827  0.26328  0.32237  1.0000
  H   H792      1.0  0.03121  0.30214  0.10093  1.0000
  H   H793      1.0  0.03954  0.05578  0.24078  1.0000
  H   H794      1.0  0.78031  0.33144  0.25504  1.0000
  H   H795      1.0  0.81417  0.35000  0.19598  1.0000
  C   C444      1.0  0.98611  0.09983  0.30233  1.0000
  H   H796      1.0  0.99003  0.89341  0.29761  1.0000
  H   H797      1.0  0.76511  0.32683  0.11406  1.0000
  C   C445      1.0  0.04861  0.11802  0.24609  1.0000
  H   H798      1.0  0.90536  0.09812  0.30521  1.0000
  C   C446      1.0  0.80390  0.25628  0.32052  1.0000
  H   H799      1.0  0.09034  0.92262  0.16502  1.0000
  H   H800      1.0  0.70265  0.32694  0.27517  1.0000
  H   H801      1.0  0.74650  0.38319  0.14896  1.0000
  H   H802      1.0  0.08114  0.11536  0.25606  1.0000
  H   H803      1.0  0.81388  0.90211  0.31640  1.0000
  H   H804      1.0  0.61173  0.13851  0.32484  1.0000
  H   H805      1.0  0.76996  0.93124  0.28138  1.0000
  H   H806      1.0  0.08843  0.17189  0.28851  1.0000
  C   C447      1.0  0.01672  0.89062  0.17833  1.0000
  C   C448      1.0  0.87532  0.25326  0.34149  1.0000
  Fe  Fe51      1.0  0.99330  0.36184  0.34392  1.0000
  H   H807      1.0  0.00281  0.89712  0.13134  1.0000
  H   H808      1.0  0.64816  0.37789  0.26930  1.0000
  C   C449      1.0  0.80302  0.91002  0.21917  1.0000
  C   C450      1.0  0.67464  0.14565  0.33051  1.0000
  S   S101      1.0  0.75524  0.14820  0.34196  1.0000
  C   C451      1.0  0.78857  0.90456  0.28275  1.0000
  C   C452      1.0  0.09663  0.25173  0.12611  1.0000
  H   H809      1.0  0.09313  0.23068  0.32550  1.0000
  H   H810      1.0  0.80145  0.38423  0.30148  1.0000
  H   H811      1.0  0.66540  0.37964  0.34360  1.0000
  H   H812      1.0  0.74468  0.19481  0.10070  1.0000
  H   H813      1.0  0.70652  0.05596  0.35714  1.0000
  H   H814      1.0  0.72866  0.25310  0.36266  1.0000
  H   H815      1.0  0.86447  0.24385  0.48779  1.0000
  S   S102      1.0  0.06170  0.24317  0.50503  1.0000
  C   C453      1.0  0.66562  0.13771  0.45348  1.0000
  H   H816      1.0  0.68765  0.04073  0.50410  1.0000
  C   C454      1.0  0.63291  0.13407  0.41643  1.0000
  H   H817      1.0  0.95645  0.92171  0.49612  1.0000
  H   H818      1.0  0.87197  0.21965  0.35781  1.0000
  C   C455      1.0  0.85619  0.96428  0.44578  1.0000
  H   H819      1.0  0.08109  0.09484  0.36256  1.0000
  S   S103      1.0  0.84652  0.07794  0.41900  1.0000
  H   H820      1.0  0.78435  0.30153  0.36289  1.0000
  C   C456      1.0  0.70774  0.14647  0.36882  1.0000
  H   H821      1.0  0.75793  0.21318  0.41816  1.0000
  S   S104      1.0  0.62743  0.95636  0.38871  1.0000
  C   C457      1.0  0.87005  0.94124  0.41067  1.0000
  H   H822      1.0  0.66235  0.13439  0.50116  1.0000
  H   H823      1.0  0.75979  0.92309  0.53618  1.0000
  S   S105      1.0  0.67671  0.27875  0.54212  1.0000
  H   H824      1.0  0.65660  0.30334  0.38645  1.0000
  H   H825      1.0  0.62891  0.33734  0.44276  1.0000
  C   C458      1.0  0.61495  0.91663  0.36025  1.0000
  C   C459      1.0  0.90710  0.36174  0.38864  1.0000
  H   H826      1.0  0.04468  0.01645  0.46163  1.0000
  C   C460      1.0  0.92494  0.33258  0.44017  1.0000
  H   H827      1.0  0.87313  0.26198  0.38350  1.0000
  C   C461      1.0  0.90608  0.21126  0.56110  1.0000
  H   H828      1.0  0.00021  0.88958  0.51026  1.0000
  C   C462      1.0  0.84706  0.94507  0.50644  1.0000
  Fe  Fe52      1.0  0.79147  0.36058  0.54469  1.0000
  H   H829      1.0  0.75136  0.89019  0.39844  1.0000
  H   H830      1.0  0.87782  0.95627  0.36415  1.0000
  H   H831      1.0  0.07246  0.15876  0.51750  1.0000
  H   H832      1.0  0.62534  0.24454  0.42291  1.0000
  C   C463      1.0  0.67488  0.01058  0.50762  1.0000
  H   H833      1.0  0.96157  0.09474  0.57575  1.0000
  C   C464      1.0  0.03309  0.89596  0.36758  1.0000
  H   H834      1.0  0.73123  0.14315  0.56344  1.0000
  C   C465      1.0  0.02929  0.20765  0.49108  1.0000
  C   C466      1.0  0.63721  0.13934  0.35439  1.0000
  H   H835      1.0  0.04545  0.22059  0.35703  1.0000
  H   H836      1.0  0.92282  0.30253  0.53738  1.0000
  S   S106      1.0  0.75723  0.34426  0.47099  1.0000
  H   H837      1.0  0.03686  0.08728  0.40164  1.0000
  H   H838      1.0  0.67215  0.00757  0.46112  1.0000
  C   C467      1.0  0.73581  0.17148  0.57289  1.0000
  H   H839      1.0  0.93590  0.26689  0.36221  1.0000
  H   H840      1.0  0.98046  0.25019  0.46170  1.0000
  H   H841      1.0  0.75711  0.02923  0.43891  1.0000
  H   H842      1.0  0.67949  0.19791  0.53089  1.0000
  H   H843      1.0  0.99655  0.96866  0.52533  1.0000
  H   H844      1.0  0.92727  0.23440  0.53818  1.0000
  H   H845      1.0  0.09542  0.02072  0.44193  1.0000
  C   C468      1.0  0.72767  0.89137  0.48279  1.0000
  C   C469      1.0  0.68233  0.93426  0.56066  1.0000
  C   C470      1.0  0.04239  0.16767  0.50083  1.0000
  Fe  Fe53      1.0  0.83107  0.04090  0.51314  1.0000
  C   C471      1.0  0.87299  0.34290  0.50129  1.0000
  H   H846      1.0  0.81276  0.25989  0.41409  1.0000
  H   H847      1.0  0.98048  0.23527  0.58888  1.0000
  Fe  Fe54      1.0  0.05322  0.30153  0.42688  1.0000
  C   C472      1.0  0.94741  0.00996  0.48842  1.0000
  C   C473      1.0  0.97825  0.15138  0.46445  1.0000
  C   C474      1.0  0.70662  0.20247  0.55435  1.0000
  H   H848      1.0  0.02766  0.10924  0.49200  1.0000
  C   C475      1.0  0.85480  0.37114  0.44916  1.0000
  H   H849      1.0  0.73027  0.97865  0.53154  1.0000
  C   C476      1.0  0.75243  0.24659  0.39957  1.0000
  H   H850      1.0  0.85710  0.25281  0.55867  1.0000
  C   C477      1.0  0.75165  0.01236  0.40585  1.0000
  H   H851      1.0  0.99480  0.01206  0.55207  1.0000
  S   S107      1.0  0.85095  0.33151  0.57107  1.0000
  H   H852      1.0  0.06475  0.88837  0.38032  1.0000
  S   S108      1.0  0.94832  0.11700  0.44204  1.0000
  H   H853      1.0  0.85306  0.99684  0.42599  1.0000
  H   H854      1.0  0.72809  0.14651  0.45845  1.0000
  C   C478      1.0  0.87196  0.38083  0.39305  1.0000
  C   C479      1.0  0.87480  0.89893  0.43625  1.0000
  Fe  Fe55      1.0  0.88508  0.11251  0.46615  1.0000
  C   C480      1.0  0.05246  0.03984  0.36342  1.0000
  H   H855      1.0  0.02385  0.02810  0.35208  1.0000
  H   H856      1.0  0.78025  0.00029  0.39744  1.0000
  C   C481      1.0  0.70109  0.97644  0.55085  1.0000
  H   H857      1.0  0.70655  0.91602  0.45706  1.0000
  H   H858      1.0  0.92678  0.02956  0.50278  1.0000
  C   C482      1.0  0.01711  0.13980  0.48623  1.0000
  C   C483      1.0  0.73266  0.04090  0.34622  1.0000
  H   H859      1.0  0.64505  0.00940  0.52483  1.0000
  Fe  Fe56      1.0  0.82148  0.11626  0.55287  1.0000
  C   C484      1.0  0.70294  0.14388  0.42964  1.0000
  S   S109      1.0  0.83060  0.97284  0.55231  1.0000
  C   C485      1.0  0.74121  0.89576  0.54563  1.0000
  C   C486      1.0  0.06548  0.01288  0.42825  1.0000
  H   H860      1.0  0.84353  0.88770  0.57801  1.0000
  Fe  Fe57      1.0  0.79798  0.12074  0.42274  1.0000
  H   H861      1.0  0.08111  0.15683  0.36947  1.0000
  H   H862      1.0  0.84290  0.20523  0.54865  1.0000
  H   H863      1.0  0.73219  0.98643  0.42592  1.0000
  S   S110      1.0  0.10426  0.33705  0.38087  1.0000
  S   S111      1.0  0.83787  0.15884  0.46192  1.0000
  H   H864      1.0  0.06589  0.98035  0.43046  1.0000
  H   H865      1.0  0.93453  0.19952  0.44137  1.0000
  C   C487      1.0  0.76239  0.89299  0.44300  1.0000
  C   C488      1.0  0.96878  0.89083  0.52000  1.0000
  C   C489      1.0  0.96467  0.19077  0.45731  1.0000
  H   H866      1.0  0.93025  0.98763  0.47274  1.0000
  H   H867      1.0  0.77794  0.92227  0.43441  1.0000
  H   H868      1.0  0.90987  0.18408  0.54614  1.0000
  Fe  Fe58      1.0  0.70691  0.33793  0.53074  1.0000
  C   C490      1.0  0.05010  0.08542  0.35943  1.0000
  N   N28       1.0  0.70904  0.89732  0.58756  1.0000
  H   H869      1.0  0.95146  0.31681  0.43618  1.0000
  H   H870      1.0  0.00905  0.15524  0.35157  1.0000
  H   H871      1.0  0.96343  0.02933  0.44930  1.0000
  S   S112      1.0  0.77919  0.08047  0.51386  1.0000
  C   C491      1.0  0.97675  0.98822  0.54118  1.0000
  H   H872      1.0  0.74236  0.25719  0.43703  1.0000
  C   C492      1.0  0.79020  0.26828  0.37569  1.0000
  H   H873      1.0  0.66750  0.93366  0.51683  1.0000
  H   H874      1.0  0.97481  0.09120  0.34892  1.0000
  C   C493      1.0  0.90839  0.32389  0.49702  1.0000
  H   H875      1.0  0.92965  0.94902  0.58316  1.0000
  C   C494      1.0  0.99053  0.21928  0.46905  1.0000
  C   C495      1.0  0.85091  0.90272  0.53139  1.0000
  S   S113      1.0  0.87195  0.07319  0.56032  1.0000
  C   C496      1.0  0.86512  0.22932  0.53794  1.0000
  C   C497      1.0  0.71300  0.23970  0.56492  1.0000
  S   S114      1.0  0.02225  0.35608  0.43592  1.0000
  H   H876      1.0  0.02662  0.92734  0.36796  1.0000
  H   H877      1.0  0.97297  0.16630  0.58681  1.0000
  H   H878      1.0  0.65782  0.93351  0.59080  1.0000
  C   C498      1.0  0.74853  0.24557  0.59422  1.0000
  H   H879      1.0  0.60941  0.38330  0.39082  1.0000
  H   H880      1.0  0.72037  0.33318  0.34727  1.0000
  C   C499      1.0  0.63827  0.32158  0.34530  1.0000
  C   C500      1.0  0.80231  0.38375  0.71046  1.0000
  C   C501      1.0  0.95307  0.17309  0.72824  1.0000
  H   H881      1.0  0.96015  0.31744  0.67618  1.0000
  H   H882      1.0  0.88369  0.98852  0.74565  1.0000
  H   H883      1.0  0.00195  0.14851  0.65582  1.0000
  C   C502      1.0  0.64038  0.94144  0.83540  1.0000
  C   C503      1.0  0.77983  0.91366  0.71852  1.0000
  H   H884      1.0  0.94380  0.33504  0.73634  1.0000
  H   H885      1.0  0.98016  0.15441  0.74820  1.0000
  C   C504      1.0  0.75017  0.98984  0.83697  1.0000
  C   C505      1.0  0.96054  0.91605  0.70524  1.0000
  H   H886      1.0  0.78964  0.90546  0.63309  1.0000
  H   H887      1.0  0.86091  0.36719  0.70039  1.0000
  H   H888      1.0  0.02341  0.28393  0.67159  1.0000
  H   H889      1.0  0.89465  0.03961  0.69949  1.0000
  H   H890      1.0  0.64415  0.21789  0.78343  1.0000
  H   H891      1.0  0.99960  0.29700  0.78722  1.0000
  H   H892      1.0  0.00496  0.04696  0.75709  1.0000
  H   H893      1.0  0.10489  0.92931  0.75428  1.0000
  H   H894      1.0  0.82409  0.02998  0.68855  1.0000
  H   H895      1.0  0.64798  0.35590  0.68381  1.0000
  H   H896      1.0  0.94323  0.98503  0.61924  1.0000
  H   H897      1.0  0.94956  0.10202  0.83029  1.0000
  H   H898      1.0  0.05126  0.04308  0.72460  1.0000
  H   H899      1.0  0.77634  0.08847  0.77352  1.0000
  H   H900      1.0  0.03313  0.92227  0.75795  1.0000
  H   H901      1.0  0.95431  0.09831  0.70526  1.0000
  C   C506      1.0  0.66395  0.26277  0.70231  1.0000
  H   H902      1.0  0.97817  0.89116  0.73951  1.0000
  H   H903      1.0  0.89237  0.17141  0.75617  1.0000
  H   H904      1.0  0.91883  0.11662  0.64077  1.0000
  H   H905      1.0  0.03607  0.96275  0.61903  1.0000
  H   H906      1.0  0.66397  0.15188  0.67177  1.0000
  C   C507      1.0  0.66853  0.23987  0.77203  1.0000
  C   C508      1.0  0.90010  0.88867  0.76364  1.0000
  C   C509      1.0  0.09862  0.05290  0.82406  1.0000
  H   H907      1.0  0.75178  0.00912  0.71156  1.0000
  H   H908      1.0  0.74292  0.27251  0.76919  1.0000
  H   H909      1.0  0.74964  0.06343  0.83808  1.0000
  H   H910      1.0  0.83161  0.99850  0.82889  1.0000
  H   H911      1.0  0.80383  0.21862  0.63876  1.0000
  N   N29       1.0  0.95270  0.18710  0.65914  1.0000
  N   N30       1.0  0.98143  0.93150  0.64628  1.0000
  C   C510      1.0  0.95065  0.11324  0.65505  1.0000
  H   H912      1.0  0.80913  0.26374  0.70096  1.0000
  C   C511      1.0  0.76578  0.91825  0.65267  1.0000
  C   C512      1.0  0.81262  0.00566  0.78605  1.0000
  H   H913      1.0  0.95798  0.94101  0.72591  1.0000
  C   C513      1.0  0.92685  0.12599  0.82600  1.0000
  N   N31       1.0  0.77303  0.02280  0.79317  1.0000
  H   H914      1.0  0.05323  0.09792  0.77056  1.0000
  C   C514      1.0  0.77623  0.06018  0.81375  1.0000
  H   H915      1.0  0.98758  0.35602  0.69687  1.0000
  H   H916      1.0  0.73684  0.24801  0.71354  1.0000
  H   H917      1.0  0.72476  0.14047  0.73999  1.0000
  C   C515      1.0  0.66370  0.15572  0.71767  1.0000
  C   C516      1.0  0.87955  0.02131  0.74034  1.0000
  H   H918      1.0  0.05314  0.89686  0.70882  1.0000
  H   H919      1.0  0.95763  0.05325  0.64530  1.0000
  H   H920      1.0  0.68238  0.15825  0.82567  1.0000
  H   H921      1.0  0.65433  0.12667  0.75081  1.0000
  C   C517      1.0  0.03911  0.26356  0.65152  1.0000
  H   H922      1.0  0.70422  0.09754  0.64818  1.0000
  H   H923      1.0  0.90443  0.36276  0.63812  1.0000
  H   H924      1.0  0.78416  0.19452  0.76238  1.0000
  C   C518      1.0  0.08549  0.94841  0.71537  1.0000
  H   H925      1.0  0.00990  0.98092  0.67029  1.0000
  H   H926      1.0  0.69253  0.04943  0.63655  1.0000
  C   C519      1.0  0.77048  0.17692  0.60466  1.0000
  S   S115      1.0  0.94430  0.23531  0.83599  1.0000
  C   C520      1.0  0.74140  0.24172  0.76350  1.0000
  H   H927      1.0  0.07017  0.26006  0.67022  1.0000
  H   H928      1.0  0.80632  0.12770  0.84381  1.0000
  C   C521      1.0  0.70497  0.16675  0.73653  1.0000
  C   C522      1.0  0.62116  0.27588  0.68160  1.0000
  H   H929      1.0  0.68197  0.29068  0.69083  1.0000
  H   H930      1.0  0.96199  0.25086  0.64875  1.0000
  H   H931      1.0  0.76431  0.06090  0.69834  1.0000
  H   H932      1.0  0.89047  0.17350  0.64827  1.0000
  H   H933      1.0  0.89879  0.91592  0.77904  1.0000
  S   S116      1.0  0.74198  0.35135  0.60698  1.0000
  H   H934      1.0  0.65741  0.07493  0.66883  1.0000
  H   H935      1.0  0.61955  0.29613  0.63331  1.0000
  C   C523      1.0  0.05524  0.06617  0.80220  1.0000
  C   C524      1.0  0.83593  0.03306  0.73269  1.0000
  H   H936      1.0  0.10181  0.18443  0.70456  1.0000
  C   C525      1.0  0.01995  0.22177  0.66779  1.0000
  H   H937      1.0  0.00174  0.08292  0.63347  1.0000
  H   H938      1.0  0.70196  0.06563  0.76031  1.0000
  H   H939      1.0  0.89319  0.02777  0.78094  1.0000
  H   H940      1.0  0.75727  0.92566  0.74169  1.0000
  H   H941      1.0  0.80904  0.97566  0.77835  1.0000
  H   H942      1.0  0.90557  0.12708  0.73714  1.0000
  H   H943      1.0  0.10064  0.95271  0.67240  1.0000
  C   C526      1.0  0.01542  0.26845  0.80580  1.0000
  H   H944      1.0  0.68916  0.01771  0.74975  1.0000
  C   C527      1.0  0.91128  0.19872  0.63174  1.0000
  H   H945      1.0  0.07092  0.29591  0.78482  1.0000
  H   H946      1.0  0.67875  0.36670  0.80440  1.0000
  N   N32       1.0  0.70764  0.21847  0.79788  1.0000
  C   C528      1.0  0.97716  0.22516  0.63902  1.0000
  C   C529      1.0  0.99542  0.23288  0.83330  1.0000
  H   H947      1.0  0.08071  0.97841  0.72187  1.0000
  C   C530      1.0  0.01807  0.95270  0.65988  1.0000
  C   C531      1.0  0.64161  0.90077  0.83641  1.0000
  H   H948      1.0  0.67342  0.24365  0.67526  1.0000
  H   H949      1.0  0.81691  0.27553  0.77151  1.0000
  C   C532      1.0  0.81500  0.25041  0.75126  1.0000
  H   H950      1.0  0.02122  0.20905  0.71840  1.0000
  S   S117      1.0  0.80643  0.13787  0.63093  1.0000
  H   H951      1.0  0.70509  0.90620  0.67597  1.0000
  C   C533      1.0  0.75046  0.03446  0.73158  1.0000
  C   C534      1.0  0.70715  0.17457  0.79922  1.0000
  H   H952      1.0  0.89977  0.22400  0.64677  1.0000
  H   H953      1.0  0.84396  0.23408  0.76010  1.0000
  C   C535      1.0  0.68917  0.06822  0.66711  1.0000
  C   C536      1.0  0.96921  0.08439  0.62557  1.0000
  H   H954      1.0  0.03824  0.20214  0.64972  1.0000
  C   C537      1.0  0.95762  0.34458  0.69158  1.0000
  H   H955      1.0  0.09161  0.13725  0.80694  1.0000
  H   H956      1.0  0.03903  0.00640  0.79667  1.0000
  H   H957      1.0  0.66164  0.26335  0.79391  1.0000
  H   H958      1.0  0.89877  0.92077  0.66747  1.0000
  H   H959      1.0  0.75426  0.27423  0.60157  1.0000
  C   C538      1.0  0.03669  0.03893  0.76797  1.0000
  C   C539      1.0  0.91682  0.14942  0.75884  1.0000
  C   C540      1.0  0.05630  0.26786  0.80549  1.0000
  H   H960      1.0  0.95495  0.19979  0.74513  1.0000
  C   C541      1.0  0.04638  0.92704  0.71339  1.0000
  H   H961      1.0  0.74379  0.96484  0.81714  1.0000
  C   C542      1.0  0.72687  0.89534  0.64997  1.0000
  H   H962      1.0  0.83338  0.06560  0.72954  1.0000
  C   C543      1.0  0.97099  0.15498  0.63719  1.0000
  C   C544      1.0  0.78276  0.22081  0.78008  1.0000
  C   C545      1.0  0.61447  0.96942  0.79379  1.0000
  H   H963      1.0  0.76269  0.95115  0.62763  1.0000
  C   C546      1.0  0.99413  0.89683  0.62445  1.0000
  C   C547      1.0  0.70633  0.04586  0.73157  1.0000
  H   H964      1.0  0.64169  0.17989  0.71492  1.0000
  H   H965      1.0  0.71609  0.19213  0.69933  1.0000
  H   H966      1.0  0.80738  0.93085  0.71835  1.0000
  C   C548      1.0  0.95577  0.96290  0.59878  1.0000
  H   H967      1.0  0.79263  0.35196  0.71837  1.0000
  C   C549      1.0  0.77670  0.21396  0.61544  1.0000
  C   C550      1.0  0.91882  0.89876  0.70183  1.0000
  H   H968      1.0  0.70898  0.32176  0.81995  1.0000
  C   C551      1.0  0.07774  0.23166  0.83280  1.0000
  C   C552      1.0  0.61670  0.88788  0.79624  1.0000
  H   H969      1.0  0.83975  0.06898  0.82769  1.0000
  C   C553      1.0  0.93235  0.37718  0.64466  1.0000
  Fe  Fe59      1.0  0.10242  0.38136  0.73847  1.0000
  H   H970      1.0  0.73379  0.15800  0.82574  1.0000
  H   H971      1.0  0.03887  0.27811  0.60113  1.0000
  H   H972      1.0  0.62067  0.02993  0.62576  1.0000
  H   H973      1.0  0.02042  0.90515  0.59660  1.0000
  H   H974      1.0  0.79009  0.20948  0.82997  1.0000
  H   H975      1.0  0.94697  0.38544  0.60076  1.0000
  C   C554      1.0  0.68948  0.33862  0.84093  1.0000
  H   H976      1.0  0.03707  0.06392  0.84152  1.0000
  H   H977      1.0  0.72108  0.00187  0.84405  1.0000
  H   H978      1.0  0.70439  0.98240  0.59537  1.0000
  H   H979      1.0  0.78332  0.45361  0.91168  1.0000
  C   C555      1.0  0.10392  0.58535  0.00336  1.0000
  C   C556      1.0  0.91470  0.71746  0.89949  1.0000
  Fe  Fe60      1.0  0.95051  0.48756  0.94136  1.0000
  C   C557      1.0  0.01628  0.60514  0.96915  1.0000
  H   H980      1.0  0.07722  0.77069  0.93571  1.0000
  C   C558      1.0  0.79674  0.63703  0.93975  1.0000
  C   C559      1.0  0.76650  0.45436  0.87058  1.0000
  H   H981      1.0  0.72220  0.40997  0.07616  1.0000
  H   H982      1.0  0.08512  0.48129  0.86723  1.0000
  C   C560      1.0  0.89097  0.71131  0.95596  1.0000
  H   H983      1.0  0.07469  0.42461  0.99820  1.0000
  H   H984      1.0  0.87695  0.74050  0.95513  1.0000
  C   C561      1.0  0.06974  0.61027  0.07525  1.0000
  H   H985      1.0  0.71088  0.45032  0.91216  1.0000
  H   H986      1.0  0.87422  0.76945  0.05467  1.0000
  S   S118      1.0  0.06264  0.83341  0.99227  1.0000
  S   S119      1.0  0.68819  0.51118  0.06066  1.0000
  S   S120      1.0  0.86054  0.58780  0.98723  1.0000
  S   S121      1.0  0.68046  0.73697  0.87366  1.0000
  S   S122      1.0  0.95181  0.80404  0.04909  1.0000
  H   H987      1.0  0.78796  0.63000  0.98625  1.0000
  Fe  Fe61      1.0  0.05347  0.85891  0.89005  1.0000
  H   H988      1.0  0.03319  0.54196  0.00735  1.0000
  H   H989      1.0  0.05812  0.38787  0.92780  1.0000
  Fe  Fe62      1.0  0.88061  0.53342  0.96493  1.0000
  C   C562      1.0  0.83788  0.81377  0.98512  1.0000
  H   H990      1.0  0.75292  0.55688  0.95360  1.0000
  Fe  Fe63      1.0  0.71175  0.74066  0.95990  1.0000
  C   C563      1.0  0.73103  0.58138  0.85862  1.0000
  H   H991      1.0  0.83481  0.65286  0.05027  1.0000
  C   C564      1.0  0.74791  0.83965  0.08177  1.0000
  Fe  Fe64      1.0  0.64032  0.49067  0.00642  1.0000
  H   H992      1.0  0.00791  0.40433  0.98918  1.0000
  H   H993      1.0  0.61674  0.85823  0.03922  1.0000
  H   H994      1.0  0.95447  0.58986  0.98303  1.0000
  H   H995      1.0  0.07812  0.49071  0.05664  1.0000
  C   C565      1.0  0.90661  0.82321  0.01040  1.0000
  H   H996      1.0  0.92971  0.88157  0.96058  1.0000
  S   S123      1.0  0.62403  0.51959  0.90667  1.0000
  C   C566      1.0  0.90456  0.86214  0.96700  1.0000
  C   C567      1.0  0.03328  0.56880  0.02374  1.0000
  Fe  Fe65      1.0  0.89041  0.44289  0.03118  1.0000
  S   S124      1.0  0.84037  0.48104  0.97560  1.0000
  Fe  Fe66      1.0  0.86848  0.47325  0.89459  1.0000
  H   H997      1.0  0.06459  0.63941  0.03721  1.0000
  C   C568      1.0  0.69180  0.56244  0.05728  1.0000
  C   C569      1.0  0.86981  0.87638  0.93139  1.0000
  H   H998      1.0  0.74935  0.67998  0.90237  1.0000
  H   H999      1.0  0.76199  0.84187  0.03851  1.0000
  H   H1000     1.0  0.67514  0.58697  0.96153  1.0000
  S   S125      1.0  0.69716  0.80715  0.94004  1.0000
  H   H1001     1.0  0.81956  0.57973  0.09242  1.0000
  H   H1002     1.0  0.63579  0.74129  0.97912  1.0000
  H   H1003     1.0  0.01272  0.63299  0.98238  1.0000
  S   S126      1.0  0.01446  0.49387  0.92200  1.0000
  C   C570      1.0  0.83952  0.62529  0.86647  1.0000
  Fe  Fe67      1.0  0.67049  0.80427  0.85038  1.0000
  S   S127      1.0  0.92881  0.49611  0.02618  1.0000
  C   C571      1.0  0.72537  0.45186  0.87109  1.0000
  H   H1004     1.0  0.91066  0.70001  0.99806  1.0000
  C   C572      1.0  0.73967  0.54563  0.91706  1.0000
  H   H1005     1.0  0.71435  0.60493  0.87088  1.0000
  C   C573      1.0  0.68944  0.63480  0.00034  1.0000
  H   H1006     1.0  0.96417  0.41421  0.08619  1.0000
  C   C574      1.0  0.02237  0.47404  0.86269  1.0000
  C   C575      1.0  0.68425  0.59407  0.00244  1.0000
  H   H1007     1.0  0.71758  0.85265  0.06975  1.0000
  S   S128      1.0  0.90487  0.52938  0.87883  1.0000
  C   C576      1.0  0.83671  0.85190  0.93951  1.0000
  H   H1008     1.0  0.63029  0.79880  0.02349  1.0000
  H   H1009     1.0  0.92793  0.68745  0.90326  1.0000
  C   C577      1.0  0.97558  0.59559  0.94629  1.0000
  S   S129      1.0  0.77087  0.75319  0.92020  1.0000
  H   H1010     1.0  0.86771  0.68854  0.95768  1.0000
  Fe  Fe68      1.0  0.62791  0.45681  0.90000  1.0000
  C   C578      1.0  0.87290  0.79941  0.02071  1.0000
  Fe  Fe69      1.0  0.99739  0.84331  0.99309  1.0000
  H   H1011     1.0  0.09736  0.61590  0.96912  1.0000
  S   S130      1.0  0.98775  0.86349  0.89056  1.0000
  S   S131      1.0  0.91603  0.43075  0.95124  1.0000
  H   H1012     1.0  0.08172  0.54793  0.94706  1.0000
  H   H1013     1.0  0.61808  0.61535  0.87324  1.0000
  H   H1014     1.0  0.03571  0.61190  0.93021  1.0000
  C   C579      1.0  0.70144  0.64398  0.05340  1.0000
  H   H1015     1.0  0.01157  0.56162  0.06000  1.0000
  H   H1016     1.0  0.00348  0.44877  0.05579  1.0000
  C   C580      1.0  0.09426  0.39877  0.99874  1.0000
  H   H1017     1.0  0.68386  0.65890  0.95777  1.0000
  S   S132      1.0  0.64897  0.42842  0.99764  1.0000
  H   H1018     1.0  0.66123  0.87938  0.86931  1.0000
  Fe  Fe70      1.0  0.75354  0.81897  0.89238  1.0000
  C   C581      1.0  0.77508  0.66568  0.89227  1.0000
  H   H1019     1.0  0.77247  0.47109  0.05070  1.0000
  H   H1020     1.0  0.93822  0.73928  0.90140  1.0000
  H   H1021     1.0  0.96422  0.62178  0.90703  1.0000
  N   N33       1.0  0.07341  0.57482  0.05075  1.0000
  H   H1022     1.0  0.76095  0.52400  0.90874  1.0000
  H   H1023     1.0  0.97720  0.56849  0.93064  1.0000
  H   H1024     1.0  0.81199  0.79523  0.99278  1.0000
  H   H1025     1.0  0.77820  0.53235  0.07701  1.0000
  C   C582      1.0  0.82982  0.61799  0.92705  1.0000
  H   H1026     1.0  0.71230  0.52935  0.93333  1.0000
  S   S133      1.0  0.70591  0.69474  0.05313  1.0000
  S   S134      1.0  0.79451  0.86951  0.89160  1.0000
  H   H1027     1.0  0.61961  0.72619  0.05561  1.0000
  H   H1028     1.0  0.82725  0.51189  0.08227  1.0000
  H   H1029     1.0  0.61501  0.63392  0.93750  1.0000
  C   C583      1.0  0.61134  0.74397  0.00746  1.0000
  C   C584      1.0  0.10065  0.76266  0.91170  1.0000
  H   H1030     1.0  0.86459  0.60978  0.85655  1.0000
  C   C585      1.0  0.99585  0.42033  0.09178  1.0000
  H   H1031     1.0  0.05182  0.39301  0.09223  1.0000
  C   C586      1.0  0.06064  0.46985  0.84603  1.0000
  H   H1032     1.0  0.86090  0.71649  0.84540  1.0000
  H   H1033     1.0  0.82555  0.84042  0.09360  1.0000
  H   H1034     1.0  0.96088  0.46440  0.84548  1.0000
  H   H1035     1.0  0.84484  0.56166  0.25791  1.0000
  H   H1036     1.0  0.90501  0.87022  0.18104  1.0000
  S   S135      1.0  0.74515  0.44347  0.33293  1.0000
  C   C587      1.0  0.62953  0.47438  0.30085  1.0000
  C   C588      1.0  0.81831  0.57885  0.14071  1.0000
  H   H1037     1.0  0.77063  0.87671  0.29824  1.0000
  H   H1038     1.0  0.04362  0.60627  0.10366  1.0000
  H   H1039     1.0  0.67438  0.66637  0.27689  1.0000
  H   H1040     1.0  0.67793  0.73889  0.15846  1.0000
  C   C589      1.0  0.88621  0.48331  0.18933  1.0000
  C   C590      1.0  0.70426  0.57159  0.11013  1.0000
  C   C591      1.0  0.78155  0.46740  0.09908  1.0000
  C   C592      1.0  0.69181  0.45962  0.23598  1.0000
  C   C593      1.0  0.82614  0.53804  0.24801  1.0000
  H   H1041     1.0  0.06731  0.86625  0.14491  1.0000
  H   H1042     1.0  0.94380  0.48466  0.23478  1.0000
  C   C594      1.0  0.69143  0.71574  0.19997  1.0000
  H   H1043     1.0  0.94398  0.49912  0.15221  1.0000
  H   H1044     1.0  0.03203  0.86065  0.30616  1.0000
  S   S136      1.0  0.03893  0.40260  0.29213  1.0000
  C   C595      1.0  0.88231  0.85057  0.16864  1.0000
  H   H1045     1.0  0.89155  0.84589  0.12580  1.0000
  C   C596      1.0  0.80286  0.50664  0.17133  1.0000
  H   H1046     1.0  0.71558  0.45334  0.21093  1.0000
  H   H1047     1.0  0.83984  0.62058  0.19028  1.0000
  C   C597      1.0  0.09659  0.65214  0.14034  1.0000
  H   H1048     1.0  0.77275  0.51154  0.18480  1.0000
  H   H1049     1.0  0.65806  0.59568  0.31235  1.0000
  C   C598      1.0  0.03195  0.81602  0.19144  1.0000
  H   H1050     1.0  0.93009  0.76140  0.26425  1.0000
  H   H1051     1.0  0.81450  0.68618  0.30225  1.0000
  C   C599      1.0  0.81490  0.65287  0.31024  1.0000
  C   C600      1.0  0.69863  0.45858  0.29662  1.0000
  H   H1052     1.0  0.81109  0.81561  0.16813  1.0000
  H   H1053     1.0  0.81105  0.47525  0.20022  1.0000
  H   H1054     1.0  0.04722  0.69408  0.30616  1.0000
  H   H1055     1.0  0.70981  0.54715  0.15278  1.0000
  H   H1056     1.0  0.66072  0.85158  0.13491  1.0000
  C   C601      1.0  0.84301  0.61549  0.14585  1.0000
  H   H1057     1.0  0.70545  0.73170  0.23031  1.0000
  C   C602      1.0  0.09450  0.46091  0.15159  1.0000
  C   C603      1.0  0.78388  0.64470  0.26527  1.0000
  N   N34       1.0  0.83090  0.53722  0.18380  1.0000
  H   H1058     1.0  0.79502  0.54639  0.25255  1.0000
  C   C604      1.0  0.70874  0.61222  0.10832  1.0000
  C   C605      1.0  0.79859  0.50710  0.10387  1.0000
  H   H1059     1.0  0.62132  0.86655  0.17352  1.0000
  C   C606      1.0  0.88572  0.80774  0.21808  1.0000
  C   C607      1.0  0.66765  0.46670  0.32879  1.0000
  H   H1060     1.0  0.93903  0.44641  0.19729  1.0000
  H   H1061     1.0  0.75509  0.45935  0.12611  1.0000
  C   C608      1.0  0.08621  0.53748  0.10392  1.0000
  C   C609      1.0  0.80750  0.38728  0.25347  1.0000
  H   H1062     1.0  0.01720  0.80389  0.23515  1.0000
  H   H1063     1.0  0.74611  0.80701  0.10962  1.0000
  H   H1064     1.0  0.99318  0.87648  0.20907  1.0000
  H   H1065     1.0  0.79754  0.66098  0.09830  1.0000
  H   H1066     1.0  0.89341  0.54298  0.20087  1.0000
  H   H1067     1.0  0.81609  0.84503  0.24592  1.0000
  H   H1068     1.0  0.87441  0.47139  0.15275  1.0000
  N   N35       1.0  0.84230  0.87156  0.15871  1.0000
  H   H1069     1.0  0.61945  0.55700  0.12025  1.0000
  H   H1070     1.0  0.75404  0.65315  0.27516  1.0000
  H   H1071     1.0  0.86934  0.49281  0.30493  1.0000
  C   C610      1.0  0.83703  0.49850  0.30101  1.0000
  H   H1072     1.0  0.71452  0.69838  0.18594  1.0000
  H   H1073     1.0  0.62483  0.58441  0.20427  1.0000
  H   H1074     1.0  0.06911  0.85464  0.22660  1.0000
  H   H1075     1.0  0.94644  0.81284  0.24970  1.0000
  H   H1076     1.0  0.09121  0.68140  0.10276  1.0000
  H   H1077     1.0  0.01065  0.81810  0.15229  1.0000
  H   H1078     1.0  0.63802  0.70564  0.24705  1.0000
  C   C611      1.0  0.62265  0.47418  0.24067  1.0000
  C   C612      1.0  0.63536  0.84050  0.16356  1.0000
  H   H1079     1.0  0.75581  0.86026  0.15983  1.0000
  H   H1080     1.0  0.61962  0.79277  0.12659  1.0000
  H   H1081     1.0  0.71835  0.61894  0.14940  1.0000
  H   H1082     1.0  0.94111  0.79124  0.18769  1.0000
  H   H1083     1.0  0.78978  0.66322  0.21772  1.0000
  H   H1084     1.0  0.00152  0.42437  0.13731  1.0000
  H   H1085     1.0  0.62088  0.56133  0.30200  1.0000
  H   H1086     1.0  0.86883  0.78515  0.20234  1.0000
  H   H1087     1.0  0.08293  0.43108  0.15120  1.0000
  H   H1088     1.0  0.87550  0.46347  0.23297  1.0000
  H   H1089     1.0  0.08988  0.46400  0.19716  1.0000
  H   H1090     1.0  0.84426  0.64390  0.29936  1.0000
  H   H1091     1.0  0.64048  0.68027  0.14668  1.0000
  H   H1092     1.0  0.82202  0.47169  0.29462  1.0000
  H   H1093     1.0  0.87998  0.54358  0.12542  1.0000
  H   H1094     1.0  0.78331  0.40601  0.22351  1.0000
  C   C613      1.0  0.77120  0.86342  0.11743  1.0000
  H   H1095     1.0  0.80382  0.44227  0.11589  1.0000
  H   H1096     1.0  0.62343  0.63417  0.09745  1.0000
  H   H1097     1.0  0.85689  0.87635  0.24912  1.0000
  S   S137      1.0  0.88170  0.39550  0.12118  1.0000
  C   C614      1.0  0.83036  0.87384  0.21988  1.0000
  C   C615      1.0  0.93103  0.47833  0.19350  1.0000
  H   H1098     1.0  0.78695  0.58534  0.14641  1.0000
  C   C616      1.0  0.66010  0.68704  0.23400  1.0000
  H   H1099     1.0  0.05593  0.79422  0.19138  1.0000
  C   C617      1.0  0.64239  0.66115  0.19549  1.0000
  C   C618      1.0  0.65372  0.46683  0.20842  1.0000
  H   H1100     1.0  0.87468  0.61054  0.14066  1.0000
  C   C619      1.0  0.87326  0.52873  0.17420  1.0000
  H   H1101     1.0  0.07036  0.64494  0.16823  1.0000
  C   C620      1.0  0.92850  0.79255  0.23043  1.0000
  C   C621      1.0  0.62651  0.58805  0.31758  1.0000
  H   H1102     1.0  0.87478  0.80787  0.26239  1.0000
  H   H1103     1.0  0.64635  0.81817  0.20776  1.0000
  C   C622      1.0  0.81384  0.84638  0.13411  1.0000
  C   C623      1.0  0.04929  0.85769  0.18572  1.0000
  H   H1104     1.0  0.78418  0.61198  0.26877  1.0000
  H   H1105     1.0  0.64809  0.46604  0.16231  1.0000
  H   H1106     1.0  0.07429  0.53914  0.14717  1.0000
  H   H1107     1.0  0.83576  0.40314  0.24185  1.0000
  H   H1108     1.0  0.04093  0.49200  0.10800  1.0000
  H   H1109     1.0  0.66533  0.63750  0.19858  1.0000
  H   H1110     1.0  0.84625  0.68104  0.10213  1.0000
  C   C624      1.0  0.10576  0.61776  0.11450  1.0000
  C   C625      1.0  0.07297  0.49522  0.10093  1.0000
  C   C626      1.0  0.82944  0.65495  0.09613  1.0000
  C   C627      1.0  0.03511  0.45046  0.55501  1.0000
  H   H1111     1.0  0.94119  0.57807  0.47636  1.0000
  C   C628      1.0  0.06490  0.83649  0.54441  1.0000
  H   H1112     1.0  0.99236  0.54905  0.40979  1.0000
  C   C629      1.0  0.77452  0.76740  0.56029  1.0000
  H   H1113     1.0  0.95284  0.86951  0.50045  1.0000
  H   H1114     1.0  0.01239  0.39171  0.55528  1.0000
  H   H1115     1.0  0.89107  0.44998  0.44432  1.0000
  H   H1116     1.0  0.84620  0.70086  0.37979  1.0000
  C   C630      1.0  0.70272  0.58613  0.51857  1.0000
  H   H1117     1.0  0.87447  0.59499  0.41892  1.0000
  H   H1118     1.0  0.79343  0.51050  0.35979  1.0000
  C   C631      1.0  0.80689  0.54941  0.57272  1.0000
  H   H1119     1.0  0.78338  0.86729  0.46529  1.0000
  H   H1120     1.0  0.94305  0.45935  0.43965  1.0000
  H   H1121     1.0  0.62580  0.59847  0.40627  1.0000
  H   H1122     1.0  0.09266  0.46942  0.52236  1.0000
  H   H1123     1.0  0.95384  0.62839  0.42834  1.0000
  Fe  Fe71      1.0  0.96501  0.73600  0.44605  1.0000
  Fe  Fe72      1.0  0.92086  0.81057  0.45484  1.0000
  C   C632      1.0  0.61822  0.57442  0.38561  1.0000
  C   C633      1.0  0.74018  0.74488  0.56272  1.0000
  C   C634      1.0  0.10314  0.75798  0.44272  1.0000
  S   S138      1.0  0.98492  0.79616  0.45271  1.0000
  N   N36       1.0  0.07238  0.51446  0.56213  1.0000
  H   H1124     1.0  0.92641  0.41132  0.48820  1.0000
  H   H1125     1.0  0.77251  0.79992  0.55176  1.0000
  C   C635      1.0  0.81412  0.61568  0.48722  1.0000
  C   C636      1.0  0.05623  0.68133  0.35421  1.0000
  H   H1126     1.0  0.76154  0.86941  0.56881  1.0000
  C   C637      1.0  0.74303  0.70288  0.57290  1.0000
  Fe  Fe73      1.0  0.07052  0.39201  0.38339  1.0000
  C   C638      1.0  0.81154  0.74791  0.56768  1.0000
  C   C639      1.0  0.70538  0.59077  0.45660  1.0000
  S   S139      1.0  0.98539  0.70956  0.37587  1.0000
  H   H1127     1.0  0.80591  0.75422  0.44088  1.0000
  H   H1128     1.0  0.88542  0.64636  0.38171  1.0000
  Fe  Fe74      1.0  0.65352  0.73846  0.50079  1.0000
  S   S140      1.0  0.66922  0.74378  0.40579  1.0000
  Fe  Fe75      1.0  0.74072  0.41032  0.43275  1.0000
  Fe  Fe76      1.0  0.98333  0.76691  0.55427  1.0000
  S   S141      1.0  0.68634  0.40293  0.48559  1.0000
  H   H1129     1.0  0.84308  0.52540  0.37472  1.0000
  N   N37       1.0  0.83044  0.63831  0.42656  1.0000
  C   C640      1.0  0.04286  0.66782  0.46060  1.0000
  C   C641      1.0  0.78706  0.70329  0.41029  1.0000
  H   H1130     1.0  0.84511  0.55670  0.49981  1.0000
  C   C642      1.0  0.09172  0.86853  0.52868  1.0000
  H   H1131     1.0  0.69898  0.61241  0.53316  1.0000
  H   H1132     1.0  0.65293  0.87385  0.42808  1.0000
  H   H1133     1.0  0.85847  0.40378  0.35346  1.0000
  H   H1134     1.0  0.96241  0.61429  0.51004  1.0000
  H   H1135     1.0  0.01341  0.52936  0.52043  1.0000
  H   H1136     1.0  0.80953  0.59557  0.38136  1.0000
  C   C643      1.0  0.91926  0.46193  0.52377  1.0000
  H   H1137     1.0  0.85833  0.46399  0.54571  1.0000
  S   S142      1.0  0.89497  0.87066  0.39375  1.0000
  C   C644      1.0  0.80604  0.62838  0.37694  1.0000
  H   H1138     1.0  0.05782  0.51368  0.44047  1.0000
  S   S143      1.0  0.77956  0.42741  0.50160  1.0000
  H   H1139     1.0  0.79367  0.55789  0.47747  1.0000
  Fe  Fe77      1.0  0.72651  0.41699  0.55655  1.0000
  H   H1140     1.0  0.01521  0.45287  0.59007  1.0000
  H   H1141     1.0  0.82855  0.62538  0.52461  1.0000
  H   H1142     1.0  0.07251  0.76349  0.45294  1.0000
  H   H1143     1.0  0.78120  0.56469  0.58427  1.0000
  Fe  Fe78      1.0  0.90535  0.72573  0.54208  1.0000
  C   C645      1.0  0.90101  0.62673  0.47843  1.0000
  S   S144      1.0  0.92037  0.78481  0.55737  1.0000
  H   H1144     1.0  0.06166  0.40077  0.53026  1.0000
  Fe  Fe79      1.0  0.65613  0.67766  0.43135  1.0000
  S   S145      1.0  0.64426  0.67117  0.52850  1.0000
  H   H1145     1.0  0.77440  0.63229  0.38266  1.0000
  C   C646      1.0  0.71209  0.51310  0.54402  1.0000
  S   S146      1.0  0.09438  0.44238  0.41463  1.0000
  C   C647      1.0  0.04398  0.54036  0.51248  1.0000
  C   C648      1.0  0.88513  0.44501  0.56653  1.0000
  H   H1146     1.0  0.89065  0.60732  0.52283  1.0000
  C   C649      1.0  0.81421  0.70574  0.57921  1.0000
  H   H1147     1.0  0.63489  0.81624  0.39392  1.0000
  H   H1148     1.0  0.76992  0.68955  0.45109  1.0000
  C   C650      1.0  0.71315  0.55672  0.43849  1.0000
  C   C651      1.0  0.91979  0.44459  0.47078  1.0000
  C   C652      1.0  0.71582  0.51776  0.48211  1.0000
  C   C653      1.0  0.70605  0.54733  0.56218  1.0000
  H   H1149     1.0  0.82985  0.47231  0.39822  1.0000
  H   H1150     1.0  0.72006  0.49143  0.46751  1.0000
  C   C654      1.0  0.07491  0.47120  0.56060  1.0000
  H   H1151     1.0  0.63533  0.54616  0.41051  1.0000
  H   H1152     1.0  0.90384  0.65834  0.47993  1.0000
  H   H1153     1.0  0.86612  0.84699  0.51519  1.0000
  C   C655      1.0  0.02015  0.56614  0.40040  1.0000
  H   H1154     1.0  0.02350  0.66963  0.49500  1.0000
  H   H1155     1.0  0.01561  0.87470  0.40259  1.0000
  C   C656      1.0  0.82881  0.68328  0.41871  1.0000
  H   H1156     1.0  0.71537  0.56015  0.39056  1.0000
  C   C657      1.0  0.94207  0.61082  0.47278  1.0000
  H   H1157     1.0  0.71682  0.68531  0.57490  1.0000
  H   H1158     1.0  0.05037  0.82661  0.50899  1.0000
  H   H1159     1.0  0.02022  0.46484  0.50915  1.0000
  H   H1160     1.0  0.01568  0.59743  0.40263  1.0000
  H   H1161     1.0  0.94832  0.45488  0.54909  1.0000
  C   C658      1.0  0.05339  0.54397  0.44605  1.0000
  C   C659      1.0  0.78964  0.74894  0.40117  1.0000
  C   C660      1.0  0.82518  0.50219  0.36204  1.0000
  H   H1162     1.0  0.09751  0.88314  0.48129  1.0000
  S   S147      1.0  0.69799  0.63875  0.40132  1.0000
  C   C661      1.0  0.87266  0.62591  0.42378  1.0000
  C   C662      1.0  0.10577  0.64741  0.43383  1.0000
  H   H1163     1.0  0.84334  0.68887  0.45949  1.0000
  H   H1164     1.0  0.87735  0.41444  0.56418  1.0000
  H   H1165     1.0  0.91618  0.49568  0.50449  1.0000
  H   H1166     1.0  0.80023  0.51668  0.58218  1.0000
  H   H1167     1.0  0.78250  0.62392  0.48727  1.0000
  S   S148      1.0  0.96810  0.70526  0.54757  1.0000
  S   S149      1.0  0.69384  0.76934  0.55135  1.0000
  C   C663      1.0  0.81587  0.56853  0.50572  1.0000
  H   H1168     1.0  0.04319  0.57215  0.51385  1.0000
  H   H1169     1.0  0.67301  0.46727  0.37498  1.0000
  C   C664      1.0  0.77992  0.68320  0.58223  1.0000
  S   S150      1.0  0.90122  0.75273  0.44010  1.0000
  C   C665      1.0  0.03111  0.68444  0.39854  1.0000
  C   C666      1.0  0.04098  0.40515  0.56323  1.0000
  H   H1170     1.0  0.71382  0.86142  0.48893  1.0000
  C   C667      1.0  0.08005  0.64910  0.47827  1.0000
  H   H1171     1.0  0.08039  0.56197  0.43322  1.0000
  H   H1172     1.0  0.09780  0.75904  0.56552  1.0000
  H   H1173     1.0  0.66782  0.86128  0.55187  1.0000
  H   H1174     1.0  0.08942  0.63732  0.52625  1.0000
  H   H1175     1.0  0.83791  0.76551  0.56472  1.0000
  S   S151      1.0  0.86014  0.68105  0.58760  1.0000
  C   C668      1.0  0.96308  0.87849  0.58880  1.0000
  C   C669      1.0  0.09369  0.66312  0.37186  1.0000
  H   H1176     1.0  0.78184  0.65069  0.59057  1.0000
  H   H1177     1.0  0.02809  0.56867  0.35333  1.0000
  H   H1178     1.0  0.75954  0.76233  0.39720  1.0000
  C   C670      1.0  0.63228  0.87844  0.38922  1.0000
  H   H1179     1.0  0.77015  0.69987  0.36984  1.0000
  H   H1180     1.0  0.82797  0.38651  0.45169  1.0000
  C   C671      1.0  0.86443  0.87968  0.49621  1.0000
  C   C672      1.0  0.62176  0.84547  0.36987  1.0000
  H   H1181     1.0  0.80475  0.76475  0.35888  1.0000
  H   H1182     1.0  0.10818  0.77708  0.39538  1.0000
  H   H1183     1.0  0.10701  0.72590  0.44468  1.0000
  H   H1184     1.0  0.98216  0.73224  0.83967  1.0000
  H   H1185     1.0  0.09703  0.44630  0.79080  1.0000
  H   H1186     1.0  0.07515  0.49095  0.66139  1.0000
  H   H1187     1.0  0.73947  0.54695  0.71445  1.0000
  H   H1188     1.0  0.67913  0.60341  0.65532  1.0000
  S   S152      1.0  0.61497  0.83621  0.80168  1.0000
  C   C673      1.0  0.04973  0.54961  0.70262  1.0000
  H   H1189     1.0  0.05287  0.38844  0.61029  1.0000
  H   H1190     1.0  0.68144  0.52460  0.71311  1.0000
  H   H1191     1.0  0.00207  0.80387  0.81630  1.0000
  H   H1192     1.0  0.64636  0.53428  0.76216  1.0000
  S   S153      1.0  0.72613  0.81995  0.80184  1.0000
  H   H1193     1.0  0.86957  0.87808  0.75968  1.0000
  C   C674      1.0  0.72237  0.45276  0.76593  1.0000
  H   H1194     1.0  0.93384  0.49469  0.61063  1.0000
  C   C675      1.0  0.92553  0.53706  0.68534  1.0000
  C   C676      1.0  0.70334  0.45050  0.81886  1.0000
  C   C677      1.0  0.71568  0.63804  0.73432  1.0000
  S   S154      1.0  0.08764  0.83792  0.82463  1.0000
  H   H1195     1.0  0.68130  0.39647  0.67870  1.0000
  C   C678      1.0  0.85578  0.43400  0.66580  1.0000
  H   H1196     1.0  0.68799  0.71869  0.69422  1.0000
  C   C679      1.0  0.65266  0.38869  0.66034  1.0000
  C   C680      1.0  0.10404  0.86152  0.63565  1.0000
  C   C681      1.0  0.78548  0.57497  0.75164  1.0000
  H   H1197     1.0  0.10071  0.67971  0.65077  1.0000
  C   C682      1.0  0.90420  0.48743  0.62903  1.0000
  H   H1198     1.0  0.71753  0.65495  0.68478  1.0000
  H   H1199     1.0  0.61529  0.51389  0.67838  1.0000
  H   H1200     1.0  0.93202  0.79374  0.78538  1.0000
  H   H1201     1.0  0.70533  0.45189  0.72550  1.0000
  H   H1202     1.0  0.08008  0.69605  0.74214  1.0000
  S   S155      1.0  0.83690  0.46024  0.81512  1.0000
  C   C683      1.0  0.70663  0.56823  0.80929  1.0000
  H   H1203     1.0  0.65395  0.39427  0.61042  1.0000
  H   H1204     1.0  0.89551  0.67369  0.79833  1.0000
  H   H1205     1.0  0.90985  0.56299  0.65024  1.0000
  H   H1206     1.0  0.66639  0.84987  0.69005  1.0000
  C   C684      1.0  0.05795  0.55515  0.63612  1.0000
  C   C685      1.0  0.05802  0.51367  0.62326  1.0000
  H   H1207     1.0  0.90343  0.69264  0.69044  1.0000
  H   H1208     1.0  0.61756  0.81130  0.60772  1.0000
  C   C686      1.0  0.67406  0.58978  0.70502  1.0000
  H   H1209     1.0  0.95525  0.43084  0.66041  1.0000
  H   H1210     1.0  0.95851  0.64938  0.68301  1.0000
  C   C687      1.0  0.85110  0.79214  0.72730  1.0000
  C   C688      1.0  0.82331  0.80676  0.67018  1.0000
  H   H1211     1.0  0.64324  0.71066  0.73459  1.0000
  H   H1212     1.0  0.77745  0.46076  0.72256  1.0000
  H   H1213     1.0  0.86059  0.43518  0.71317  1.0000
  H   H1214     1.0  0.97284  0.42983  0.76936  1.0000
  N   N38       1.0  0.89309  0.44455  0.63177  1.0000
  H   H1215     1.0  0.07400  0.81295  0.69919  1.0000
  H   H1216     1.0  0.87429  0.50050  0.70235  1.0000
  H   H1217     1.0  0.82686  0.66215  0.77241  1.0000
  H   H1218     1.0  0.93434  0.62570  0.75273  1.0000
  H   H1219     1.0  0.65543  0.78576  0.66523  1.0000
  C   C689      1.0  0.68360  0.65853  0.76125  1.0000
  H   H1220     1.0  0.81107  0.53519  0.70694  1.0000
  C   C690      1.0  0.61984  0.41467  0.67262  1.0000
  C   C691      1.0  0.98071  0.75169  0.79125  1.0000
  H   H1221     1.0  0.62284  0.41145  0.72178  1.0000
  C   C692      1.0  0.63317  0.81096  0.65143  1.0000
  C   C693      1.0  0.65308  0.85157  0.64442  1.0000
  H   H1222     1.0  0.94908  0.71775  0.69480  1.0000
  S   S156      1.0  0.02618  0.77491  0.62738  1.0000
  C   C694      1.0  0.90487  0.49704  0.69018  1.0000
  H   H1223     1.0  0.79362  0.60426  0.75777  1.0000
  H   H1224     1.0  0.77805  0.40474  0.68467  1.0000
  C   C695      1.0  0.03547  0.43615  0.77465  1.0000
  C   C696      1.0  0.78734  0.67650  0.83258  1.0000
  S   S157      1.0  0.65224  0.44476  0.81944  1.0000
  C   C697      1.0  0.06732  0.45019  0.80275  1.0000
  H   H1225     1.0  0.95649  0.53551  0.67330  1.0000
  H   H1226     1.0  0.07519  0.53388  0.73321  1.0000
  C   C698      1.0  0.91905  0.69594  0.78185  1.0000
  H   H1227     1.0  0.61176  0.80516  0.68762  1.0000
  H   H1228     1.0  0.87213  0.81666  0.72649  1.0000
  H   H1229     1.0  0.91978  0.47227  0.72783  1.0000
  C   C699      1.0  0.83926  0.39109  0.67402  1.0000
  C   C700      1.0  0.05812  0.81645  0.60590  1.0000
  H   H1230     1.0  0.85063  0.72835  0.73517  1.0000
  H   H1231     1.0  0.02734  0.50259  0.62812  1.0000
  H   H1232     1.0  0.62495  0.44725  0.64700  1.0000
  H   H1233     1.0  0.63592  0.55619  0.62254  1.0000
  C   C701      1.0  0.88806  0.73497  0.84031  1.0000
  H   H1234     1.0  0.62968  0.87561  0.63137  1.0000
  C   C702      1.0  0.81808  0.56387  0.71677  1.0000
  C   C703      1.0  0.92632  0.41541  0.66505  1.0000
  H   H1235     1.0  0.65992  0.63758  0.78194  1.0000
  C   C704      1.0  0.66490  0.69621  0.71326  1.0000
  H   H1236     1.0  0.78534  0.55088  0.79691  1.0000
  H   H1237     1.0  0.74793  0.59759  0.66854  1.0000
  C   C705      1.0  0.95244  0.65198  0.72839  1.0000
  H   H1238     1.0  0.83992  0.81329  0.62818  1.0000
  S   S158      1.0  0.76637  0.71952  0.77718  1.0000
  N   N39       1.0  0.71065  0.59332  0.74324  1.0000
  H   H1239     1.0  0.00875  0.80685  0.73771  1.0000
  H   H1240     1.0  0.83201  0.45680  0.64334  1.0000
  H   H1241     1.0  0.91719  0.86411  0.79905  1.0000
  H   H1242     1.0  0.09297  0.64280  0.75978  1.0000
  C   C706      1.0  0.00936  0.78624  0.78556  1.0000
  H   H1243     1.0  0.08664  0.57045  0.62801  1.0000
  H   H1244     1.0  0.70400  0.83219  0.60762  1.0000
  S   S159      1.0  0.04284  0.41163  0.72055  1.0000
  H   H1245     1.0  0.98096  0.65080  0.75481  1.0000
  H   H1246     1.0  0.04552  0.57986  0.70882  1.0000
  H   H1247     1.0  0.88503  0.75731  0.68472  1.0000
  H   H1248     1.0  0.80758  0.83492  0.66961  1.0000
  C   C707      1.0  0.74485  0.57804  0.71678  1.0000
  H   H1249     1.0  0.64963  0.68780  0.67534  1.0000
  H   H1250     1.0  0.69728  0.66845  0.79885  1.0000
  H   H1251     1.0  0.87854  0.76561  0.84086  1.0000
  H   H1252     1.0  0.02288  0.53154  0.71621  1.0000
  H   H1253     1.0  0.73429  0.86303  0.67690  1.0000
  H   H1254     1.0  0.74439  0.64406  0.75400  1.0000
  H   H1255     1.0  0.64893  0.60774  0.71253  1.0000
  C   C708      1.0  0.62521  0.54558  0.66935  1.0000
  H   H1256     1.0  0.71348  0.53565  0.81549  1.0000
  C   C709      1.0  0.93848  0.76837  0.76718  1.0000
  C   C710      1.0  0.65833  0.54610  0.71620  1.0000
  H   H1257     1.0  0.92237  0.40497  0.71522  1.0000
  H   H1258     1.0  0.78644  0.88117  0.74477  1.0000
  C   C711      1.0  0.76322  0.45723  0.76459  1.0000
  H   H1259     1.0  0.92564  0.54267  0.73014  1.0000
  H   H1260     1.0  0.67558  0.56873  0.82149  1.0000
  H   H1261     1.0  0.80103  0.78325  0.67052  1.0000
  H   H1262     1.0  0.82193  0.58900  0.67348  1.0000
  C   C712      1.0  0.99720  0.44170  0.78977  1.0000
  C   C713      1.0  0.87323  0.75225  0.73050  1.0000
  H   H1263     1.0  0.84623  0.55914  0.74506  1.0000
  H   H1264     1.0  0.94031  0.78321  0.71689  1.0000
  N   N40       1.0  0.90569  0.73786  0.78041  1.0000
  C   C714      1.0  0.93048  0.69218  0.71972  1.0000
  H   H1265     1.0  0.83259  0.78715  0.76712  1.0000
  H   H1266     1.0  0.94418  0.68422  0.81550  1.0000
  Fe  Fe80      1.0  0.73877  0.75309  0.83293  1.0000
  C   C715      1.0  0.78549  0.45729  0.81721  1.0000
  C   C716      1.0  0.81835  0.65494  0.81905  1.0000
  H   H1267     1.0  0.03961  0.77323  0.79855  1.0000
  H   H1268     1.0  0.99177  0.73315  0.76398  1.0000
  H   H1269     1.0  0.00535  0.87088  0.66428  1.0000
  C   C717      1.0  0.07818  0.82878  0.65142  1.0000
  H   H1270     1.0  0.96651  0.84474  0.60701  1.0000
  H   H1271     1.0  0.92060  0.86990  0.69094  1.0000
  H   H1272     1.0  0.88371  0.51005  0.59631  1.0000
  H   H1273     1.0  0.70457  0.54381  0.61014  1.0000
  H   H1274     1.0  0.83261  0.55244  0.60238  1.0000
  C   C718      1.0  0.10478  0.67414  0.74592  1.0000
  H   H1275     1.0  0.75950  0.59460  0.84320  1.0000
  C   C719      1.0  0.99059  0.46064  0.83369  1.0000
  H   H1276     1.0  0.03474  0.57592  0.60661  1.0000
  H   H1277     1.0  0.93217  0.88496  0.59520  1.0000
  H   H1278     1.0  0.80837  0.38803  0.75576  1.0000
  S   S160      1.0  0.71627  0.46503  0.59959  1.0000
  H   H1279     1.0  0.09131  0.45140  0.60272  1.0000
  H   H1280     1.0  0.83121  0.38745  0.62909  1.0000
  C   C720      1.0  0.68438  0.85982  0.59549  1.0000
