data_image0
_chemical_formula_structural       C4FeH4CHSH6C3SCH2CSCHC2HCHSH5SH5C2HCH2SH5NH2CH3CH2FeCH2CHC2H2SC2H2C3H2CHC3SHCHNH2SCH2CHCFeC2H8CH8CH3SHCHCH2CHFeHCH3C2FeHSH2C2HSH2C2HC2HFeHCHSHCH2CH2CHCHCH9CH2CH3SHCHFeH3CHCH4CH2CHCH4CH6FeC2HCHCNC2HSC2SH2CH2SH2CH3CHC2H3CSH3SCNCH2C2HS2HC2H7CSCHCH3CH3CHC2H2FeCFeHCH3SHC2H3FeSNCHCHCHCHC2HSH2C3HCH5C2HCH2CHFeCH10NH3CHCSHCFeC2HNC3HCHCH2SCNH4FeH4CHCH5CH6C2SHNC2H3C3H7CHC2FeCH4C2H3SC2H2C4H4C2H2S2H2C3HCH2C2H3FeCH2SHCHC2H5CHCSHC2FeH2C4HCH3CHNCH6CH3CH11C2HFeHCH3CH2CHCS2CSCHFeCH4C2H6CHSHCHFeHCHC2H2C2H5CFeH3NCH2FeSNH2CHCH2C2HCSH3C2HCHSH4CHCSHC3H3C2HCH3CH3CHCH4CHCSH2CHC3HCHCH2CH4CH2FeCH2FeHCNH2CH4C3H4SCH3C2HSCH2SCH3CHSHC2H4C3HCSCHNFeSHFeCFeH3C2SH5CSC3H2CHFeCHC2HCH2SH5CHSHSCHCSH4CFeSH2SCSH3C2H5CHCHC2HCH5C2H2FeCHCH4SCSNHCHC2FeCH3CHCH2SH2C2HCH3C3HCH2C4H5CH3CHC5H6SCFeCH6SHCHCHC2FeHCH2C2NC2SHCH2C2HCSH7SC2H4C2SHCHSH3NHCH3CFeHCHC2SH3CHS2H2CFeH3CH8SH3CSCH2CSCH2SH2SHCHCHCHFeH2FeHCSHC2HCHC4H2NH8C2HCHCH4S2CHCH3CH2C2FeC2HC2SHSHC2H2CH2CH4FeH4CH2C2H2C2HCH4CH3NH2CH3CH4SH2FeCH3SH4CH2SH4SH2SHC3H4CH2CHCFeH2CHC3H2CNHCHSHSCH2CFeC2HCH2C4HCH2FeCNH2CH2CH3CH4CHCNCH2CH4C5H7C5H7SH2CH2CH3C2FeC2H4SC2HFeC3FeC2H2CH2C2H4C4H3SH2C2H3CFeSNH6CH3SH4S2CSHS2HCH5CSCHCHCH2FeC4H2NC2H3CH2C2HC2H5CH3C2H5C4HCH2CSCH2CHCHCHC2HCHSHCH3CH2C2H8CHSCHC3H5CH7CH3CH2C2H3CH3CH8CHCH2CH7C2H3N2H2C2HCH2CHC3H2CHCHCH3CSHCH2C2H2C4H3SCH2SHC2HSCH2SC2HCH3CHNH3FeH2CHCSH2CSH2NH4SH2FeHCH2CHC2HCHCH3CH2CH4C2H2C3HNHSCH2FeH5C2HC2H2CHCH2FeC2H3C3HCH5CH2CH2CH2SHC2S2CHCSFeHSHCHCH2SCHCH2C2H2FeH2NH2CH2CH2CHSCH2CH2CH2CHC2HSH2C2HC3H2FeHFeHCH2CH6S2HSCH3CH2CFeH2FeCNCH3CHCHCHCSH3C4H3CHC3H2CSFeHSH5CH6CHC2FeHC2HC2H3SH5CH3C2H2SHNFeCHCSC2HFeH4C2H5SH4CHC4H2FeH2SHSCH2CFeNH3CH3CH4C2H2C3H3SCH2CHCHCHSHCH2CFeHCH2CH4CH6FeHFeSFeC3HFe2C2SH2NCH2CFeH2CHSHCSCHC2NH2CH4CSCSHCSH3C2SHCH2SHCFeCHSH5SH2CHSCH3NHC2H
_chemical_formula_sum              "C648 Fe72 H1152 S144 N36"
_cell_length_a       28.7553
_cell_length_b       31.804
_cell_length_c       27.6464
_cell_angle_alpha    90.1791
_cell_angle_beta     99.5645
_cell_angle_gamma    69.0301

_space_group_name_H-M_alt    "P 1"
_space_group_IT_number       1

loop_
  _space_group_symop_operation_xyz
  'x, y, z'

loop_
  _atom_site_type_symbol
  _atom_site_label
  _atom_site_symmetry_multiplicity
  _atom_site_fract_x
  _atom_site_fract_y
  _atom_site_fract_z
  _atom_site_occupancy
  C   C1        1.0  0.55713  0.42824  0.65051  1.0000
  C   C2        1.0  0.70520  0.38803  0.67023  1.0000
  C   C3        1.0  0.64893  0.41596  0.67187  1.0000
  C   C4        1.0  0.43343  0.08952  0.60613  1.0000
  Fe  Fe1       1.0  0.70132  0.18351  0.65809  1.0000
  H   H1        1.0  0.58498  0.37651  0.57560  1.0000
  H   H2        1.0  0.64360  0.44081  0.57605  1.0000
  H   H3        1.0  0.51361  0.22225  0.62529  1.0000
  H   H4        1.0  0.65526  0.38448  0.50979  1.0000
  C   C5        1.0  0.50766  0.14048  0.59989  1.0000
  H   H5        1.0  0.56591  0.48640  0.68748  1.0000
  S   S1        1.0  0.46607  0.39781  0.73650  1.0000
  H   H6        1.0  0.58263  0.29938  0.72636  1.0000
  H   H7        1.0  0.36804  0.14438  0.72028  1.0000
  H   H8        1.0  0.42800  0.12745  0.53991  1.0000
  H   H9        1.0  0.35353  0.12123  0.57402  1.0000
  H   H10       1.0  0.36718  0.07857  0.62251  1.0000
  H   H11       1.0  0.30029  0.13922  0.65634  1.0000
  C   C6        1.0  0.38064  0.08779  0.59019  1.0000
  C   C7        1.0  0.48264  0.17234  0.73103  1.0000
  C   C8        1.0  0.61545  0.38794  0.59396  1.0000
  S   S2        1.0  0.57943  0.12049  0.72379  1.0000
  C   C9        1.0  0.44293  0.21339  0.73314  1.0000
  H   H12       1.0  0.73810  0.30178  0.57222  1.0000
  H   H13       1.0  0.73852  0.41048  0.73725  1.0000
  C   C10       1.0  0.28846  0.42050  0.61777  1.0000
  S   S3        1.0  0.38299  0.52743  0.73660  1.0000
  C   C11       1.0  0.71699  0.48373  0.56753  1.0000
  H   H14       1.0  0.56550  0.27054  0.67379  1.0000
  C   C12       1.0  0.67284  0.50929  0.53555  1.0000
  C   C13       1.0  0.53181  0.17151  0.73216  1.0000
  H   H15       1.0  0.40475  0.21413  0.73105  1.0000
  C   C14       1.0  0.33613  0.43135  0.61803  1.0000
  H   H16       1.0  0.46856  0.50141  0.61281  1.0000
  S   S4        1.0  0.69090  0.17165  0.73521  1.0000
  H   H17       1.0  0.27447  0.17510  0.70334  1.0000
  H   H18       1.0  0.65783  0.32785  0.67128  1.0000
  H   H19       1.0  0.31690  0.35398  0.59274  1.0000
  H   H20       1.0  0.71164  0.38507  0.63171  1.0000
  H   H21       1.0  0.46107  0.35487  0.57920  1.0000
  S   S5        1.0  0.71580  0.06540  0.70909  1.0000
  H   H22       1.0  0.62000  0.35755  0.71377  1.0000
  H   H23       1.0  0.45755  0.25832  0.58498  1.0000
  H   H24       1.0  0.56004  0.49254  0.62215  1.0000
  H   H25       1.0  0.28410  0.21691  0.61840  1.0000
  H   H26       1.0  0.49648  0.19173  0.54281  1.0000
  C   C15       1.0  0.30166  0.36917  0.62578  1.0000
  C   C16       1.0  0.58206  0.32903  0.65527  1.0000
  H   H27       1.0  0.35611  0.41420  0.58836  1.0000
  C   C17       1.0  0.47720  0.18710  0.57275  1.0000
  H   H28       1.0  0.58728  0.31644  0.61829  1.0000
  H   H29       1.0  0.65133  0.35926  0.59209  1.0000
  S   S6        1.0  0.40167  0.30486  0.73538  1.0000
  H   H30       1.0  0.26497  0.07002  0.61604  1.0000
  H   H31       1.0  0.29291  0.49948  0.69151  1.0000
  H   H32       1.0  0.64188  0.45014  0.65596  1.0000
  H   H33       1.0  0.42542  0.43558  0.55620  1.0000
  H   H34       1.0  0.61049  0.07710  0.62300  1.0000
  N   N1        1.0  0.50808  0.09968  0.57162  1.0000
  H   H35       1.0  0.52926  0.42320  0.62019  1.0000
  H   H36       1.0  0.71797  0.48406  0.60667  1.0000
  C   C18       1.0  0.44646  0.41320  0.53009  1.0000
  H   H37       1.0  0.33408  0.35613  0.65660  1.0000
  H   H38       1.0  0.32566  0.46828  0.61175  1.0000
  H   H39       1.0  0.47532  0.49660  0.67913  1.0000
  C   C19       1.0  0.34676  0.12275  0.72772  1.0000
  H   H40       1.0  0.54670  0.14008  0.61105  1.0000
  H   H41       1.0  0.47495  0.14148  0.72704  1.0000
  Fe  Fe2       1.0  0.72366  0.08523  0.63428  1.0000
  C   C20       1.0  0.54651  0.47955  0.65190  1.0000
  H   H42       1.0  0.64541  0.42017  0.71113  1.0000
  H   H43       1.0  0.54621  0.41966  0.68505  1.0000
  C   C21       1.0  0.29448  0.13970  0.69503  1.0000
  H   H44       1.0  0.67009  0.20140  0.50922  1.0000
  C   C22       1.0  0.45606  0.09673  0.56097  1.0000
  C   C23       1.0  0.27149  0.36907  0.72752  1.0000
  H   H45       1.0  0.43768  0.19083  0.55754  1.0000
  H   H46       1.0  0.34218  0.21449  0.65789  1.0000
  S   S7        1.0  0.69673  0.24711  0.61882  1.0000
  C   C24       1.0  0.45252  0.25351  0.73751  1.0000
  C   C25       1.0  0.61331  0.42808  0.56117  1.0000
  H   H47       1.0  0.54212  0.35175  0.65313  1.0000
  H   H48       1.0  0.42998  0.11727  0.63132  1.0000
  C   C26       1.0  0.49000  0.50666  0.64808  1.0000
  C   C27       1.0  0.28113  0.30392  0.64678  1.0000
  C   C28       1.0  0.74820  0.26371  0.63990  1.0000
  H   H49       1.0  0.45153  0.22544  0.63472  1.0000
  H   H50       1.0  0.71724  0.35384  0.68817  1.0000
  C   C29       1.0  0.47501  0.22547  0.60674  1.0000
  H   H51       1.0  0.26923  0.43942  0.64673  1.0000
  C   C30       1.0  0.44580  0.36615  0.53988  1.0000
  C   C31       1.0  0.54172  0.21133  0.73829  1.0000
  C   C32       1.0  0.30648  0.27413  0.60706  1.0000
  S   S8        1.0  0.70824  0.54571  0.68796  1.0000
  H   H52       1.0  0.50967  0.28319  0.74544  1.0000
  C   C33       1.0  0.54317  0.05810  0.60327  1.0000
  H   H53       1.0  0.63052  0.26466  0.69352  1.0000
  N   N2        1.0  0.61040  0.39711  0.64677  1.0000
  H   H54       1.0  0.49421  0.13952  0.63508  1.0000
  H   H55       1.0  0.36194  0.42038  0.65406  1.0000
  S   S9        1.0  0.65223  0.14612  0.62449  1.0000
  C   C34       1.0  0.61989  0.35279  0.67377  1.0000
  H   H56       1.0  0.38113  0.06211  0.56274  1.0000
  H   H57       1.0  0.34260  0.27863  0.60473  1.0000
  C   C35       1.0  0.59080  0.28844  0.68950  1.0000
  H   H58       1.0  0.40852  0.50790  0.53349  1.0000
  C   C36       1.0  0.74007  0.41046  0.69745  1.0000
  Fe  Fe3       1.0  0.64769  0.12898  0.70182  1.0000
  C   C37       1.0  0.50211  0.25232  0.74143  1.0000
  C   C38       1.0  0.76004  0.29154  0.60877  1.0000
  H   H59       1.0  0.45687  0.06843  0.53682  1.0000
  H   H60       1.0  0.57608  0.45568  0.55799  1.0000
  H   H61       1.0  0.34183  0.20340  0.59400  1.0000
  H   H62       1.0  0.54573  0.06474  0.51322  1.0000
  H   H63       1.0  0.72917  0.44566  0.68273  1.0000
  H   H64       1.0  0.30186  0.38237  0.72518  1.0000
  H   H65       1.0  0.48652  0.41056  0.53844  1.0000
  H   H66       1.0  0.28597  0.07469  0.69479  1.0000
  C   C39       1.0  0.31938  0.22416  0.62037  1.0000
  H   H67       1.0  0.31116  0.29509  0.67995  1.0000
  H   H68       1.0  0.28885  0.33301  0.74057  1.0000
  H   H69       1.0  0.48375  0.54315  0.64950  1.0000
  H   H70       1.0  0.55856  0.11415  0.52977  1.0000
  H   H71       1.0  0.57982  0.21062  0.74019  1.0000
  H   H72       1.0  0.46967  0.34153  0.51728  1.0000
  H   H73       1.0  0.26378  0.43304  0.58165  1.0000
  H   H74       1.0  0.28175  0.28248  0.57042  1.0000
  C   C40       1.0  0.52789  0.09993  0.52421  1.0000
  H   H75       1.0  0.40664  0.36620  0.53114  1.0000
  H   H76       1.0  0.36868  0.08746  0.72025  1.0000
  H   H77       1.0  0.26498  0.10715  0.74396  1.0000
  S   S10       1.0  0.61890  0.54238  0.55852  1.0000
  H   H78       1.0  0.28370  0.51465  0.75302  1.0000
  C   C41       1.0  0.26409  0.10963  0.70358  1.0000
  H   H79       1.0  0.69634  0.24503  0.51024  1.0000
  C   C42       1.0  0.62008  0.41426  0.50909  1.0000
  H   H80       1.0  0.45710  0.05707  0.62681  1.0000
  H   H81       1.0  0.53476  0.06045  0.64134  1.0000
  C   C43       1.0  0.26828  0.50202  0.71917  1.0000
  H   H82       1.0  0.26911  0.46791  0.72838  1.0000
  Fe  Fe4       1.0  0.75933  0.10877  0.73746  1.0000
  H   H83       1.0  0.33032  0.53939  0.57044  1.0000
  C   C44       1.0  0.30679  0.54310  0.53338  1.0000
  H   H84       1.0  0.27101  0.53881  0.53765  1.0000
  H   H85       1.0  0.33955  0.47411  0.51600  1.0000
  H   H86       1.0  0.48821  0.47359  0.50777  1.0000
  C   C45       1.0  0.75962  0.45675  0.54883  1.0000
  C   C46       1.0  0.61533  0.47227  0.78879  1.0000
  Fe  Fe5       1.0  0.43237  0.40275  0.86701  1.0000
  H   H87       1.0  0.56090  0.05828  0.91455  1.0000
  S   S11       1.0  0.37328  0.41984  0.79907  1.0000
  H   H88       1.0  0.64886  0.12639  0.94481  1.0000
  H   H89       1.0  0.59554  0.15093  0.83581  1.0000
  C   C47       1.0  0.55932  0.53124  0.87985  1.0000
  C   C48       1.0  0.61902  0.32689  0.97367  1.0000
  H   H90       1.0  0.34879  0.16699  0.90242  1.0000
  S   S12       1.0  0.47401  0.44420  0.84312  1.0000
  H   H91       1.0  0.49511  0.24569  0.92324  1.0000
  H   H92       1.0  0.69481  0.31840  0.92107  1.0000
  C   C49       1.0  0.32843  0.48392  0.99687  1.0000
  C   C50       1.0  0.60381  0.15865  0.87469  1.0000
  H   H93       1.0  0.28874  0.46951  0.84584  1.0000
  C   C51       1.0  0.59504  0.43852  0.79184  1.0000
  C   C52       1.0  0.64126  0.11616  0.90665  1.0000
  H   H94       1.0  0.73951  0.39599  0.98710  1.0000
  Fe  Fe6       1.0  0.42630  0.35898  0.76952  1.0000
  H   H95       1.0  0.56756  0.17241  0.88856  1.0000
  C   C53       1.0  0.68854  0.28625  0.92568  1.0000
  H   H96       1.0  0.50105  0.54259  0.78494  1.0000
  S   S13       1.0  0.48178  0.33920  0.83961  1.0000
  H   H97       1.0  0.49640  0.24838  0.98855  1.0000
  C   C54       1.0  0.67841  0.38537  0.82671  1.0000
  H   H98       1.0  0.73816  0.41202  0.83784  1.0000
  H   H99       1.0  0.65988  0.25311  0.97389  1.0000
  C   C55       1.0  0.36707  0.12182  0.99121  1.0000
  H   H100      1.0  0.35567  0.36419  0.87610  1.0000
  H   H101      1.0  0.50326  0.31639  0.95020  1.0000
  C   C56       1.0  0.69826  0.41943  0.82511  1.0000
  H   H102      1.0  0.34670  0.52032  0.82791  1.0000
  C   C57       1.0  0.61894  0.45827  0.92587  1.0000
  H   H103      1.0  0.32874  0.55242  0.99875  1.0000
  C   C58       1.0  0.35612  0.10387  0.94025  1.0000
  H   H104      1.0  0.63377  0.20579  0.91354  1.0000
  H   H105      1.0  0.66209  0.28272  0.89314  1.0000
  H   H106      1.0  0.35321  0.12050  0.86342  1.0000
  H   H107      1.0  0.75739  0.48749  0.94069  1.0000
  H   H108      1.0  0.48809  0.45889  0.97294  1.0000
  H   H109      1.0  0.34412  0.15850  0.98893  1.0000
  H   H110      1.0  0.55184  0.50275  0.94937  1.0000
  H   H111      1.0  0.40854  0.12186  0.90360  1.0000
  H   H112      1.0  0.53851  0.51143  0.85911  1.0000
  C   C59       1.0  0.36721  0.13006  0.90010  1.0000
  H   H113      1.0  0.66081  0.18481  0.85952  1.0000
  H   H114      1.0  0.55204  0.21354  0.96544  1.0000
  C   C60       1.0  0.62556  0.19606  0.87541  1.0000
  H   H115      1.0  0.48638  0.15801  0.93778  1.0000
  H   H116      1.0  0.38103  0.06830  0.93953  1.0000
  H   H117      1.0  0.55506  0.44597  0.77939  1.0000
  S   S14       1.0  0.60240  0.35317  0.81846  1.0000
  H   H118      1.0  0.31606  0.10670  0.93067  1.0000
  C   C61       1.0  0.62665  0.39522  0.81129  1.0000
  H   H119      1.0  0.55935  0.28110  0.92846  1.0000
  Fe  Fe7       1.0  0.41802  0.45737  0.77277  1.0000
  H   H120      1.0  0.48796  0.10394  0.95985  1.0000
  H   H121      1.0  0.40708  0.11944  0.99643  1.0000
  H   H122      1.0  0.59095  0.52850  0.86031  1.0000
  C   C62       1.0  0.27269  0.49672  0.00372  1.0000
  H   H123      1.0  0.26980  0.39051  0.80189  1.0000
  C   C63       1.0  0.50550  0.12983  0.96631  1.0000
  H   H124      1.0  0.59925  0.43871  0.90309  1.0000
  H   H125      1.0  0.33197  0.48247  0.95757  1.0000
  H   H126      1.0  0.60287  0.52357  0.95525  1.0000
  H   H127      1.0  0.67805  0.10720  0.89362  1.0000
  C   C64       1.0  0.34607  0.31232  0.91887  1.0000
  H   H128      1.0  0.70295  0.35163  0.84084  1.0000
  H   H129      1.0  0.34315  0.12426  0.76715  1.0000
  C   C65       1.0  0.39090  0.29837  0.00281  1.0000
  H   H130      1.0  0.49965  0.14332  0.00284  1.0000
  C   C66       1.0  0.53727  0.28535  0.95862  1.0000
  H   H131      1.0  0.63517  0.44011  0.96241  1.0000
  H   H132      1.0  0.74157  0.40962  0.92431  1.0000
  H   H133      1.0  0.29169  0.43620  0.92710  1.0000
  H   H134      1.0  0.60039  0.08172  0.82720  1.0000
  C   C67       1.0  0.39596  0.35701  0.95040  1.0000
  H   H135      1.0  0.69690  0.28425  0.00383  1.0000
  H   H136      1.0  0.72731  0.47767  0.98706  1.0000
  H   H137      1.0  0.65056  0.45984  0.90869  1.0000
  H   H138      1.0  0.52392  0.37556  0.96837  1.0000
  H   H139      1.0  0.59767  0.22621  0.85292  1.0000
  H   H140      1.0  0.63188  0.35597  0.97758  1.0000
  Fe  Fe8       1.0  0.51831  0.38180  0.80921  1.0000
  C   C68       1.0  0.66657  0.46298  0.80697  1.0000
  C   C69       1.0  0.57184  0.08847  0.91508  1.0000
  H   H141      1.0  0.54449  0.11152  0.88450  1.0000
  C   C70       1.0  0.66718  0.28492  0.97241  1.0000
  H   H142      1.0  0.32281  0.30369  0.88871  1.0000
  C   C71       1.0  0.35765  0.28933  0.96492  1.0000
  N   N3        1.0  0.62532  0.07570  0.90607  1.0000
  C   C72       1.0  0.51915  0.24573  0.95913  1.0000
  C   C73       1.0  0.56207  0.10909  0.96505  1.0000
  H   H143      1.0  0.57818  0.13566  0.97280  1.0000
  S   S15       1.0  0.69127  0.50578  0.81108  1.0000
  C   C74       1.0  0.58207  0.50591  0.93104  1.0000
  C   C75       1.0  0.40982  0.33238  0.99557  1.0000
  S   S16       1.0  0.41723  0.40136  0.94335  1.0000
  H   H144      1.0  0.59101  0.50590  0.77433  1.0000
  H   H145      1.0  0.29585  0.07977  0.99733  1.0000
  C   C76       1.0  0.36531  0.34611  0.91155  1.0000
  H   H146      1.0  0.72514  0.25779  0.92753  1.0000
  H   H147      1.0  0.57967  0.08234  0.99533  1.0000
  S   S17       1.0  0.32908  0.25112  0.97704  1.0000
  H   H148      1.0  0.59450  0.33341  0.93671  1.0000
  H   H149      1.0  0.26371  0.06286  0.83827  1.0000
  C   C77       1.0  0.62810  0.05690  0.85603  1.0000
  H   H150      1.0  0.66247  0.05782  0.98193  1.0000
  H   H151      1.0  0.73104  0.12998  0.00056  1.0000
  H   H152      1.0  0.58050  0.41828  0.00192  1.0000
  C   C78       1.0  0.76102  0.55043  0.99413  1.0000
  H   H153      1.0  0.30857  0.40423  0.00680  1.0000
  C   C79       1.0  0.62018  0.32285  0.06389  1.0000
  C   C80       1.0  0.61507  0.52086  0.12633  1.0000
  H   H154      1.0  0.41032  0.36280  0.18454  1.0000
  H   H155      1.0  0.30899  0.13260  0.20192  1.0000
  H   H156      1.0  0.30983  0.53731  0.19701  1.0000
  C   C81       1.0  0.35011  0.51879  0.01822  1.0000
  S   S18       1.0  0.59011  0.34163  0.25353  1.0000
  H   H157      1.0  0.65349  0.07653  0.17563  1.0000
  H   H158      1.0  0.51257  0.48425  0.02481  1.0000
  H   H159      1.0  0.38065  0.41990  0.15968  1.0000
  S   S19       1.0  0.68308  0.14813  0.10454  1.0000
  C   C82       1.0  0.60011  0.23209  0.19351  1.0000
  N   N4        1.0  0.31469  0.38920  0.21075  1.0000
  C   C83       1.0  0.56997  0.28695  0.00858  1.0000
  H   H160      1.0  0.45417  0.55232  0.21545  1.0000
  H   H161      1.0  0.29249  0.05972  0.23936  1.0000
  C   C84       1.0  0.65862  0.43830  0.08574  1.0000
  C   C85       1.0  0.50455  0.45381  0.01276  1.0000
  H   H162      1.0  0.30039  0.41328  0.13482  1.0000
  S   S20       1.0  0.51679  0.39192  0.15113  1.0000
  S   S21       1.0  0.49950  0.28134  0.18972  1.0000
  H   H163      1.0  0.36769  0.39256  0.07656  1.0000
  C   C86       1.0  0.63058  0.51989  0.08088  1.0000
  C   C87       1.0  0.32758  0.38489  0.15994  1.0000
  H   H164      1.0  0.43576  0.33916  0.02469  1.0000
  H   H165      1.0  0.41594  0.12884  0.17431  1.0000
  H   H166      1.0  0.34862  0.52128  0.05803  1.0000
  H   H167      1.0  0.55152  0.11754  0.21049  1.0000
  H   H168      1.0  0.40117  0.27973  0.03805  1.0000
  H   H169      1.0  0.51517  0.36588  0.02908  1.0000
  H   H170      1.0  0.62724  0.25889  0.09692  1.0000
  C   C88       1.0  0.30413  0.10051  0.02754  1.0000
  S   S22       1.0  0.40182  0.49931  0.16131  1.0000
  C   C89       1.0  0.61362  0.08019  0.17544  1.0000
  H   H171      1.0  0.35233  0.45067  0.01577  1.0000
  C   C90       1.0  0.58300  0.19158  0.10574  1.0000
  H   H172      1.0  0.67661  0.40635  0.07058  1.0000
  H   H173      1.0  0.39098  0.30159  0.19698  1.0000
  H   H174      1.0  0.34378  0.15970  0.07430  1.0000
  C   C91       1.0  0.35381  0.35297  0.24666  1.0000
  H   H175      1.0  0.28756  0.46210  0.20023  1.0000
  H   H176      1.0  0.32376  0.35381  0.14398  1.0000
  H   H177      1.0  0.27332  0.49790  0.04402  1.0000
  C   C92       1.0  0.26851  0.42143  0.01128  1.0000
  H   H178      1.0  0.35069  0.43753  0.23109  1.0000
  C   C93       1.0  0.37133  0.30425  0.22870  1.0000
  C   C94       1.0  0.42647  0.14516  0.14454  1.0000
  H   H179      1.0  0.73731  0.47288  0.14181  1.0000
  H   H180      1.0  0.35544  0.10998  0.11119  1.0000
  Fe  Fe9       1.0  0.58597  0.39518  0.19897  1.0000
  C   C95       1.0  0.38350  0.54139  0.20222  1.0000
  Fe  Fe10      1.0  0.74940  0.10685  0.16099  1.0000
  H   H181      1.0  0.33885  0.29351  0.21666  1.0000
  C   C96       1.0  0.31279  0.43475  0.22797  1.0000
  H   H182      1.0  0.46600  0.14343  0.15615  1.0000
  H   H183      1.0  0.57648  0.17682  0.07114  1.0000
  H   H184      1.0  0.59152  0.09407  0.13839  1.0000
  S   S23       1.0  0.46978  0.39643  0.25130  1.0000
  H   H185      1.0  0.44946  0.08582  0.10413  1.0000
  C   C97       1.0  0.26420  0.38399  0.20832  1.0000
  C   C98       1.0  0.36712  0.12319  0.07970  1.0000
  H   H186      1.0  0.71182  0.24273  0.15002  1.0000
  H   H187      1.0  0.67710  0.25328  0.06370  1.0000
  H   H188      1.0  0.43293  0.36967  0.10516  1.0000
  Fe  Fe11      1.0  0.51737  0.34294  0.20917  1.0000
  S   S24       1.0  0.65153  0.38863  0.16212  1.0000
  N   N5        1.0  0.35808  0.09856  0.03420  1.0000
  C   C99       1.0  0.64091  0.20064  0.17585  1.0000
  H   H189      1.0  0.54732  0.28778  0.03795  1.0000
  C   C100      1.0  0.59206  0.11237  0.21408  1.0000
  H   H190      1.0  0.60684  0.24818  0.22700  1.0000
  C   C101      1.0  0.55069  0.24221  0.16809  1.0000
  H   H191      1.0  0.59459  0.14507  0.20475  1.0000
  C   C102      1.0  0.54204  0.22137  0.12466  1.0000
  H   H192      1.0  0.69270  0.28089  0.25008  1.0000
  C   C103      1.0  0.62027  0.48059  0.15099  1.0000
  C   C104      1.0  0.64269  0.43931  0.13101  1.0000
  H   H193      1.0  0.66454  0.47790  0.02588  1.0000
  S   S25       1.0  0.54364  0.45262  0.24113  1.0000
  H   H194      1.0  0.26523  0.35172  0.19189  1.0000
  H   H195      1.0  0.43422  0.13808  0.06901  1.0000
  C   C105      1.0  0.42226  0.12109  0.09694  1.0000
  C   C106      1.0  0.63238  0.18117  0.13141  1.0000
  C   C107      1.0  0.39474  0.36963  0.10681  1.0000
  H   H196      1.0  0.29830  0.08519  0.06122  1.0000
  C   C108      1.0  0.68658  0.27737  0.13567  1.0000
  H   H197      1.0  0.56881  0.41051  0.06236  1.0000
  H   H198      1.0  0.50384  0.22942  0.10484  1.0000
  H   H199      1.0  0.39022  0.50848  0.01363  1.0000
  H   H200      1.0  0.66296  0.29324  0.16344  1.0000
  H   H201      1.0  0.60866  0.48140  0.18631  1.0000
  C   C109      1.0  0.26719  0.14396  0.19445  1.0000
  C   C110      1.0  0.65155  0.47869  0.06025  1.0000
  H   H202      1.0  0.67909  0.19321  0.19525  1.0000
  C   C111      1.0  0.38042  0.38533  0.15604  1.0000
  H   H203      1.0  0.71013  0.29724  0.12969  1.0000
  H   H204      1.0  0.64497  0.34289  0.06376  1.0000
  C   C112      1.0  0.65289  0.27521  0.08779  1.0000
  H   H205      1.0  0.40132  0.18128  0.13894  1.0000
  Fe  Fe12      1.0  0.47436  0.44559  0.19652  1.0000
  C   C113      1.0  0.55342  0.41241  0.02257  1.0000
  H   H206      1.0  0.39565  0.33467  0.10214  1.0000
  H   H207      1.0  0.73311  0.51646  0.06345  1.0000
  H   H208      1.0  0.59486  0.33828  0.09074  1.0000
  H   H209      1.0  0.26127  0.21296  0.17876  1.0000
  H   H210      1.0  0.30116  0.33273  0.04560  1.0000
  H   H211      1.0  0.60137  0.25371  0.01484  1.0000
  H   H212      1.0  0.48686  0.08922  0.24372  1.0000
  H   H213      1.0  0.26990  0.42666  0.05111  1.0000
  H   H214      1.0  0.27034  0.17508  0.03508  1.0000
  H   H215      1.0  0.59926  0.55265  0.14262  1.0000
  N   N6        1.0  0.58916  0.32553  0.01330  1.0000
  H   H216      1.0  0.47652  0.44966  0.03374  1.0000
  H   H217      1.0  0.26155  0.17981  0.12574  1.0000
  H   H218      1.0  0.75929  0.31218  0.03850  1.0000
  C   C114      1.0  0.26207  0.14793  0.01473  1.0000
  H   H219      1.0  0.42037  0.23610  0.25552  1.0000
  C   C115      1.0  0.54341  0.36888  0.00737  1.0000
  S   S26       1.0  0.27709  0.29501  0.28461  1.0000
  H   H220      1.0  0.75924  0.07026  0.41698  1.0000
  C   C116      1.0  0.34780  0.13184  0.45798  1.0000
  Fe  Fe13      1.0  0.30123  0.35041  0.45401  1.0000
  C   C117      1.0  0.74330  0.33484  0.46468  1.0000
  C   C118      1.0  0.71702  0.27026  0.28674  1.0000
  H   H221      1.0  0.68518  0.13646  0.37633  1.0000
  N   N7        1.0  0.60130  0.12141  0.30814  1.0000
  C   C119      1.0  0.36472  0.08693  0.44459  1.0000
  C   C120      1.0  0.75917  0.45686  0.49816  1.0000
  C   C121      1.0  0.70698  0.42786  0.32305  1.0000
  H   H222      1.0  0.52088  0.14556  0.27672  1.0000
  C   C122      1.0  0.42323  0.43072  0.47585  1.0000
  H   H223      1.0  0.53626  0.50645  0.42326  1.0000
  C   C123      1.0  0.38620  0.51126  0.49581  1.0000
  H   H224      1.0  0.72687  0.44950  0.34127  1.0000
  H   H225      1.0  0.74400  0.14892  0.47667  1.0000
  S   S27       1.0  0.56274  0.39318  0.37537  1.0000
  C   C124      1.0  0.46839  0.48261  0.46908  1.0000
  N   N8        1.0  0.41690  0.47883  0.46291  1.0000
  H   H226      1.0  0.50960  0.08421  0.33632  1.0000
  H   H227      1.0  0.54009  0.09775  0.42614  1.0000
  H   H228      1.0  0.44908  0.30996  0.37526  1.0000
  H   H229      1.0  0.70779  0.09281  0.33588  1.0000
  Fe  Fe14      1.0  0.30679  0.29498  0.36439  1.0000
  H   H230      1.0  0.40081  0.07254  0.43293  1.0000
  H   H231      1.0  0.70435  0.07983  0.44530  1.0000
  H   H232      1.0  0.47792  0.36624  0.34256  1.0000
  H   H233      1.0  0.48578  0.14809  0.40390  1.0000
  C   C125      1.0  0.75711  0.36418  0.38497  1.0000
  H   H234      1.0  0.44260  0.47913  0.30316  1.0000
  C   C126      1.0  0.68769  0.10179  0.36740  1.0000
  H   H235      1.0  0.44311  0.54632  0.42236  1.0000
  H   H236      1.0  0.39442  0.45004  0.34646  1.0000
  H   H237      1.0  0.37509  0.52810  0.40182  1.0000
  H   H238      1.0  0.58941  0.50076  0.34476  1.0000
  H   H239      1.0  0.45341  0.43730  0.38449  1.0000
  C   C127      1.0  0.39262  0.14800  0.31847  1.0000
  H   H240      1.0  0.61668  0.49954  0.29027  1.0000
  H   H241      1.0  0.39818  0.52784  0.32457  1.0000
  H   H242      1.0  0.34301  0.09263  0.33363  1.0000
  H   H243      1.0  0.64653  0.51284  0.34802  1.0000
  H   H244      1.0  0.46601  0.10348  0.46423  1.0000
  H   H245      1.0  0.39055  0.27029  0.30188  1.0000
  C   C128      1.0  0.72486  0.34296  0.40915  1.0000
  C   C129      1.0  0.60080  0.16858  0.30126  1.0000
  S   S28       1.0  0.28032  0.20503  0.49513  1.0000
  H   H246      1.0  0.71400  0.48242  0.42685  1.0000
  N   N9        1.0  0.74070  0.37865  0.33079  1.0000
  C   C130      1.0  0.48202  0.31531  0.39489  1.0000
  C   C131      1.0  0.54785  0.12428  0.30862  1.0000
  H   H247      1.0  0.56713  0.26419  0.30263  1.0000
  H   H248      1.0  0.72074  0.31844  0.48087  1.0000
  H   H249      1.0  0.38634  0.42583  0.46641  1.0000
  C   C132      1.0  0.62552  0.49178  0.33065  1.0000
  C   C133      1.0  0.55199  0.29623  0.46311  1.0000
  C   C134      1.0  0.71464  0.48198  0.46606  1.0000
  H   H250      1.0  0.49350  0.45766  0.44751  1.0000
  H   H251      1.0  0.37761  0.54672  0.48245  1.0000
  H   H252      1.0  0.32539  0.42308  0.30830  1.0000
  H   H253      1.0  0.69793  0.36540  0.26439  1.0000
  H   H254      1.0  0.57378  0.18614  0.26751  1.0000
  H   H255      1.0  0.69779  0.43853  0.28306  1.0000
  H   H256      1.0  0.41425  0.12630  0.29213  1.0000
  C   C135      1.0  0.48870  0.12432  0.47783  1.0000
  H   H257      1.0  0.28032  0.50090  0.32750  1.0000
  C   C136      1.0  0.63445  0.09839  0.35606  1.0000
  C   C137      1.0  0.49905  0.34657  0.37565  1.0000
  Fe  Fe15      1.0  0.31124  0.25174  0.46280  1.0000
  C   C138      1.0  0.69472  0.21444  0.49165  1.0000
  H   H258      1.0  0.61517  0.11092  0.38786  1.0000
  H   H259      1.0  0.60294  0.33212  0.46255  1.0000
  H   H260      1.0  0.46365  0.50502  0.35530  1.0000
  H   H261      1.0  0.68037  0.35178  0.31850  1.0000
  C   C139      1.0  0.54226  0.35332  0.40003  1.0000
  C   C140      1.0  0.29003  0.49445  0.29025  1.0000
  H   H262      1.0  0.63295  0.23747  0.33164  1.0000
  H   H263      1.0  0.53756  0.15229  0.44769  1.0000
  H   H264      1.0  0.58569  0.26449  0.36805  1.0000
  S   S29       1.0  0.48471  0.25313  0.46365  1.0000
  C   C141      1.0  0.26902  0.07249  0.26835  1.0000
  C   C142      1.0  0.51489  0.13087  0.43638  1.0000
  H   H265      1.0  0.46204  0.15778  0.48471  1.0000
  H   H266      1.0  0.60561  0.18484  0.37993  1.0000
  C   C143      1.0  0.33611  0.15729  0.30324  1.0000
  C   C144      1.0  0.65671  0.44164  0.34287  1.0000
  C   C145      1.0  0.30163  0.15027  0.47449  1.0000
  C   C146      1.0  0.74765  0.17818  0.49665  1.0000
  H   H267      1.0  0.34883  0.09244  0.27135  1.0000
  H   H268      1.0  0.44805  0.40697  0.45307  1.0000
  H   H269      1.0  0.26877  0.11025  0.36134  1.0000
  H   H270      1.0  0.37117  0.15168  0.45700  1.0000
  C   C147      1.0  0.56883  0.32798  0.44393  1.0000
  C   C148      1.0  0.72043  0.06980  0.41131  1.0000
  H   H271      1.0  0.64122  0.06176  0.35709  1.0000
  H   H272      1.0  0.67740  0.22384  0.45233  1.0000
  S   S30       1.0  0.36112  0.23185  0.40619  1.0000
  S   S31       1.0  0.34969  0.33816  0.39613  1.0000
  H   H273      1.0  0.66421  0.43637  0.38346  1.0000
  H   H274      1.0  0.54355  0.20928  0.34371  1.0000
  C   C149      1.0  0.33542  0.06046  0.44758  1.0000
  C   C150      1.0  0.28918  0.07904  0.46378  1.0000
  C   C151      1.0  0.58452  0.20029  0.34320  1.0000
  H   H275      1.0  0.53439  0.14297  0.34059  1.0000
  C   C152      1.0  0.41835  0.46563  0.36987  1.0000
  H   H276      1.0  0.40659  0.13123  0.35600  1.0000
  H   H277      1.0  0.30977  0.51358  0.46365  1.0000
  C   C153      1.0  0.59321  0.24424  0.33566  1.0000
  C   C154      1.0  0.67130  0.50766  0.48473  1.0000
  H   H278      1.0  0.58717  0.40637  0.49048  1.0000
  H   H279      1.0  0.68426  0.36457  0.40263  1.0000
  H   H280      1.0  0.72784  0.30983  0.39442  1.0000
  Fe  Fe16      1.0  0.40014  0.27599  0.44319  1.0000
  C   C155      1.0  0.50813  0.29036  0.43876  1.0000
  H   H281      1.0  0.74320  0.23490  0.28552  1.0000
  H   H282      1.0  0.31627  0.17759  0.33139  1.0000
  S   S32       1.0  0.35431  0.29127  0.50359  1.0000
  H   H283      1.0  0.63339  0.42227  0.32662  1.0000
  C   C156      1.0  0.38929  0.49101  0.41049  1.0000
  H   H284      1.0  0.32546  0.50057  0.28940  1.0000
  C   C157      1.0  0.71379  0.35071  0.30277  1.0000
  C   C158      1.0  0.74754  0.30063  0.29914  1.0000
  H   H285      1.0  0.44275  0.27917  0.28052  1.0000
  H   H286      1.0  0.66124  0.09254  0.26611  1.0000
  H   H287      1.0  0.63692  0.52686  0.45983  1.0000
  H   H288      1.0  0.69334  0.27147  0.31496  1.0000
  H   H289      1.0  0.63853  0.16745  0.29501  1.0000
  C   C159      1.0  0.53932  0.07889  0.31344  1.0000
  H   H290      1.0  0.35380  0.48366  0.40576  1.0000
  C   C160      1.0  0.43131  0.49651  0.33649  1.0000
  S   S33       1.0  0.26618  0.41960  0.47952  1.0000
  H   H291      1.0  0.73878  0.36735  0.48199  1.0000
  C   C161      1.0  0.46860  0.53023  0.45712  1.0000
  C   C162      1.0  0.33458  0.50774  0.50015  1.0000
  Fe  Fe17      1.0  0.54268  0.39839  0.29267  1.0000
  H   H292      1.0  0.39928  0.18030  0.31865  1.0000
  H   H293      1.0  0.33935  0.35161  0.28133  1.0000
  C   C163      1.0  0.32593  0.11257  0.29792  1.0000
  C   C164      1.0  0.29655  0.44590  0.27867  1.0000
  C   C165      1.0  0.62201  0.09431  0.26653  1.0000
  C   C166      1.0  0.52173  0.52817  0.45308  1.0000
  H   H294      1.0  0.62271  0.44234  0.48734  1.0000
  C   C167      1.0  0.52056  0.06239  0.26480  1.0000
  H   H295      1.0  0.54802  0.51461  0.48828  1.0000
  H   H296      1.0  0.75843  0.39347  0.40625  1.0000
  H   H297      1.0  0.57251  0.27668  0.49706  1.0000
  C   C168      1.0  0.27214  0.12394  0.47679  1.0000
  H   H298      1.0  0.32328  0.17805  0.26803  1.0000
  N   N10       1.0  0.27110  0.11737  0.28391  1.0000
  C   C169      1.0  0.40847  0.27051  0.26931  1.0000
  H   H299      1.0  0.45588  0.55270  0.48697  1.0000
  H   H300      1.0  0.75624  0.54675  0.47539  1.0000
  H   H301      1.0  0.62566  0.05866  0.27215  1.0000
  H   H302      1.0  0.38824  0.36134  0.25833  1.0000
  H   H303      1.0  0.26624  0.05879  0.46577  1.0000
  H   H304      1.0  0.41692  0.85570  0.60076  1.0000
  C   C170      1.0  0.27873  0.95800  0.54778  1.0000
  H   H305      1.0  0.63092  0.78178  0.74647  1.0000
  H   H306      1.0  0.55594  0.90438  0.73479  1.0000
  H   H307      1.0  0.37168  0.79801  0.71588  1.0000
  C   C171      1.0  0.27073  0.74393  0.53517  1.0000
  H   H308      1.0  0.43878  0.58587  0.71600  1.0000
  H   H309      1.0  0.30872  0.72438  0.52667  1.0000
  H   H310      1.0  0.71355  0.87114  0.66158  1.0000
  H   H311      1.0  0.70487  0.73736  0.62405  1.0000
  H   H312      1.0  0.48857  0.60841  0.72622  1.0000
  H   H313      1.0  0.70145  0.93062  0.73137  1.0000
  H   H314      1.0  0.54889  0.94496  0.60306  1.0000
  H   H315      1.0  0.49553  0.92564  0.69713  1.0000
  H   H316      1.0  0.34239  0.62346  0.72539  1.0000
  H   H317      1.0  0.61418  0.04077  0.57295  1.0000
  H   H318      1.0  0.35559  0.84863  0.64921  1.0000
  C   C172      1.0  0.53576  0.92194  0.69818  1.0000
  C   C173      1.0  0.54384  0.85147  0.66190  1.0000
  H   H319      1.0  0.70899  0.81576  0.66076  1.0000
  Fe  Fe18      1.0  0.63608  0.56734  0.63299  1.0000
  H   H320      1.0  0.56239  0.75986  0.67534  1.0000
  C   C174      1.0  0.50816  0.99784  0.73643  1.0000
  H   H321      1.0  0.46749  0.00243  0.72639  1.0000
  H   H322      1.0  0.27822  0.95513  0.50874  1.0000
  H   H323      1.0  0.46401  0.93476  0.51724  1.0000
  C   C175      1.0  0.73818  0.69690  0.72886  1.0000
  H   H324      1.0  0.56655  0.74590  0.61286  1.0000
  H   H325      1.0  0.65895  0.70700  0.71123  1.0000
  C   C176      1.0  0.34107  0.82791  0.62264  1.0000
  H   H326      1.0  0.71880  0.74014  0.54110  1.0000
  C   C177      1.0  0.68495  0.73285  0.54573  1.0000
  S   S34       1.0  0.50722  0.69887  0.68764  1.0000
  S   S35       1.0  0.64826  0.62663  0.75519  1.0000
  C   C178      1.0  0.53394  0.91776  0.60781  1.0000
  S   S36       1.0  0.62590  0.64036  0.63514  1.0000
  C   C179      1.0  0.63181  0.00745  0.64427  1.0000
  H   H327      1.0  0.52231  0.98885  0.66304  1.0000
  Fe  Fe19      1.0  0.38199  0.94644  0.74939  1.0000
  C   C180      1.0  0.35972  0.77380  0.69267  1.0000
  H   H328      1.0  0.28164  0.97008  0.68778  1.0000
  H   H329      1.0  0.34578  0.73894  0.60799  1.0000
  H   H330      1.0  0.50216  0.86023  0.65557  1.0000
  H   H331      1.0  0.41486  0.97967  0.53876  1.0000
  C   C181      1.0  0.40344  0.83629  0.57186  1.0000
  C   C182      1.0  0.28106  0.96636  0.64880  1.0000
  H   H332      1.0  0.41740  0.77842  0.61958  1.0000
  H   H333      1.0  0.62594  0.90587  0.68725  1.0000
  H   H334      1.0  0.46214  0.79311  0.69668  1.0000
  H   H335      1.0  0.29723  0.57769  0.51700  1.0000
  H   H336      1.0  0.62395  0.01489  0.68198  1.0000
  H   H337      1.0  0.64725  0.84960  0.51739  1.0000
  C   C183      1.0  0.56676  0.81277  0.62881  1.0000
  H   H338      1.0  0.47486  0.98523  0.53764  1.0000
  S   S37       1.0  0.58786  0.56967  0.68960  1.0000
  H   H339      1.0  0.65988  0.71023  0.60724  1.0000
  C   C184      1.0  0.32461  0.95119  0.57947  1.0000
  H   H340      1.0  0.62926  0.84749  0.59796  1.0000
  Fe  Fe20      1.0  0.65928  0.55419  0.74502  1.0000
  H   H341      1.0  0.58300  0.74262  0.53009  1.0000
  C   C185      1.0  0.69447  0.71389  0.59844  1.0000
  H   H342      1.0  0.34580  0.71183  0.70723  1.0000
  C   C186      1.0  0.50194  0.73034  0.73968  1.0000
  C   C187      1.0  0.47528  0.93908  0.59641  1.0000
  H   H343      1.0  0.54572  0.89513  0.57793  1.0000
  H   H344      1.0  0.53694  0.02755  0.58843  1.0000
  C   C188      1.0  0.45641  0.96106  0.54435  1.0000
  C   C189      1.0  0.27258  0.78279  0.56720  1.0000
  H   H345      1.0  0.55652  0.83665  0.70053  1.0000
  H   H346      1.0  0.30548  0.76011  0.73312  1.0000
  H   H347      1.0  0.37256  0.86012  0.54448  1.0000
  H   H348      1.0  0.63371  0.90206  0.60141  1.0000
  H   H349      1.0  0.65193  0.76508  0.54075  1.0000
  C   C190      1.0  0.61403  0.87986  0.66795  1.0000
  Fe  Fe21      1.0  0.58140  0.64171  0.69456  1.0000
  H   H350      1.0  0.60864  0.79905  0.63865  1.0000
  H   H351      1.0  0.29867  0.83812  0.74191  1.0000
  H   H352      1.0  0.65904  0.67822  0.52275  1.0000
  N   N11       1.0  0.32052  0.79856  0.64886  1.0000
  C   C191      1.0  0.47496  0.77678  0.73319  1.0000
  H   H353      1.0  0.30189  0.87845  0.69816  1.0000
  H   H354      1.0  0.55515  0.82414  0.58933  1.0000
  Fe  Fe22      1.0  0.69364  0.61907  0.69522  1.0000
  S   S38       1.0  0.38441  0.94500  0.66861  1.0000
  N   N12       1.0  0.55698  0.89315  0.65760  1.0000
  H   H355      1.0  0.29320  0.74392  0.63547  1.0000
  H   H356      1.0  0.62301  0.97737  0.63245  1.0000
  C   C192      1.0  0.45740  0.60408  0.74202  1.0000
  H   H357      1.0  0.72606  0.68068  0.60401  1.0000
  C   C193      1.0  0.54968  0.77347  0.63649  1.0000
  H   H358      1.0  0.37226  0.78437  0.56435  1.0000
  H   H359      1.0  0.50792  0.78428  0.62700  1.0000
  C   C194      1.0  0.68662  0.72102  0.72745  1.0000
  C   C195      1.0  0.53818  0.97000  0.69907  1.0000
  H   H360      1.0  0.67281  0.99970  0.64499  1.0000
  C   C196      1.0  0.34425  0.74333  0.72558  1.0000
  S   S39       1.0  0.75064  0.80537  0.51533  1.0000
  H   H361      1.0  0.31036  0.85307  0.59603  1.0000
  H   H362      1.0  0.57762  0.96846  0.70942  1.0000
  H   H363      1.0  0.39480  0.75119  0.68070  1.0000
  C   C197      1.0  0.69884  0.84818  0.63917  1.0000
  C   C198      1.0  0.32597  0.95490  0.63008  1.0000
  H   H364      1.0  0.45815  0.91326  0.59921  1.0000
  C   C199      1.0  0.64156  0.87011  0.62299  1.0000
  H   H365      1.0  0.35905  0.94307  0.56460  1.0000
  S   S40       1.0  0.75841  0.64334  0.70563  1.0000
  H   H366      1.0  0.63140  0.84997  0.69445  1.0000
  H   H367      1.0  0.71745  0.84125  0.60642  1.0000
  H   H368      1.0  0.46051  0.96558  0.62193  1.0000
  H   H369      1.0  0.51127  0.03168  0.73714  1.0000
  C   C200      1.0  0.38477  0.80292  0.59468  1.0000
  H   H370      1.0  0.43527  0.81782  0.55288  1.0000
  C   C201      1.0  0.30982  0.76405  0.61610  1.0000
  S   S41       1.0  0.73443  0.03515  0.57582  1.0000
  H   H371      1.0  0.42897  0.63772  0.74588  1.0000
  C   C202      1.0  0.74128  0.91238  0.74933  1.0000
  C   C203      1.0  0.60094  0.04824  0.60863  1.0000
  C   C204      1.0  0.27925  0.85879  0.70714  1.0000
  H   H372      1.0  0.72980  0.59070  0.51505  1.0000
  H   H373      1.0  0.49285  0.75369  0.50981  1.0000
  H   H374      1.0  0.28377  0.80596  0.54591  1.0000
  C   C205      1.0  0.27207  0.82858  0.66449  1.0000
  C   C206      1.0  0.67072  0.76357  0.74681  1.0000
  H   H375      1.0  0.75020  0.87559  0.74624  1.0000
  C   C207      1.0  0.67807  0.69869  0.50763  1.0000
  H   H376      1.0  0.30158  0.80286  0.90803  1.0000
  H   H377      1.0  0.62397  0.96028  0.79768  1.0000
  H   H378      1.0  0.52314  0.98100  0.77389  1.0000
  C   C208      1.0  0.59829  0.92816  0.92725  1.0000
  H   H379      1.0  0.64497  0.01491  0.95301  1.0000
  H   H380      1.0  0.66569  0.05146  0.84594  1.0000
  H   H381      1.0  0.41699  0.63648  0.85756  1.0000
  C   C209      1.0  0.30422  0.64691  0.78657  1.0000
  H   H382      1.0  0.29389  0.57914  0.87583  1.0000
  C   C210      1.0  0.33463  0.55556  0.81610  1.0000
  H   H383      1.0  0.41276  0.62395  0.96684  1.0000
  H   H384      1.0  0.36415  0.66143  0.92022  1.0000
  H   H385      1.0  0.63759  0.98727  0.87962  1.0000
  H   H386      1.0  0.31087  0.86781  0.94105  1.0000
  C   C211      1.0  0.58082  0.78310  0.94497  1.0000
  H   H387      1.0  0.52641  0.86258  0.98284  1.0000
  C   C212      1.0  0.74832  0.98638  0.98241  1.0000
  S   S42       1.0  0.68539  0.83545  0.79116  1.0000
  H   H388      1.0  0.46463  0.55640  0.88799  1.0000
  H   H389      1.0  0.44457  0.57604  0.80674  1.0000
  C   C213      1.0  0.33242  0.61366  0.75850  1.0000
  H   H390      1.0  0.36885  0.70762  0.79754  1.0000
  C   C214      1.0  0.46253  0.80200  0.77371  1.0000
  C   C215      1.0  0.71552  0.01782  0.93804  1.0000
  C   C216      1.0  0.51650  0.98865  0.91973  1.0000
  H   H391      1.0  0.53824  0.71784  0.95453  1.0000
  C   C217      1.0  0.26920  0.88490  0.93807  1.0000
  H   H392      1.0  0.75793  0.03526  0.80880  1.0000
  C   C218      1.0  0.38012  0.72995  0.77501  1.0000
  H   H393      1.0  0.29272  0.68219  0.77515  1.0000
  H   H394      1.0  0.73342  0.95955  0.98892  1.0000
  C   C219      1.0  0.48042  0.58216  0.90258  1.0000
  H   H395      1.0  0.62809  0.63114  0.96365  1.0000
  H   H396      1.0  0.50270  0.02635  0.98401  1.0000
  H   H397      1.0  0.27877  0.68197  0.98709  1.0000
  H   H398      1.0  0.55032  0.85214  0.91063  1.0000
  C   C220      1.0  0.63155  0.99213  0.80156  1.0000
  H   H399      1.0  0.29820  0.96043  0.94450  1.0000
  H   H400      1.0  0.44049  0.83760  0.76820  1.0000
  Fe  Fe23      1.0  0.73566  0.83670  0.86184  1.0000
  C   C221      1.0  0.57599  0.97310  0.99659  1.0000
  H   H401      1.0  0.67249  0.98425  0.80214  1.0000
  H   H402      1.0  0.62538  0.90150  0.91098  1.0000
  Fe  Fe24      1.0  0.41872  0.97952  0.84611  1.0000
  H   H403      1.0  0.54134  0.94541  0.86170  1.0000
  C   C222      1.0  0.52919  0.99882  0.96825  1.0000
  N   N13       1.0  0.57008  0.79139  0.99647  1.0000
  H   H404      1.0  0.66512  0.62804  0.91605  1.0000
  H   H405      1.0  0.54987  0.77574  0.92166  1.0000
  C   C223      1.0  0.66031  0.04154  0.94630  1.0000
  H   H406      1.0  0.60340  0.83887  0.84758  1.0000
  H   H407      1.0  0.49264  0.57311  0.94278  1.0000
  H   H408      1.0  0.48717  0.63635  0.82580  1.0000
  H   H409      1.0  0.55764  0.59922  0.94897  1.0000
  C   C224      1.0  0.60559  0.60115  0.89693  1.0000
  C   C225      1.0  0.51933  0.70950  0.78708  1.0000
  C   C226      1.0  0.50572  0.73466  0.82772  1.0000
  H   H410      1.0  0.71930  0.56076  0.99237  1.0000
  H   H411      1.0  0.37897  0.76033  0.79550  1.0000
  H   H412      1.0  0.71656  0.99714  0.90574  1.0000
  H   H413      1.0  0.52935  0.64361  0.90302  1.0000
  S   S43       1.0  0.72927  0.90280  0.89390  1.0000
  C   C227      1.0  0.61062  0.93789  0.97601  1.0000
  H   H414      1.0  0.63735  0.78113  0.87052  1.0000
  H   H415      1.0  0.54231  0.59592  0.81006  1.0000
  H   H416      1.0  0.61491  0.75222  0.94476  1.0000
  C   C228      1.0  0.47740  0.57748  0.79180  1.0000
  C   C229      1.0  0.47632  0.78075  0.82078  1.0000
  H   H417      1.0  0.41938  0.71155  0.76939  1.0000
  S   S44       1.0  0.38682  0.94091  0.89027  1.0000
  C   C230      1.0  0.62637  0.63466  0.92334  1.0000
  H   H418      1.0  0.48862  0.76021  0.97800  1.0000
  H   H419      1.0  0.36324  0.02011  0.97866  1.0000
  S   S45       1.0  0.72574  0.80598  0.93024  1.0000
  C   C231      1.0  0.52134  0.83129  0.99465  1.0000
  H   H420      1.0  0.38186  0.60132  0.91660  1.0000
  H   H421      1.0  0.44973  0.65613  0.90850  1.0000
  H   H422      1.0  0.49126  0.82868  0.96532  1.0000
  C   C232      1.0  0.75792  0.75787  0.76916  1.0000
  H   H423      1.0  0.63323  0.56675  0.90905  1.0000
  S   S46       1.0  0.45428  0.81187  0.86993  1.0000
  H   H424      1.0  0.60948  0.01593  0.76953  1.0000
  C   C233      1.0  0.34781  0.56791  0.77319  1.0000
  C   C234      1.0  0.55264  0.60702  0.90873  1.0000
  H   H425      1.0  0.57563  0.02027  0.84690  1.0000
  H   H426      1.0  0.28609  0.97348  0.00557  1.0000
  H   H427      1.0  0.57078  0.79980  0.84380  1.0000
  H   H428      1.0  0.67655  0.77222  0.99040  1.0000
  C   C235      1.0  0.43620  0.62857  0.89650  1.0000
  C   C236      1.0  0.39645  0.62865  0.92701  1.0000
  C   C237      1.0  0.70634  0.78196  0.76781  1.0000
  H   H429      1.0  0.73305  0.04263  0.93145  1.0000
  C   C238      1.0  0.58649  0.82272  0.91714  1.0000
  S   S47       1.0  0.45527  0.92088  0.80292  1.0000
  C   C239      1.0  0.50885  0.59937  0.82711  1.0000
  H   H430      1.0  0.61619  0.83337  0.93816  1.0000
  N   N14       1.0  0.52526  0.57989  0.87958  1.0000
  Fe  Fe25      1.0  0.41757  0.88440  0.84249  1.0000
  S   S48       1.0  0.34711  0.90569  0.78612  1.0000
  H   H431      1.0  0.51677  0.71832  0.86413  1.0000
  Fe  Fe26      1.0  0.31859  0.96531  0.83059  1.0000
  C   C240      1.0  0.75223  0.63306  0.99757  1.0000
  Fe  Fe27      1.0  0.72467  0.87026  0.96367  1.0000
  H   H432      1.0  0.54086  0.67372  0.79209  1.0000
  H   H433      1.0  0.29482  0.77774  0.82243  1.0000
  H   H434      1.0  0.75633  0.60477  0.81278  1.0000
  C   C241      1.0  0.55078  0.95296  0.89939  1.0000
  C   C242      1.0  0.60040  0.80956  0.86677  1.0000
  S   S49       1.0  0.45869  0.02235  0.88452  1.0000
  H   H435      1.0  0.33474  0.92118  0.99614  1.0000
  H   H436      1.0  0.60432  0.60658  0.85710  1.0000
  H   H437      1.0  0.71061  0.64467  0.99510  1.0000
  H   H438      1.0  0.60240  0.66976  0.90949  1.0000
  H   H439      1.0  0.49067  0.68348  0.99635  1.0000
  C   C243      1.0  0.28978  0.63457  0.82861  1.0000
  S   S50       1.0  0.34798  0.00838  0.78946  1.0000
  C   C244      1.0  0.30461  0.58882  0.84313  1.0000
  C   C245      1.0  0.61674  0.01293  0.84914  1.0000
  C   C246      1.0  0.29674  0.94583  0.98024  1.0000
  H   H440      1.0  0.74526  0.91932  0.78884  1.0000
  H   H441      1.0  0.33925  0.78527  0.98655  1.0000
  C   C247      1.0  0.52583  0.73267  0.98865  1.0000
  H   H442      1.0  0.60736  0.80213  0.06760  1.0000
  Fe  Fe28      1.0  0.64656  0.69112  0.16336  1.0000
  C   C248      1.0  0.34821  0.68701  0.16602  1.0000
  H   H443      1.0  0.74413  0.75611  0.06174  1.0000
  C   C249      1.0  0.41638  0.56233  0.22383  1.0000
  C   C250      1.0  0.31235  0.66674  0.13641  1.0000
  H   H444      1.0  0.38797  0.66604  0.16371  1.0000
  C   C251      1.0  0.72072  0.83134  0.21598  1.0000
  H   H445      1.0  0.55511  0.66668  0.02835  1.0000
  H   H446      1.0  0.43578  0.84598  0.07662  1.0000
  S   S51       1.0  0.68224  0.66114  0.09933  1.0000
  H   H447      1.0  0.58477  0.94604  0.17600  1.0000
  H   H448      1.0  0.52848  0.82500  0.07675  1.0000
  H   H449      1.0  0.60247  0.72062  0.02057  1.0000
  H   H450      1.0  0.34421  0.68787  0.20529  1.0000
  H   H451      1.0  0.65376  0.85990  0.13500  1.0000
  C   C252      1.0  0.33046  0.97824  0.12261  1.0000
  H   H452      1.0  0.43687  0.77440  0.17255  1.0000
  S   S52       1.0  0.59721  0.76406  0.15711  1.0000
  H   H453      1.0  0.58574  0.98098  0.03412  1.0000
  S   S53       1.0  0.32903  0.89456  0.10241  1.0000
  C   C253      1.0  0.41736  0.79961  0.19743  1.0000
  H   H454      1.0  0.69895  0.77435  0.10280  1.0000
  C   C254      1.0  0.35056  0.00775  0.14822  1.0000
  S   S54       1.0  0.66925  0.90696  0.01170  1.0000
  H   H455      1.0  0.74584  0.90553  0.21424  1.0000
  H   H456      1.0  0.71340  0.87853  0.11094  1.0000
  H   H457      1.0  0.29114  0.81760  0.23559  1.0000
  H   H458      1.0  0.75560  0.83021  0.24156  1.0000
  C   C255      1.0  0.40819  0.91546  0.15199  1.0000
  Fe  Fe29      1.0  0.65892  0.60358  0.11511  1.0000
  S   S55       1.0  0.73175  0.56637  0.16571  1.0000
  H   H459      1.0  0.55954  0.75377  0.05637  1.0000
  H   H460      1.0  0.42373  0.84741  0.01072  1.0000
  S   S56       1.0  0.62954  0.56945  0.05272  1.0000
  C   C256      1.0  0.71469  0.90510  0.18479  1.0000
  S   S57       1.0  0.42036  0.02604  0.21591  1.0000
  H   H461      1.0  0.28183  0.59656  0.25525  1.0000
  H   H462      1.0  0.53208  0.95629  0.09388  1.0000
  H   H463      1.0  0.34771  0.00888  0.03590  1.0000
  C   C257      1.0  0.57152  0.77913  0.21048  1.0000
  C   C258      1.0  0.39980  0.59714  0.25536  1.0000
  H   H464      1.0  0.46553  0.93192  0.20016  1.0000
  H   H465      1.0  0.32382  0.63139  0.15072  1.0000
  H   H466      1.0  0.37235  0.77026  0.07614  1.0000
  H   H467      1.0  0.53606  0.84926  0.18567  1.0000
  H   H468      1.0  0.37999  0.82167  0.17684  1.0000
  C   C259      1.0  0.39867  0.99076  0.17735  1.0000
  H   H469      1.0  0.32017  0.75141  0.05795  1.0000
  C   C260      1.0  0.66865  0.89866  0.25157  1.0000
  H   H470      1.0  0.40879  0.94095  0.00863  1.0000
  C   C261      1.0  0.69779  0.79977  0.23778  1.0000
  C   C262      1.0  0.33482  0.55410  0.21310  1.0000
  H   H471      1.0  0.49079  0.87851  0.04884  1.0000
  C   C263      1.0  0.60217  0.92672  0.14606  1.0000
  H   H472      1.0  0.53867  0.90420  0.12477  1.0000
  H   H473      1.0  0.74957  0.00535  0.01611  1.0000
  H   H474      1.0  0.43167  0.04718  0.03234  1.0000
  H   H475      1.0  0.31096  0.80320  0.08940  1.0000
  H   H476      1.0  0.44057  0.82030  0.20923  1.0000
  C   C264      1.0  0.73997  0.88615  0.14009  1.0000
  C   C265      1.0  0.54310  0.82442  0.21525  1.0000
  H   H477      1.0  0.63298  0.89396  0.25613  1.0000
  H   H478      1.0  0.61017  0.83659  0.01924  1.0000
  Fe  Fe30      1.0  0.75251  0.62641  0.15440  1.0000
  C   C266      1.0  0.45243  0.83179  0.04407  1.0000
  H   H479      1.0  0.62018  0.94612  0.12753  1.0000
  C   C267      1.0  0.35858  0.93186  0.12579  1.0000
  H   H480      1.0  0.38693  0.75602  0.22810  1.0000
  H   H481      1.0  0.63131  0.97193  0.23083  1.0000
  H   H482      1.0  0.34024  0.72186  0.15147  1.0000
  H   H483      1.0  0.67696  0.78725  0.20733  1.0000
  S   S58       1.0  0.61857  0.63546  0.17616  1.0000
  C   C268      1.0  0.61205  0.80187  0.02855  1.0000
  S   S59       1.0  0.71882  0.66163  0.21722  1.0000
  N   N15       1.0  0.68545  0.87971  0.20416  1.0000
  H   H484      1.0  0.67146  0.73367  0.03375  1.0000
  C   C269      1.0  0.33103  0.78157  0.06203  1.0000
  H   H485      1.0  0.70345  0.81453  0.05903  1.0000
  C   C270      1.0  0.55934  0.92223  0.10801  1.0000
  C   C271      1.0  0.64086  0.87984  0.16660  1.0000
  Fe  Fe31      1.0  0.69388  0.60319  0.22588  1.0000
  C   C272      1.0  0.42799  0.94486  0.17828  1.0000
  H   H486      1.0  0.69064  0.94105  0.17515  1.0000
  H   H487      1.0  0.43032  0.87984  0.15412  1.0000
  H   H488      1.0  0.32772  0.04321  0.14760  1.0000
  C   C273      1.0  0.31886  0.58781  0.24574  1.0000
  H   H489      1.0  0.50479  0.70879  0.05267  1.0000
  C   C274      1.0  0.39498  0.05018  0.04302  1.0000
  H   H490      1.0  0.57454  0.90371  0.07651  1.0000
  H   H491      1.0  0.61926  0.86211  0.18253  1.0000
  S   S60       1.0  0.75996  0.03394  0.16627  1.0000
  H   H492      1.0  0.61179  0.04652  0.18247  1.0000
  H   H493      1.0  0.40421  0.03967  0.08302  1.0000
  C   C275      1.0  0.66674  0.76921  0.02686  1.0000
  C   C276      1.0  0.42199  0.96735  0.02532  1.0000
  H   H494      1.0  0.72737  0.95107  0.10357  1.0000
  C   C277      1.0  0.31855  0.80810  0.01260  1.0000
  H   H495      1.0  0.46099  0.79499  0.04684  1.0000
  H   H496      1.0  0.73368  0.81531  0.18252  1.0000
  H   H497      1.0  0.31816  0.66676  0.09773  1.0000
  C   C278      1.0  0.70551  0.77938  0.06510  1.0000
  C   C279      1.0  0.50055  0.84193  0.04373  1.0000
  C   C280      1.0  0.37810  0.01275  0.01844  1.0000
  H   H498      1.0  0.33321  0.83593  0.01832  1.0000
  C   C281      1.0  0.51874  0.69567  0.01844  1.0000
  H   H499      1.0  0.43661  0.95766  0.06506  1.0000
  H   H500      1.0  0.29240  0.99125  0.10167  1.0000
  C   C282      1.0  0.56614  0.74946  0.01792  1.0000
  C   C283      1.0  0.41064  0.77575  0.24202  1.0000
  C   C284      1.0  0.57938  0.74688  0.24832  1.0000
  C   C285      1.0  0.75931  0.91944  0.11805  1.0000
  H   H501      1.0  0.60132  0.71181  0.24472  1.0000
  H   H502      1.0  0.26587  0.75071  0.22714  1.0000
  H   H503      1.0  0.55045  0.04993  0.24216  1.0000
  H   H504      1.0  0.26133  0.60721  0.13037  1.0000
  H   H505      1.0  0.45300  0.96887  0.00702  1.0000
  C   C286      1.0  0.41507  0.75664  0.35299  1.0000
  H   H506      1.0  0.69725  0.87966  0.28402  1.0000
  H   H507      1.0  0.72770  0.64569  0.31627  1.0000
  H   H508      1.0  0.60511  0.97085  0.30795  1.0000
  C   C287      1.0  0.52366  0.83767  0.25832  1.0000
  H   H509      1.0  0.59081  0.78389  0.45911  1.0000
  C   C288      1.0  0.70929  0.85894  0.49079  1.0000
  C   C289      1.0  0.75726  0.61873  0.33914  1.0000
  C   C290      1.0  0.66076  0.94892  0.25968  1.0000
  C   C291      1.0  0.66000  0.76864  0.38658  1.0000
  C   C292      1.0  0.38233  0.85141  0.38044  1.0000
  H   H510      1.0  0.68182  0.74458  0.36198  1.0000
  H   H511      1.0  0.38159  0.90147  0.43416  1.0000
  H   H512      1.0  0.72348  0.03451  0.40449  1.0000
  H   H513      1.0  0.51158  0.68888  0.35620  1.0000
  H   H514      1.0  0.64234  0.83944  0.40158  1.0000
  H   H515      1.0  0.43003  0.70216  0.30018  1.0000
  S   S61       1.0  0.49331  0.93176  0.42212  1.0000
  C   C293      1.0  0.55898  0.76010  0.29106  1.0000
  Fe  Fe32      1.0  0.41821  0.98276  0.38864  1.0000
  C   C294      1.0  0.64621  0.96200  0.30987  1.0000
  H   H516      1.0  0.35528  0.83925  0.25884  1.0000
  H   H517      1.0  0.65601  0.99155  0.32161  1.0000
  H   H518      1.0  0.48397  0.67999  0.40789  1.0000
  H   H519      1.0  0.64251  0.63273  0.46850  1.0000
  H   H520      1.0  0.56505  0.73522  0.32029  1.0000
  H   H521      1.0  0.75928  0.93608  0.37043  1.0000
  S   S62       1.0  0.41274  0.94666  0.31940  1.0000
  H   H522      1.0  0.44913  0.76602  0.35491  1.0000
  C   C295      1.0  0.59606  0.74768  0.45456  1.0000
  H   H523      1.0  0.66695  0.93436  0.33865  1.0000
  C   C296      1.0  0.34624  0.82992  0.35134  1.0000
  H   H524      1.0  0.29915  0.96447  0.32244  1.0000
  C   C297      1.0  0.48235  0.67768  0.36758  1.0000
  C   C298      1.0  0.64233  0.61026  0.39549  1.0000
  Fe  Fe33      1.0  0.52609  0.97471  0.38567  1.0000
  H   H525      1.0  0.31581  0.85820  0.32808  1.0000
  C   C299      1.0  0.72440  0.88805  0.46481  1.0000
  H   H526      1.0  0.26507  0.04411  0.34004  1.0000
  H   H527      1.0  0.34582  0.74146  0.28050  1.0000
  C   C300      1.0  0.65907  0.87217  0.49772  1.0000
  C   C301      1.0  0.28768  0.03487  0.31026  1.0000
  N   N16       1.0  0.37012  0.79134  0.32045  1.0000
  C   C302      1.0  0.67795  0.74853  0.44056  1.0000
  C   C303      1.0  0.35090  0.60996  0.26607  1.0000
  S   S63       1.0  0.32932  0.65399  0.30422  1.0000
  H   H528      1.0  0.32771  0.02840  0.32614  1.0000
  C   C304      1.0  0.28201  0.80372  0.26798  1.0000
  H   H529      1.0  0.61986  0.58896  0.39988  1.0000
  H   H530      1.0  0.72109  0.73763  0.28286  1.0000
  C   C305      1.0  0.75590  0.57525  0.33920  1.0000
  C   C306      1.0  0.66670  0.81378  0.38017  1.0000
  H   H531      1.0  0.40227  0.69278  0.35050  1.0000
  C   C307      1.0  0.56833  0.73522  0.49269  1.0000
  S   S64       1.0  0.75922  0.00423  0.30362  1.0000
  H   H532      1.0  0.69619  0.95496  0.25927  1.0000
  H   H533      1.0  0.58911  0.66639  0.42321  1.0000
  H   H534      1.0  0.65479  0.82618  0.34104  1.0000
  H   H535      1.0  0.58492  0.92374  0.48292  1.0000
  H   H536      1.0  0.41601  0.82426  0.29406  1.0000
  H   H537      1.0  0.50966  0.03340  0.27276  1.0000
  H   H538      1.0  0.67294  0.77754  0.46427  1.0000
  S   S65       1.0  0.35419  0.00440  0.43089  1.0000
  C   C308      1.0  0.35530  0.88591  0.41480  1.0000
  C   C309      1.0  0.62359  0.91383  0.47755  1.0000
  H   H539      1.0  0.63239  0.62396  0.35667  1.0000
  H   H540      1.0  0.44883  0.75248  0.25964  1.0000
  H   H541      1.0  0.34272  0.86947  0.44277  1.0000
  H   H542      1.0  0.68306  0.58860  0.40365  1.0000
  C   C310      1.0  0.63826  0.94273  0.45085  1.0000
  C   C311      1.0  0.51161  0.76279  0.48165  1.0000
  S   S66       1.0  0.52889  0.93786  0.31627  1.0000
  H   H543      1.0  0.40816  0.75642  0.39149  1.0000
  C   C312      1.0  0.65755  0.68141  0.42201  1.0000
  H   H544      1.0  0.41582  0.82602  0.40345  1.0000
  S   S67       1.0  0.70940  0.56351  0.29786  1.0000
  H   H545      1.0  0.61955  0.77480  0.37405  1.0000
  H   H546      1.0  0.69852  0.66147  0.42302  1.0000
  H   H547      1.0  0.49094  0.64183  0.35891  1.0000
  N   N17       1.0  0.65140  0.71906  0.45670  1.0000
  H   H548      1.0  0.70053  0.95309  0.42574  1.0000
  C   C313      1.0  0.53212  0.80572  0.29646  1.0000
  H   H549      1.0  0.71682  0.67422  0.50615  1.0000
  H   H550      1.0  0.32193  0.91317  0.39379  1.0000
  H   H551      1.0  0.70670  0.81039  0.39239  1.0000
  C   C314      1.0  0.68895  0.93040  0.44559  1.0000
  Fe  Fe34      1.0  0.49028  0.89873  0.35083  1.0000
  H   H552      1.0  0.39587  0.86912  0.35477  1.0000
  C   C315      1.0  0.28390  0.99087  0.29188  1.0000
  H   H553      1.0  0.32755  0.81866  0.37829  1.0000
  C   C316      1.0  0.63069  0.64838  0.43055  1.0000
  C   C317      1.0  0.42985  0.70653  0.33984  1.0000
  S   S68       1.0  0.45099  0.02836  0.35733  1.0000
  H   H554      1.0  0.42481  0.61401  0.27143  1.0000
  H   H555      1.0  0.49466  0.75555  0.44500  1.0000
  H   H556      1.0  0.31859  0.75865  0.33306  1.0000
  C   C318      1.0  0.38692  0.80993  0.27917  1.0000
  H   H557      1.0  0.50122  0.87253  0.26165  1.0000
  S   S69       1.0  0.59206  0.99239  0.42126  1.0000
  S   S70       1.0  0.51061  0.82363  0.35132  1.0000
  H   H558      1.0  0.64245  0.69510  0.38331  1.0000
  H   H559      1.0  0.71958  0.72972  0.44579  1.0000
  C   C319      1.0  0.33050  0.77149  0.30154  1.0000
  Fe  Fe35      1.0  0.45102  0.98881  0.29023  1.0000
  H   H560      1.0  0.57428  0.74746  0.41735  1.0000
  H   H561      1.0  0.30657  0.97930  0.26231  1.0000
  H   H562      1.0  0.57332  0.69906  0.49341  1.0000
  C   C320      1.0  0.73878  0.75901  0.26714  1.0000
  H   H563      1.0  0.52096  0.56259  0.44478  1.0000
  H   H564      1.0  0.50461  0.79949  0.48220  1.0000
  H   H565      1.0  0.67072  0.81697  0.26201  1.0000
  H   H566      1.0  0.57269  0.05130  0.33310  1.0000
  H   H567      1.0  0.76102  0.77004  0.29788  1.0000
  H   H568      1.0  0.14977  0.41011  0.60936  1.0000
  H   H569      1.0  0.91068  0.52959  0.51236  1.0000
  H   H570      1.0  0.15191  0.09716  0.65691  1.0000
  S   S71       1.0  0.87881  0.31208  0.69320  1.0000
  H   H571      1.0  0.79810  0.53215  0.56516  1.0000
  H   H572      1.0  0.22817  0.05519  0.75258  1.0000
  H   H573      1.0  0.10922  0.22175  0.74963  1.0000
  C   C321      1.0  0.77585  0.25153  0.68762  1.0000
  S   S72       1.0  0.89279  0.40454  0.60788  1.0000
  C   C322      1.0  0.05719  0.11262  0.60245  1.0000
  H   H574      1.0  0.93818  0.49044  0.56526  1.0000
  H   H575      1.0  0.00518  0.38018  0.72835  1.0000
  C   C323      1.0  0.07766  0.38071  0.65606  1.0000
  S   S73       1.0  0.01777  0.08046  0.67128  1.0000
  C   C324      1.0  0.19023  0.08787  0.67957  1.0000
  H   H576      1.0  0.76131  0.16734  0.53626  1.0000
  H   H577      1.0  0.96593  0.34683  0.72141  1.0000
  S   S74       1.0  0.01916  0.23163  0.52552  1.0000
  H   H578      1.0  0.19859  0.53923  0.59264  1.0000
  H   H579      1.0  0.98979  0.54199  0.51323  1.0000
  S   S75       1.0  0.21183  0.26658  0.74062  1.0000
  H   H580      1.0  0.20499  0.36420  0.68214  1.0000
  C   C325      1.0  0.16067  0.30986  0.70681  1.0000
  H   H581      1.0  0.86090  0.11221  0.61774  1.0000
  C   C326      1.0  0.99927  0.35100  0.74449  1.0000
  H   H582      1.0  0.93472  0.09303  0.73983  1.0000
  C   C327      1.0  0.99004  0.51310  0.53593  1.0000
  H   H583      1.0  0.18716  0.43816  0.58772  1.0000
  Fe  Fe36      1.0  0.97059  0.29726  0.55012  1.0000
  H   H584      1.0  0.03340  0.32029  0.74409  1.0000
  H   H585      1.0  0.21369  0.05746  0.66306  1.0000
  Fe  Fe37      1.0  0.97350  0.38197  0.59905  1.0000
  H   H586      1.0  0.15862  0.28484  0.54083  1.0000
  C   C328      1.0  0.86896  0.15898  0.56527  1.0000
  S   S76       1.0  0.88862  0.31385  0.55257  1.0000
  H   H587      1.0  0.83574  0.25878  0.74133  1.0000
  C   C329      1.0  0.81517  0.26739  0.70413  1.0000
  C   C330      1.0  0.02227  0.19015  0.56901  1.0000
  H   H588      1.0  0.19181  0.53518  0.72921  1.0000
  C   C331      1.0  0.23774  0.09987  0.59308  1.0000
  H   H589      1.0  0.18836  0.16229  0.74062  1.0000
  C   C332      1.0  0.10207  0.34273  0.63141  1.0000
  C   C333      1.0  0.14455  0.30768  0.65658  1.0000
  C   C334      1.0  0.86020  0.13340  0.51887  1.0000
  C   C335      1.0  0.18909  0.07200  0.73208  1.0000
  H   H590      1.0  0.19006  0.19601  0.69095  1.0000
  H   H591      1.0  0.12627  0.38919  0.52497  1.0000
  N   N18       1.0  0.21007  0.12549  0.67650  1.0000
  H   H592      1.0  0.89838  0.14436  0.64324  1.0000
  H   H593      1.0  0.96398  0.23505  0.60450  1.0000
  H   H594      1.0  0.76633  0.23059  0.71209  1.0000
  H   H595      1.0  0.79282  0.43616  0.57368  1.0000
  H   H596      1.0  0.05719  0.16169  0.75419  1.0000
  H   H597      1.0  0.17730  0.22595  0.52882  1.0000
  H   H598      1.0  0.80769  0.32922  0.60132  1.0000
  H   H599      1.0  0.07613  0.41276  0.72481  1.0000
  C   C336      1.0  0.21411  0.53343  0.69965  1.0000
  C   C337      1.0  0.20632  0.13790  0.62304  1.0000
  H   H600      1.0  0.83359  0.18583  0.57157  1.0000
  C   C338      1.0  0.17940  0.16699  0.69976  1.0000
  H   H601      1.0  0.08181  0.13733  0.54258  1.0000
  C   C339      1.0  0.09538  0.38368  0.70560  1.0000
  H   H602      1.0  0.87920  0.50141  0.60812  1.0000
  H   H603      1.0  0.83806  0.11263  0.52683  1.0000
  H   H604      1.0  0.01841  0.50751  0.57019  1.0000
  H   H605      1.0  0.82039  0.49524  0.71693  1.0000
  S   S77       1.0  0.02127  0.42175  0.62709  1.0000
  S   S78       1.0  0.77305  0.12370  0.66298  1.0000
  C   C340      1.0  0.84210  0.48979  0.68635  1.0000
  H   H606      1.0  0.92425  0.09825  0.60575  1.0000
  C   C341      1.0  0.88933  0.12639  0.61075  1.0000
  H   H607      1.0  0.10681  0.15669  0.69426  1.0000
  H   H608      1.0  0.10009  0.25490  0.69378  1.0000
  H   H609      1.0  0.23745  0.35993  0.55481  1.0000
  C   C342      1.0  0.13598  0.34760  0.73118  1.0000
  H   H610      1.0  0.10961  0.44923  0.52824  1.0000
  H   H611      1.0  0.16619  0.15011  0.60412  1.0000
  C   C343      1.0  0.79994  0.30659  0.62498  1.0000
  C   C344      1.0  0.14523  0.25889  0.52307  1.0000
  Fe  Fe38      1.0  0.87882  0.38460  0.53068  1.0000
  C   C345      1.0  0.12101  0.18296  0.68422  1.0000
  C   C346      1.0  0.84099  0.53497  0.66639  1.0000
  H   H612      1.0  0.22769  0.05678  0.53439  1.0000
  C   C347      1.0  0.93731  0.52198  0.54779  1.0000
  C   C348      1.0  0.09445  0.22550  0.70952  1.0000
  S   S79       1.0  0.95936  0.36634  0.52041  1.0000
  H   H613      1.0  0.05317  0.23237  0.70362  1.0000
  S   S80       1.0  0.99065  0.31165  0.62833  1.0000
  H   H614      1.0  0.20165  0.33734  0.58591  1.0000
  C   C349      1.0  0.14176  0.41646  0.53111  1.0000
  C   C350      1.0  0.21957  0.36330  0.58817  1.0000
  H   H615      1.0  0.89745  0.17443  0.56223  1.0000
  H   H616      1.0  0.19859  0.51770  0.66858  1.0000
  C   C351      1.0  0.99044  0.20116  0.60407  1.0000
  H   H617      1.0  0.17917  0.11214  0.52769  1.0000
  H   H618      1.0  0.87579  0.17114  0.71878  1.0000
  C   C352      1.0  0.20388  0.08397  0.55457  1.0000
  H   H619      1.0  0.16900  0.10057  0.75283  1.0000
  H   H620      1.0  0.77969  0.39153  0.69290  1.0000
  H   H621      1.0  0.10912  0.19105  0.64409  1.0000
  H   H622      1.0  0.14625  0.53470  0.51487  1.0000
  Fe  Fe39      1.0  0.90771  0.33258  0.62968  1.0000
  H   H623      1.0  0.88152  0.46676  0.70056  1.0000
  H   H624      1.0  0.96750  0.47944  0.73744  1.0000
  H   H625      1.0  0.16350  0.27823  0.63779  1.0000
  H   H626      1.0  0.91889  0.51489  0.65613  1.0000
  C   C353      1.0  0.23558  0.37633  0.67720  1.0000
  H   H627      1.0  0.11456  0.25593  0.54095  1.0000
  H   H628      1.0  0.82412  0.47373  0.65703  1.0000
  C   C354      1.0  0.99137  0.16790  0.63767  1.0000
  C   C355      1.0  0.05642  0.14595  0.56890  1.0000
  H   H629      1.0  0.08775  0.34017  0.59321  1.0000
  H   H630      1.0  0.08373  0.07851  0.60235  1.0000
  C   C356      1.0  0.02345  0.12329  0.63571  1.0000
  C   C357      1.0  0.17448  0.40927  0.58213  1.0000
  H   H631      1.0  0.17975  0.07042  0.57223  1.0000
  C   C358      1.0  0.82807  0.29410  0.67250  1.0000
  H   H632      1.0  0.21722  0.16779  0.61893  1.0000
  H   H633      1.0  0.96658  0.13239  0.74650  1.0000
  H   H634      1.0  0.96558  0.17649  0.66365  1.0000
  H   H635      1.0  0.21643  0.41327  0.66997  1.0000
  C   C359      1.0  0.88072  0.52876  0.63249  1.0000
  H   H636      1.0  0.25132  0.29216  0.65594  1.0000
  H   H637      1.0  0.00186  0.48216  0.51537  1.0000
  H   H638      1.0  0.89797  0.10850  0.51511  1.0000
  N   N19       1.0  0.25932  0.35427  0.63434  1.0000
  H   H639      1.0  0.13337  0.55237  0.59948  1.0000
  H   H640      1.0  0.83941  0.52603  0.52184  1.0000
  C   C360      1.0  0.80974  0.55093  0.53870  1.0000
  H   H641      1.0  0.26104  0.11314  0.57387  1.0000
  H   H642      1.0  0.22144  0.42943  0.75583  1.0000
  H   H643      1.0  0.84909  0.55376  0.69855  1.0000
  C   C361      1.0  0.86233  0.15661  0.89524  1.0000
  H   H644      1.0  0.07724  0.33803  0.98348  1.0000
  H   H645      1.0  0.14855  0.34894  0.76981  1.0000
  H   H646      1.0  0.25588  0.52329  0.90876  1.0000
  H   H647      1.0  0.95756  0.39254  0.79449  1.0000
  S   S81       1.0  0.12642  0.28624  0.84049  1.0000
  H   H648      1.0  0.92948  0.43515  0.98158  1.0000
  H   H649      1.0  0.96362  0.06394  0.90720  1.0000
  Fe  Fe40      1.0  0.25528  0.26528  0.92544  1.0000
  C   C362      1.0  0.11466  0.43231  0.83714  1.0000
  H   H650      1.0  0.02997  0.09430  0.90047  1.0000
  H   H651      1.0  0.76943  0.54674  0.83116  1.0000
  H   H652      1.0  0.92546  0.30001  0.91488  1.0000
  S   S82       1.0  0.24343  0.21520  0.87266  1.0000
  H   H653      1.0  0.22890  0.43764  0.91303  1.0000
  H   H654      1.0  0.85396  0.36137  0.84072  1.0000
  H   H655      1.0  0.86218  0.14995  0.77265  1.0000
  H   H656      1.0  0.12423  0.09550  0.93333  1.0000
  C   C363      1.0  0.20918  0.11385  0.87230  1.0000
  H   H657      1.0  0.89921  0.52607  0.77777  1.0000
  H   H658      1.0  0.93025  0.47748  0.93877  1.0000
  S   S83       1.0  0.82233  0.08864  0.80245  1.0000
  H   H659      1.0  0.11278  0.13892  0.80187  1.0000
  H   H660      1.0  0.93532  0.21966  0.92846  1.0000
  H   H661      1.0  0.85692  0.12384  0.89763  1.0000
  H   H662      1.0  0.93403  0.20788  0.86436  1.0000
  S   S84       1.0  0.18422  0.27524  0.95487  1.0000
  H   H663      1.0  0.95569  0.13064  0.84071  1.0000
  H   H664      1.0  0.85270  0.53232  0.96272  1.0000
  S   S85       1.0  0.13501  0.17883  0.91193  1.0000
  H   H665      1.0  0.98825  0.30459  0.97250  1.0000
  C   C364      1.0  0.08154  0.48508  0.89717  1.0000
  C   C365      1.0  0.87453  0.38362  0.83325  1.0000
  C   C366      1.0  0.95863  0.20953  0.89923  1.0000
  H   H666      1.0  0.94764  0.31463  0.79298  1.0000
  H   H667      1.0  0.17555  0.52364  0.96672  1.0000
  H   H668      1.0  0.13506  0.45940  0.77613  1.0000
  H   H669      1.0  0.98240  0.53814  0.98475  1.0000
  C   C367      1.0  0.86145  0.49575  0.96987  1.0000
  H   H670      1.0  0.81016  0.12006  0.96878  1.0000
  H   H671      1.0  0.22549  0.46892  0.82669  1.0000
  C   C368      1.0  0.98427  0.24308  0.89247  1.0000
  H   H672      1.0  0.04723  0.08925  0.76872  1.0000
  C   C369      1.0  0.97792  0.32090  0.81937  1.0000
  Fe  Fe41      1.0  0.16925  0.22975  0.89727  1.0000
  H   H673      1.0  0.98231  0.36259  0.96754  1.0000
  H   H674      1.0  0.84223  0.48365  0.93783  1.0000
  C   C370      1.0  0.24258  0.38676  0.99719  1.0000
  H   H675      1.0  0.80387  0.24302  0.99934  1.0000
  C   C371      1.0  0.25190  0.45761  0.92933  1.0000
  C   C372      1.0  0.04260  0.14017  0.82236  1.0000
  C   C373      1.0  0.92360  0.37308  0.87228  1.0000
  H   H676      1.0  0.91449  0.29037  0.85171  1.0000
  H   H677      1.0  0.02363  0.36398  0.81860  1.0000
  C   C374      1.0  0.23597  0.50049  0.89488  1.0000
  N   N20       1.0  0.24586  0.46610  0.98200  1.0000
  H   H678      1.0  0.89148  0.12568  0.98550  1.0000
  C   C375      1.0  0.24779  0.48882  0.84385  1.0000
  H   H679      1.0  0.00545  0.23279  0.86175  1.0000
  S   S86       1.0  0.21869  0.32441  0.87033  1.0000
  H   H680      1.0  0.02424  0.35183  0.89715  1.0000
  S   S87       1.0  0.09226  0.39739  0.91562  1.0000
  C   C376      1.0  0.15437  0.08851  0.91220  1.0000
  H   H681      1.0  0.93661  0.08464  0.82666  1.0000
  H   H682      1.0  0.84538  0.21888  0.93149  1.0000
  C   C377      1.0  0.01116  0.32437  0.90586  1.0000
  Fe  Fe42      1.0  0.14655  0.33113  0.89624  1.0000
  C   C378      1.0  0.16931  0.12344  0.89852  1.0000
  C   C379      1.0  0.94449  0.29163  0.88226  1.0000
  H   H683      1.0  0.93884  0.40048  0.86976  1.0000
  C   C380      1.0  0.12064  0.46653  0.81016  1.0000
  H   H684      1.0  0.16777  0.47140  0.96133  1.0000
  H   H685      1.0  0.98779  0.17563  0.91047  1.0000
  C   C381      1.0  0.91853  0.47193  0.97377  1.0000
  C   C382      1.0  0.79781  0.42287  0.97880  1.0000
  C   C383      1.0  0.97747  0.49132  0.77413  1.0000
  C   C384      1.0  0.00583  0.32772  0.96074  1.0000
  H   H686      1.0  0.01194  0.24033  0.92663  1.0000
  C   C385      1.0  0.07195  0.15984  0.79416  1.0000
  H   H687      1.0  0.91277  0.17129  0.99091  1.0000
  H   H688      1.0  0.09094  0.07058  0.82324  1.0000
  Fe  Fe43      1.0  0.20194  0.27449  0.81935  1.0000
  C   C386      1.0  0.19030  0.48870  0.98396  1.0000
  N   N21       1.0  0.96423  0.32757  0.87002  1.0000
  H   H689      1.0  0.78923  0.35993  0.95726  1.0000
  H   H690      1.0  0.12450  0.39888  0.82418  1.0000
  C   C387      1.0  0.23337  0.06985  0.85898  1.0000
  H   H691      1.0  0.21567  0.37757  0.77460  1.0000
  H   H692      1.0  0.82575  0.43902  0.86949  1.0000
  C   C388      1.0  0.87797  0.16286  0.98772  1.0000
  H   H693      1.0  0.91163  0.37615  0.90882  1.0000
  H   H694      1.0  0.08144  0.28014  0.99057  1.0000
  H   H695      1.0  0.25664  0.15733  0.97494  1.0000
  C   C389      1.0  0.24270  0.39332  0.76727  1.0000
  H   H696      1.0  0.22024  0.14051  0.86077  1.0000
  H   H697      1.0  0.80489  0.43914  0.80449  1.0000
  H   H698      1.0  0.84051  0.17478  0.85966  1.0000
  H   H699      1.0  0.80403  0.18891  0.93695  1.0000
  C   C390      1.0  0.09571  0.44139  0.88077  1.0000
  H   H700      1.0  0.86134  0.53185  0.84823  1.0000
  C   C391      1.0  0.10903  0.50962  0.82778  1.0000
  N   N22       1.0  0.01648  0.07047  0.82808  1.0000
  C   C392      1.0  0.96184  0.10171  0.81701  1.0000
  H   H701      1.0  0.82554  0.41843  0.95389  1.0000
  H   H702      1.0  0.05564  0.14152  0.86214  1.0000
  C   C393      1.0  0.83874  0.43250  0.83369  1.0000
  H   H703      1.0  0.04315  0.29264  0.90202  1.0000
  H   H704      1.0  0.90298  0.14992  0.89640  1.0000
  H   H705      1.0  0.88264  0.37850  0.79541  1.0000
  H   H706      1.0  0.02555  0.06271  0.98214  1.0000
  C   C394      1.0  0.76489  0.39552  0.96068  1.0000
  C   C395      1.0  0.03316  0.06209  0.88299  1.0000
  C   C396      1.0  0.93433  0.53382  0.78372  1.0000
  C   C397      1.0  0.05755  0.31598  0.99358  1.0000
  C   C398      1.0  0.94087  0.11996  0.76262  1.0000
  H   H707      1.0  0.06627  0.49215  0.93071  1.0000
  H   H708      1.0  0.85764  0.45612  0.82623  1.0000
  H   H709      1.0  0.89622  0.18817  0.77823  1.0000
  H   H710      1.0  0.19470  0.51897  0.89093  1.0000
  H   H711      1.0  0.01190  0.28975  0.81974  1.0000
  H   H712      1.0  0.00262  0.16305  0.81293  1.0000
  H   H713      1.0  0.98514  0.46373  0.80234  1.0000
  C   C399      1.0  0.84410  0.18482  0.93780  1.0000
  C   C400      1.0  0.05050  0.09086  0.80912  1.0000
  C   C401      1.0  0.76535  0.47395  0.97960  1.0000
  C   C402      1.0  0.98963  0.35993  0.79676  1.0000
  C   C403      1.0  0.08955  0.51904  0.87134  1.0000
  H   H714      1.0  0.23713  0.52045  0.82074  1.0000
  H   H715      1.0  0.08079  0.55236  0.88505  1.0000
  H   H716      1.0  0.25156  0.53221  0.98885  1.0000
  H   H717      1.0  0.94532  0.52096  0.86242  1.0000
  H   H718      1.0  0.06722  0.19439  0.80569  1.0000
  H   H719      1.0  0.01250  0.49868  0.77469  1.0000
  H   H720      1.0  0.25323  0.37157  0.96252  1.0000
  S   S88       1.0  0.12077  0.55050  0.79531  1.0000
  H   H721      1.0  0.93903  0.48528  0.00386  1.0000
  H   H722      1.0  0.98451  0.54675  0.84303  1.0000
  C   C404      1.0  0.94482  0.54817  0.83685  1.0000
  H   H723      1.0  0.20077  0.40188  0.99170  1.0000
  H   H724      1.0  0.77091  0.07161  0.99837  1.0000
  C   C405      1.0  0.89069  0.15964  0.75801  1.0000
  H   H725      1.0  0.20038  0.12221  0.00576  1.0000
  H   H726      1.0  0.79277  0.51777  0.09033  1.0000
  H   H727      1.0  0.84541  0.24168  0.10962  1.0000
  C   C406      1.0  0.24759  0.18711  0.16105  1.0000
  C   C407      1.0  0.06050  0.13012  0.21048  1.0000
  Fe  Fe44      1.0  0.02010  0.28529  0.19898  1.0000
  C   C408      1.0  0.82188  0.24478  0.20772  1.0000
  C   C409      1.0  0.89315  0.15924  0.07821  1.0000
  H   H728      1.0  0.83655  0.53426  0.17275  1.0000
  H   H729      1.0  0.99233  0.11362  0.12750  1.0000
  H   H730      1.0  0.22968  0.54303  0.14484  1.0000
  H   H731      1.0  0.80246  0.15978  0.07099  1.0000
  S   S89       1.0  0.03013  0.30558  0.12528  1.0000
  C   C410      1.0  0.02530  0.19354  0.04504  1.0000
  C   C411      1.0  0.78923  0.45174  0.08940  1.0000
  H   H732      1.0  0.20400  0.15392  0.23080  1.0000
  Fe  Fe45      1.0  0.96777  0.28149  0.09325  1.0000
  C   C412      1.0  0.96539  0.09630  0.13001  1.0000
  C   C413      1.0  0.94069  0.48468  0.12079  1.0000
  C   C414      1.0  0.18976  0.29095  0.23235  1.0000
  Fe  Fe46      1.0  0.96843  0.37117  0.13246  1.0000
  C   C415      1.0  0.03124  0.14786  0.04605  1.0000
  C   C416      1.0  0.94639  0.52363  0.10368  1.0000
  H   H733      1.0  0.10084  0.50215  0.21333  1.0000
  H   H734      1.0  0.92056  0.17710  0.08115  1.0000
  C   C417      1.0  0.14539  0.28128  0.22732  1.0000
  H   H735      1.0  0.06241  0.24098  0.06068  1.0000
  H   H736      1.0  0.25616  0.38090  0.24581  1.0000
  C   C418      1.0  0.79149  0.30123  0.06968  1.0000
  C   C419      1.0  0.85359  0.26866  0.22291  1.0000
  H   H737      1.0  0.05279  0.32117  0.03231  1.0000
  H   H738      1.0  0.22224  0.42723  0.14093  1.0000
  H   H739      1.0  0.18466  0.45832  0.05333  1.0000
  H   H740      1.0  0.13652  0.43944  0.15629  1.0000
  C   C420      1.0  0.21196  0.14801  0.02616  1.0000
  C   C421      1.0  0.24376  0.15211  0.24195  1.0000
  C   C422      1.0  0.07435  0.08469  0.23850  1.0000
  C   C423      1.0  0.81426  0.24975  0.07741  1.0000
  H   H741      1.0  0.83024  0.43311  0.09209  1.0000
  H   H742      1.0  0.24010  0.18639  0.25389  1.0000
  H   H743      1.0  0.21565  0.14065  0.06607  1.0000
  S   S90       1.0  0.96313  0.25569  0.16659  1.0000
  H   H744      1.0  0.94795  0.10641  0.16327  1.0000
  H   H745      1.0  0.94482  0.09636  0.05230  1.0000
  C   C424      1.0  0.11176  0.17400  0.08662  1.0000
  C   C425      1.0  0.92485  0.10793  0.08363  1.0000
  H   H746      1.0  0.19807  0.30614  0.20157  1.0000
  H   H747      1.0  0.11610  0.06808  0.24438  1.0000
  H   H748      1.0  0.25696  0.11747  0.17405  1.0000
  C   C426      1.0  0.07751  0.11523  0.06867  1.0000
  Fe  Fe47      1.0  0.84782  0.09123  0.23259  1.0000
  S   S91       1.0  0.82870  0.09390  0.15043  1.0000
  N   N23       1.0  0.78731  0.50186  0.01411  1.0000
  H   H749      1.0  0.87542  0.16680  0.11166  1.0000
  H   H750      1.0  0.82064  0.31457  0.06250  1.0000
  H   H751      1.0  0.77343  0.18783  0.01319  1.0000
  H   H752      1.0  0.11976  0.28877  0.19264  1.0000
  H   H753      1.0  0.89670  0.45837  0.15916  1.0000
  H   H754      1.0  0.16245  0.40647  0.21402  1.0000
  C   C427      1.0  0.16957  0.41134  0.17652  1.0000
  H   H755      1.0  0.90077  0.08821  0.08733  1.0000
  H   H756      1.0  0.99964  0.13797  0.03198  1.0000
  H   H757      1.0  0.07979  0.15109  0.23113  1.0000
  S   S92       1.0  0.96263  0.35276  0.20905  1.0000
  H   H758      1.0  0.01895  0.14882  0.20422  1.0000
  H   H759      1.0  0.14236  0.18446  0.10281  1.0000
  H   H760      1.0  0.20561  0.20101  0.15343  1.0000
  H   H761      1.0  0.85910  0.50586  0.04667  1.0000
  S   S93       1.0  0.90655  0.34830  0.09561  1.0000
  S   S94       1.0  0.96603  0.23677  0.03025  1.0000
  C   C428      1.0  0.76773  0.10336  0.01652  1.0000
  S   S95       1.0  0.17321  0.09122  0.12482  1.0000
  H   H762      1.0  0.78665  0.26119  0.18302  1.0000
  S   S96       1.0  0.98205  0.43226  0.10743  1.0000
  S   S97       1.0  0.83763  0.32408  0.19942  1.0000
  H   H763      1.0  0.81178  0.18100  0.21134  1.0000
  C   C429      1.0  0.06909  0.53155  0.19349  1.0000
  H   H764      1.0  0.01120  0.50682  0.20307  1.0000
  H   H765      1.0  0.17309  0.38026  0.15660  1.0000
  H   H766      1.0  0.06419  0.52578  0.15362  1.0000
  H   H767      1.0  0.11143  0.52209  0.07206  1.0000
  H   H768      1.0  0.21098  0.45468  0.19718  1.0000
  C   C430      1.0  0.11724  0.12870  0.09017  1.0000
  S   S98       1.0  0.76704  0.11078  0.24277  1.0000
  C   C431      1.0  0.02015  0.53742  0.21224  1.0000
  H   H769      1.0  0.94235  0.52385  0.23487  1.0000
  C   C432      1.0  0.89931  0.24745  0.25503  1.0000
  H   H770      1.0  0.78697  0.41886  0.15711  1.0000
  C   C433      1.0  0.17634  0.49228  0.03610  1.0000
  H   H771      1.0  0.08175  0.08009  0.07134  1.0000
  H   H772      1.0  0.86358  0.45190  0.03118  1.0000
  Fe  Fe48      1.0  0.90611  0.32423  0.17172  1.0000
  C   C434      1.0  0.06619  0.20615  0.06347  1.0000
  C   C435      1.0  0.88228  0.17804  0.25533  1.0000
  C   C436      1.0  0.83622  0.19944  0.22370  1.0000
  C   C437      1.0  0.84373  0.48775  0.01782  1.0000
  H   H773      1.0  0.07290  0.12453  0.17433  1.0000
  H   H774      1.0  0.23010  0.07596  0.25019  1.0000
  N   N24       1.0  0.85355  0.17696  0.03229  1.0000
  C   C438      1.0  0.21751  0.42231  0.17917  1.0000
  C   C439      1.0  0.90120  0.48843  0.14595  1.0000
  H   H775      1.0  0.18192  0.18168  0.01573  1.0000
  H   H776      1.0  0.80146  0.46916  0.16573  1.0000
  H   H777      1.0  0.19764  0.50958  0.06024  1.0000
  C   C440      1.0  0.77442  0.49929  0.06458  1.0000
  H   H778      1.0  0.24507  0.36194  0.07140  1.0000
  H   H779      1.0  0.09693  0.50155  0.01301  1.0000
  C   C441      1.0  0.83479  0.22795  0.03129  1.0000
  C   C442      1.0  0.80921  0.16195  0.03279  1.0000
  H   H780      1.0  0.78477  0.23758  0.08621  1.0000
  C   C443      1.0  0.12007  0.51908  0.03423  1.0000
  C   C444      1.0  0.81202  0.11685  0.00903  1.0000
  H   H781      1.0  0.10939  0.55362  0.01719  1.0000
  H   H782      1.0  0.97695  0.52079  0.08418  1.0000
  H   H783      1.0  0.84730  0.08855  0.02392  1.0000
  H   H784      1.0  0.24363  0.32257  0.02476  1.0000
  H   H785      1.0  0.05742  0.06374  0.21489  1.0000
  C   C445      1.0  0.86690  0.53128  0.15321  1.0000
  H   H786      1.0  0.77760  0.31611  0.10331  1.0000
  H   H787      1.0  0.87611  0.48688  0.24383  1.0000
  H   H788      1.0  0.76732  0.43297  0.06860  1.0000
  C   C446      1.0  0.25929  0.34878  0.03733  1.0000
  C   C447      1.0  0.77798  0.45361  0.14164  1.0000
  H   H789      1.0  0.98694  0.05936  0.13388  1.0000
  H   H790      1.0  0.82002  0.40719  0.01487  1.0000
  H   H791      1.0  0.86556  0.24010  0.02602  1.0000
  H   H792      1.0  0.76864  0.09694  0.05606  1.0000
  H   H793      1.0  0.13159  0.14822  0.36682  1.0000
  C   C448      1.0  0.07994  0.31586  0.45850  1.0000
  C   C449      1.0  0.08161  0.37031  0.33333  1.0000
  C   C450      1.0  0.22899  0.45655  0.42917  1.0000
  C   C451      1.0  0.02694  0.10494  0.44159  1.0000
  H   H794      1.0  0.03366  0.31012  0.33589  1.0000
  C   C452      1.0  0.17280  0.14121  0.37246  1.0000
  H   H795      1.0  0.04912  0.54815  0.44063  1.0000
  H   H796      1.0  0.93739  0.44192  0.44612  1.0000
  C   C453      1.0  0.90374  0.52884  0.29486  1.0000
  S   S99       1.0  0.25413  0.31250  0.41862  1.0000
  C   C454      1.0  0.00975  0.37158  0.40254  1.0000
  H   H797      1.0  0.01385  0.51670  0.35887  1.0000
  H   H798      1.0  0.02511  0.13699  0.45878  1.0000
  C   C455      1.0  0.12097  0.38827  0.32030  1.0000
  H   H799      1.0  0.77481  0.28664  0.33361  1.0000
  C   C456      1.0  0.18667  0.53344  0.39442  1.0000
  H   H800      1.0  0.23594  0.13836  0.48848  1.0000
  C   C457      1.0  0.78695  0.37342  0.30850  1.0000
  H   H801      1.0  0.81147  0.10754  0.44563  1.0000
  C   C458      1.0  0.05413  0.09127  0.28762  1.0000
  C   C459      1.0  0.78438  0.19658  0.47642  1.0000
  H   H802      1.0  0.98379  0.36127  0.42125  1.0000
  C   C460      1.0  0.87580  0.10130  0.41239  1.0000
  H   H803      1.0  0.94939  0.18561  0.29565  1.0000
  S   S100      1.0  0.81393  0.42741  0.47404  1.0000
  H   H804      1.0  0.18621  0.10305  0.30908  1.0000
  C   C461      1.0  0.21292  0.26059  0.31668  1.0000
  H   H805      1.0  0.81685  0.24694  0.41517  1.0000
  H   H806      1.0  0.98054  0.48774  0.28667  1.0000
  H   H807      1.0  0.93817  0.45652  0.38354  1.0000
  C   C462      1.0  0.12666  0.27107  0.46798  1.0000
  H   H808      1.0  0.15871  0.27361  0.45233  1.0000
  H   H809      1.0  0.00147  0.24593  0.32098  1.0000
  C   C463      1.0  0.95317  0.52265  0.27544  1.0000
  C   C464      1.0  0.04425  0.06143  0.36512  1.0000
  H   H810      1.0  0.76442  0.21413  0.43995  1.0000
  H   H811      1.0  0.78887  0.22374  0.50016  1.0000
  H   H812      1.0  0.13334  0.31806  0.38546  1.0000
  H   H813      1.0  0.24574  0.16614  0.33760  1.0000
  H   H814      1.0  0.87303  0.20956  0.48873  1.0000
  H   H815      1.0  0.10926  0.40294  0.28183  1.0000
  H   H816      1.0  0.00307  0.07043  0.35130  1.0000
  H   H817      1.0  0.11722  0.24257  0.45167  1.0000
  C   C465      1.0  0.84920  0.21598  0.41075  1.0000
  H   H818      1.0  0.05448  0.51015  0.28666  1.0000
  S   S101      1.0  0.08008  0.24852  0.26293  1.0000
  C   C466      1.0  0.24608  0.13215  0.32809  1.0000
  H   H819      1.0  0.97637  0.29903  0.38704  1.0000
  C   C467      1.0  0.01227  0.41555  0.42542  1.0000
  C   C468      1.0  0.02629  0.54265  0.26851  1.0000
  C   C469      1.0  0.19020  0.47119  0.34284  1.0000
  H   H820      1.0  0.98823  0.10388  0.43409  1.0000
  H   H821      1.0  0.19256  0.11027  0.39715  1.0000
  H   H822      1.0  0.07765  0.34564  0.30599  1.0000
  H   H823      1.0  0.79968  0.43759  0.31538  1.0000
  H   H824      1.0  0.05346  0.20843  0.36477  1.0000
  C   C470      1.0  0.95932  0.45161  0.42163  1.0000
  H   H825      1.0  0.89116  0.12225  0.39261  1.0000
  H   H826      1.0  0.79928  0.15046  0.39974  1.0000
  H   H827      1.0  0.04996  0.31125  0.47632  1.0000
  H   H828      1.0  0.09098  0.34147  0.47981  1.0000
  H   H829      1.0  0.87515  0.25314  0.36239  1.0000
  H   H830      1.0  0.86845  0.38840  0.27590  1.0000
  H   H831      1.0  0.78379  0.31247  0.47316  1.0000
  C   C471      1.0  0.99367  0.55272  0.34540  1.0000
  H   H832      1.0  0.85406  0.49208  0.30131  1.0000
  H   H833      1.0  0.90486  0.24854  0.42610  1.0000
  H   H834      1.0  0.01202  0.10454  0.27864  1.0000
  C   C472      1.0  0.09803  0.34756  0.38620  1.0000
  H   H835      1.0  0.13814  0.06927  0.34940  1.0000
  H   H836      1.0  0.18182  0.45884  0.30719  1.0000
  C   C473      1.0  0.81861  0.40192  0.33008  1.0000
  C   C474      1.0  0.79232  0.54121  0.37174  1.0000
  H   H837      1.0  0.08806  0.10024  0.40449  1.0000
  H   H838      1.0  0.22106  0.51535  0.47038  1.0000
  H   H839      1.0  0.89137  0.34799  0.32839  1.0000
  C   C475      1.0  0.01502  0.23468  0.36042  1.0000
  H   H840      1.0  0.08751  0.26945  0.37161  1.0000
  H   H841      1.0  0.90591  0.08107  0.44268  1.0000
  H   H842      1.0  0.18020  0.16990  0.39067  1.0000
  C   C476      1.0  0.82768  0.13114  0.43194  1.0000
  H   H843      1.0  0.05205  0.07644  0.46782  1.0000
  H   H844      1.0  0.03462  0.42989  0.40614  1.0000
  H   H845      1.0  0.16104  0.23520  0.34221  1.0000
  H   H846      1.0  0.02630  0.13405  0.37176  1.0000
  H   H847      1.0  0.98951  0.21952  0.37272  1.0000
  H   H848      1.0  0.15848  0.36065  0.32342  1.0000
  H   H849      1.0  0.02855  0.26125  0.43001  1.0000
  H   H850      1.0  0.04509  0.39913  0.32893  1.0000
  C   C477      1.0  0.05093  0.29654  0.37436  1.0000
  H   H851      1.0  0.89390  0.40332  0.33498  1.0000
  C   C478      1.0  0.19071  0.13430  0.32293  1.0000
  H   H852      1.0  0.02981  0.40918  0.46487  1.0000
  H   H853      1.0  0.79077  0.50772  0.37287  1.0000
  C   C479      1.0  0.01577  0.27441  0.39123  1.0000
  H   H854      1.0  0.22956  0.40478  0.37853  1.0000
  H   H855      1.0  0.10999  0.37051  0.41162  1.0000
  H   H856      1.0  0.16517  0.16265  0.29683  1.0000
  H   H857      1.0  0.77605  0.38179  0.26802  1.0000
  H   H858      1.0  0.83334  0.08712  0.34531  1.0000
  H   H859      1.0  0.92218  0.20020  0.38873  1.0000
  H   H860      1.0  0.98982  0.38020  0.36373  1.0000
  C   C480      1.0  0.13483  0.26130  0.26702  1.0000
  C   C481      1.0  0.04840  0.10214  0.39430  1.0000
  H   H861      1.0  0.16425  0.41698  0.50222  1.0000
  H   H862      1.0  0.96201  0.48442  0.43245  1.0000
  H   H863      1.0  0.23965  0.25118  0.35076  1.0000
  N   N25       1.0  0.05966  0.33292  0.40541  1.0000
  N   N26       1.0  0.83526  0.16200  0.47170  1.0000
  H   H864      1.0  0.91839  0.45651  0.29793  1.0000
  H   H865      1.0  0.26004  0.44216  0.27975  1.0000
  C   C482      1.0  0.21715  0.44061  0.38322  1.0000
  C   C483      1.0  0.16872  0.25096  0.31161  1.0000
  H   H866      1.0  0.90784  0.16196  0.45983  1.0000
  C   C484      1.0  0.21240  0.50295  0.43495  1.0000
  H   H867      1.0  0.06405  0.11927  0.30503  1.0000
  H   H868      1.0  0.12446  0.41496  0.34505  1.0000
  C   C485      1.0  0.86867  0.18630  0.45964  1.0000
  H   H869      1.0  0.85960  0.52379  0.42714  1.0000
  C   C486      1.0  0.89047  0.23042  0.39630  1.0000
  C   C487      1.0  0.86394  0.06859  0.37615  1.0000
  C   C488      1.0  0.87131  0.38422  0.31632  1.0000
  H   H870      1.0  0.82351  0.40130  0.37072  1.0000
  H   H871      1.0  0.81342  0.33770  0.31298  1.0000
  C   C489      1.0  0.17698  0.51757  0.34802  1.0000
  H   H872      1.0  0.83639  0.19824  0.37977  1.0000
  C   C490      1.0  0.22313  0.28107  0.27727  1.0000
  H   H873      1.0  0.79658  0.33910  0.39258  1.0000
  C   C491      1.0  0.88724  0.48860  0.28382  1.0000
  H   H874      1.0  0.25890  0.51854  0.26331  1.0000
  H   H875      1.0  0.90812  0.53191  0.33509  1.0000
  H   H876      1.0  0.92392  0.26587  0.26663  1.0000
  C   C492      1.0  0.91365  0.20215  0.27139  1.0000
  S   S102      1.0  0.90129  0.12105  0.27424  1.0000
  H   H877      1.0  0.76952  0.29884  0.26946  1.0000
  C   C493      1.0  0.83143  0.55023  0.40223  1.0000
  H   H878      1.0  0.25007  0.80866  0.67521  1.0000
  H   H879      1.0  0.19820  0.72322  0.71693  1.0000
  C   C494      1.0  0.16134  0.66162  0.66903  1.0000
  C   C495      1.0  0.09324  0.82739  0.69466  1.0000
  H   H880      1.0  0.24343  0.57758  0.66475  1.0000
  H   H881      1.0  0.86387  0.72025  0.63798  1.0000
  C   C496      1.0  0.02441  0.63292  0.67623  1.0000
  C   C497      1.0  0.90031  0.01967  0.70903  1.0000
  C   C498      1.0  0.92345  0.88202  0.75336  1.0000
  C   C499      1.0  0.86367  0.84674  0.66775  1.0000
  H   H882      1.0  0.23644  0.72747  0.67351  1.0000
  H   H883      1.0  0.90199  0.89265  0.65723  1.0000
  H   H884      1.0  0.76553  0.96472  0.72773  1.0000
  S   S103      1.0  0.07958  0.92159  0.54292  1.0000
  C   C500      1.0  0.82800  0.58713  0.56443  1.0000
  H   H885      1.0  0.77057  0.92116  0.68518  1.0000
  H   H886      1.0  0.23608  0.91386  0.74700  1.0000
  S   S104      1.0  0.17663  0.97818  0.52482  1.0000
  H   H887      1.0  0.25727  0.72097  0.55427  1.0000
  C   C501      1.0  0.22920  0.89252  0.71682  1.0000
  C   C502      1.0  0.08847  0.73404  0.55632  1.0000
  H   H888      1.0  0.92924  0.88961  0.55503  1.0000
  S   S105      1.0  0.99155  0.73815  0.54981  1.0000
  C   C503      1.0  0.92924  0.86925  0.52231  1.0000
  H   H889      1.0  0.20053  0.98458  0.63127  1.0000
  H   H890      1.0  0.86134  0.04328  0.69494  1.0000
  S   S106      1.0  0.87520  0.70856  0.51368  1.0000
  C   C504      1.0  0.87315  0.60738  0.63884  1.0000
  C   C505      1.0  0.01847  0.80900  0.69522  1.0000
  H   H891      1.0  0.94403  0.94936  0.71632  1.0000
  C   C506      1.0  0.04053  0.78516  0.74081  1.0000
  H   H892      1.0  0.06167  0.67797  0.66394  1.0000
  H   H893      1.0  0.98683  0.65870  0.66102  1.0000
  H   H894      1.0  0.05691  0.64181  0.61441  1.0000
  C   C507      1.0  0.05052  0.71998  0.53167  1.0000
  H   H895      1.0  0.89403  0.82081  0.69346  1.0000
  N   N27       1.0  0.87539  0.57076  0.60325  1.0000
  H   H896      1.0  0.95371  0.87910  0.73194  1.0000
  H   H897      1.0  0.20945  0.91465  0.68337  1.0000
  H   H898      1.0  0.84254  0.66479  0.58400  1.0000
  Fe  Fe49      1.0  0.08278  0.91702  0.62409  1.0000
  H   H899      1.0  0.80215  0.55443  0.64668  1.0000
  H   H900      1.0  0.98141  0.81053  0.67755  1.0000
  C   C508      1.0  0.87574  0.02021  0.55437  1.0000
  H   H901      1.0  0.06901  0.95882  0.74424  1.0000
  C   C509      1.0  0.86725  0.83120  0.61570  1.0000
  S   S107      1.0  0.00338  0.96594  0.62191  1.0000
  H   H902      1.0  0.24345  0.64918  0.68514  1.0000
  H   H903      1.0  0.92689  0.02862  0.68994  1.0000
  C   C510      1.0  0.83143  0.03201  0.57467  1.0000
  S   S108      1.0  0.11592  0.97037  0.63827  1.0000
  H   H904      1.0  0.91829  0.59222  0.55747  1.0000
  H   H905      1.0  0.85953  0.79943  0.61183  1.0000
  N   N28       1.0  0.87203  0.90974  0.72445  1.0000
  H   H906      1.0  0.83836  0.61641  0.65507  1.0000
  H   H907      1.0  0.22334  0.59445  0.72168  1.0000
  H   H908      1.0  0.24624  0.85137  0.63288  1.0000
  H   H909      1.0  0.90597  0.82442  0.60836  1.0000
  S   S109      1.0  0.12876  0.85191  0.66749  1.0000
  H   H910      1.0  0.92612  0.83700  0.53316  1.0000
  H   H911      1.0  0.16499  0.73137  0.56046  1.0000
  Fe  Fe50      1.0  0.10994  0.97703  0.55716  1.0000
  H   H912      1.0  0.82743  0.97889  0.69820  1.0000
  C   C511      1.0  0.15956  0.56469  0.58394  1.0000
  H   H913      1.0  0.02755  0.84924  0.63721  1.0000
  H   H914      1.0  0.90718  0.02881  0.57230  1.0000
  C   C512      1.0  0.11559  0.80278  0.73962  1.0000
  H   H915      1.0  0.01038  0.84245  0.53262  1.0000
  C   C513      1.0  0.04453  0.83083  0.67244  1.0000
  C   C514      1.0  0.14346  0.56836  0.52820  1.0000
  H   H916      1.0  0.23387  0.80147  0.57459  1.0000
  C   C515      1.0  0.06534  0.64302  0.65492  1.0000
  H   H917      1.0  0.10358  0.59174  0.51780  1.0000
  C   C516      1.0  0.21239  0.58130  0.68574  1.0000
  H   H918      1.0  0.82278  0.69746  0.66190  1.0000
  H   H919      1.0  0.12457  0.63756  0.58387  1.0000
  H   H920      1.0  0.16886  0.74570  0.65465  1.0000
  C   C517      1.0  0.20245  0.72019  0.67771  1.0000
  H   H921      1.0  0.02421  0.59907  0.66652  1.0000
  H   H922      1.0  0.83274  0.60848  0.53510  1.0000
  C   C518      1.0  0.86437  0.95916  0.72172  1.0000
  H   H923      1.0  0.79532  0.60965  0.58035  1.0000
  H   H924      1.0  0.15578  0.66856  0.70744  1.0000
  H   H925      1.0  0.21380  0.67067  0.62343  1.0000
  H   H926      1.0  0.12439  0.05192  0.70768  1.0000
  C   C519      1.0  0.23505  0.97374  0.61690  1.0000
  C   C520      1.0  0.15905  0.61047  0.60348  1.0000
  H   H927      1.0  0.20499  0.87508  0.72758  1.0000
  H   H928      1.0  0.90955  0.02370  0.74900  1.0000
  C   C521      1.0  0.90488  0.97110  0.69998  1.0000
  C   C522      1.0  0.16258  0.03801  0.73066  1.0000
  C   C523      1.0  0.13600  0.71975  0.54205  1.0000
  H   H929      1.0  0.88962  0.67813  0.68849  1.0000
  N   N29       1.0  0.16289  0.61453  0.65823  1.0000
  H   H930      1.0  0.11771  0.57454  0.67062  1.0000
  S   S110      1.0  0.03211  0.03023  0.54642  1.0000
  C   C524      1.0  0.23366  0.96896  0.56635  1.0000
  H   H931      1.0  0.12397  0.61069  0.71721  1.0000
  H   H932      1.0  0.82666  0.84776  0.67552  1.0000
  Fe  Fe51      1.0  0.00228  0.97443  0.54093  1.0000
  H   H933      1.0  0.83555  0.91857  0.64776  1.0000
  H   H934      1.0  0.83919  0.85701  0.58799  1.0000
  H   H935      1.0  0.12835  0.68737  0.64560  1.0000
  H   H936      1.0  0.90973  0.64816  0.60728  1.0000
  H   H937      1.0  0.90558  0.59519  0.67012  1.0000
  C   C525      1.0  0.87245  0.65246  0.61706  1.0000
  C   C526      1.0  0.20841  0.67262  0.66224  1.0000
  H   H938      1.0  0.03088  0.63432  0.71690  1.0000
  C   C527      1.0  0.11883  0.60863  0.67664  1.0000
  C   C528      1.0  0.86156  0.68916  0.65387  1.0000
  H   H939      1.0  0.18525  0.00613  0.71591  1.0000
  H   H940      1.0  0.19088  0.61649  0.59056  1.0000
  C   C529      1.0  0.77672  0.92775  0.72466  1.0000
  H   H941      1.0  0.89978  0.96729  0.65968  1.0000
  C   C530      1.0  0.92223  0.56230  0.58090  1.0000
  H   H942      1.0  0.08092  0.75641  0.58607  1.0000
  H   H943      1.0  0.82915  0.04905  0.60841  1.0000
  Fe  Fe52      1.0  0.03725  0.01965  0.62735  1.0000
  C   C531      1.0  0.86826  0.89385  0.67291  1.0000
  C   C532      1.0  0.79044  0.02123  0.55152  1.0000
  H   H944      1.0  0.16814  0.58094  0.51012  1.0000
  H   H945      1.0  0.95535  0.55731  0.61080  1.0000
  H   H946      1.0  0.81353  0.69700  0.74992  1.0000
  C   C533      1.0  0.77377  0.71546  0.74929  1.0000
  C   C534      1.0  0.83245  0.90344  0.75014  1.0000
  C   C535      1.0  0.87867  0.99855  0.51021  1.0000
  H   H947      1.0  0.15322  0.80012  0.75676  1.0000
  C   C536      1.0  0.79375  0.99887  0.50780  1.0000
  H   H948      1.0  0.93007  0.56090  0.75632  1.0000
  H   H949      1.0  0.83969  0.86688  0.75652  1.0000
  H   H950      1.0  0.99028  0.83403  0.83809  1.0000
  H   H951      1.0  0.96545  0.62175  0.83508  1.0000
  H   H952      1.0  0.00813  0.72249  0.94051  1.0000
  C   C537      1.0  0.89795  0.67884  0.84016  1.0000
  H   H953      1.0  0.90660  0.56824  0.91927  1.0000
  H   H954      1.0  0.79046  0.55983  0.77726  1.0000
  C   C538      1.0  0.88850  0.97714  0.89221  1.0000
  H   H955      1.0  0.88618  0.62762  0.91359  1.0000
  H   H956      1.0  0.25668  0.90213  0.90084  1.0000
  C   C539      1.0  0.07416  0.94846  0.78374  1.0000
  H   H957      1.0  0.82955  0.63494  0.83575  1.0000
  H   H958      1.0  0.91098  0.89969  0.82805  1.0000
  S   S111      1.0  0.80826  0.84422  0.99036  1.0000
  H   H959      1.0  0.07765  0.85054  0.92188  1.0000
  C   C540      1.0  0.97742  0.57442  0.98413  1.0000
  C   C541      1.0  0.02598  0.03111  0.96463  1.0000
  S   S112      1.0  0.00820  0.75948  0.77155  1.0000
  S   S113      1.0  0.25492  0.67704  0.86328  1.0000
  C   C542      1.0  0.93818  0.89914  0.80405  1.0000
  H   H960      1.0  0.00382  0.00814  0.89456  1.0000
  C   C543      1.0  0.18770  0.87561  0.93416  1.0000
  S   S114      1.0  0.82039  0.80755  0.87982  1.0000
  Fe  Fe53      1.0  0.10531  0.66368  0.93047  1.0000
  H   H961      1.0  0.91540  0.63001  0.78489  1.0000
  S   S115      1.0  0.11528  0.72298  0.89574  1.0000
  H   H962      1.0  0.17690  0.89942  0.96358  1.0000
  C   C544      1.0  0.96775  0.59354  0.93118  1.0000
  H   H963      1.0  0.77755  0.96169  0.85376  1.0000
  C   C545      1.0  0.00336  0.04052  0.90994  1.0000
  H   H964      1.0  0.25146  0.85907  0.83890  1.0000
  H   H965      1.0  0.21995  0.94909  0.96101  1.0000
  S   S116      1.0  0.17386  0.61222  0.90816  1.0000
  C   C546      1.0  0.83444  0.56709  0.84682  1.0000
  H   H966      1.0  0.09175  0.88441  0.87826  1.0000
  C   C547      1.0  0.90956  0.71251  0.80932  1.0000
  H   H967      1.0  0.99889  0.88227  0.86630  1.0000
  H   H968      1.0  0.90608  0.03321  0.86923  1.0000
  C   C548      1.0  0.91502  0.59625  0.90342  1.0000
  C   C549      1.0  0.08915  0.78204  0.76284  1.0000
  H   H969      1.0  0.86144  0.97314  0.75855  1.0000
  H   H970      1.0  0.76153  0.63327  0.96016  1.0000
  Fe  Fe54      1.0  0.12073  0.60912  0.84008  1.0000
  H   H971      1.0  0.89335  0.74691  0.82225  1.0000
  H   H972      1.0  0.10626  0.76396  0.79806  1.0000
  N   N30       1.0  0.24424  0.85104  0.94255  1.0000
  H   H973      1.0  0.99919  0.57202  0.91383  1.0000
  H   H974      1.0  0.22851  0.73134  0.95632  1.0000
  C   C550      1.0  0.99310  0.70891  0.96745  1.0000
  H   H975      1.0  0.07402  0.04087  0.89228  1.0000
  H   H976      1.0  0.78548  0.77226  0.78474  1.0000
  C   C551      1.0  0.09959  0.87235  0.91748  1.0000
  H   H977      1.0  0.23843  0.80637  0.77798  1.0000
  H   H978      1.0  0.97009  0.62757  0.93198  1.0000
  C   C552      1.0  0.87777  0.01809  0.86630  1.0000
  H   H979      1.0  0.76553  0.55417  0.95533  1.0000
  S   S117      1.0  0.13278  0.66354  0.79975  1.0000
  C   C553      1.0  0.07272  0.98815  0.81567  1.0000
  H   H980      1.0  0.21826  0.67908  0.96064  1.0000
  H   H981      1.0  0.89286  0.71319  0.77002  1.0000
  C   C554      1.0  0.78462  0.56988  0.81495  1.0000
  H   H982      1.0  0.16506  0.01811  0.90715  1.0000
  H   H983      1.0  0.95092  0.70381  0.81256  1.0000
  C   C555      1.0  0.85523  0.60132  0.82734  1.0000
  H   H984      1.0  0.91544  0.74467  0.93411  1.0000
  H   H985      1.0  0.04399  0.93572  0.78915  1.0000
  C   C556      1.0  0.83108  0.03882  0.83564  1.0000
  H   H986      1.0  0.98772  0.91872  0.99231  1.0000
  C   C557      1.0  0.17753  0.04476  0.89758  1.0000
  C   C558      1.0  0.15586  0.84516  0.93384  1.0000
  H   H987      1.0  0.16106  0.82996  0.97141  1.0000
  S   S118      1.0  0.05173  0.65542  0.86548  1.0000
  H   H988      1.0  0.78765  0.96998  0.97553  1.0000
  H   H989      1.0  0.01977  0.86617  0.80844  1.0000
  C   C559      1.0  0.80517  0.97773  0.85777  1.0000
  C   C560      1.0  0.99016  0.86835  0.83056  1.0000
  H   H990      1.0  0.99135  0.01448  0.81134  1.0000
  C   C561      1.0  0.85245  0.95669  0.88767  1.0000
  C   C562      1.0  0.23721  0.70065  0.98034  1.0000
  C   C563      1.0  0.25969  0.81642  0.90504  1.0000
  H   H991      1.0  0.19554  0.84724  0.84346  1.0000
  H   H992      1.0  0.24760  0.79806  0.99338  1.0000
  Fe  Fe55      1.0  0.06672  0.71065  0.82875  1.0000
  H   H993      1.0  0.10392  0.99901  0.80932  1.0000
  Fe  Fe56      1.0  0.81007  0.78214  0.95134  1.0000
  H   H994      1.0  0.00337  0.01650  0.98330  1.0000
  C   C564      1.0  0.21646  0.03561  0.87026  1.0000
  H   H995      1.0  0.83503  0.91612  0.78754  1.0000
  H   H996      1.0  0.17471  0.89766  0.89961  1.0000
  C   C565      1.0  0.25783  0.92298  0.97447  1.0000
  H   H997      1.0  0.84921  0.60228  0.78644  1.0000
  H   H998      1.0  0.25002  0.78646  0.91257  1.0000
  H   H999      1.0  0.92612  0.84674  0.76031  1.0000
  H   H1000     1.0  0.85635  0.68932  0.83514  1.0000
  H   H1001     1.0  0.16648  0.81752  0.90858  1.0000
  H   H1002     1.0  0.06556  0.00658  0.97001  1.0000
  S   S119      1.0  0.85572  0.71465  0.99083  1.0000
  S   S120      1.0  0.87096  0.90321  0.91713  1.0000
  H   H1003     1.0  0.11140  0.92055  0.79380  1.0000
  S   S121      1.0  0.24083  0.98194  0.84799  1.0000
  C   C566      1.0  0.02068  0.02732  0.80316  1.0000
  H   H1004     1.0  0.92516  0.96085  0.91519  1.0000
  H   H1005     1.0  0.15818  0.03030  0.76832  1.0000
  H   H1006     1.0  0.91165  0.68233  0.87920  1.0000
  C   C567      1.0  0.79439  0.01897  0.83176  1.0000
  H   H1007     1.0  0.82680  0.57505  0.88452  1.0000
  H   H1008     1.0  0.08021  0.97561  0.85468  1.0000
  C   C568      1.0  0.23748  0.83300  0.85035  1.0000
  Fe  Fe57      1.0  0.18061  0.67060  0.86893  1.0000
  H   H1009     1.0  0.93932  0.93346  0.80050  1.0000
  H   H1010     1.0  0.08676  0.90181  0.94016  1.0000
  Fe  Fe58      1.0  0.81321  0.87148  0.91760  1.0000
  C   C569      1.0  0.92388  0.62973  0.82569  1.0000
  N   N31       1.0  0.90966  0.59394  0.84839  1.0000
  C   C570      1.0  0.94060  0.72157  0.96386  1.0000
  H   H1011     1.0  0.93295  0.80725  0.99160  1.0000
  H   H1012     1.0  0.23680  0.76832  0.82485  1.0000
  H   H1013     1.0  0.94541  0.59303  0.00292  1.0000
  C   C571      1.0  0.92091  0.70310  0.99762  1.0000
  H   H1014     1.0  0.97995  0.83312  0.00075  1.0000
  C   C572      1.0  0.02596  0.67867  0.00562  1.0000
  H   H1015     1.0  0.01221  0.03408  0.76250  1.0000
  C   C573      1.0  0.25303  0.79388  0.81697  1.0000
  H   H1016     1.0  0.01251  0.57747  0.00464  1.0000
  C   C574      1.0  0.26071  0.82696  0.99300  1.0000
  S   S122      1.0  0.86615  0.01670  0.24072  1.0000
  H   H1017     1.0  0.21250  0.80280  0.22429  1.0000
  H   H1018     1.0  0.76597  0.65723  0.01908  1.0000
  H   H1019     1.0  0.89439  0.83034  0.08578  1.0000
  C   C575      1.0  0.93262  0.94495  0.03948  1.0000
  C   C576      1.0  0.96111  0.81210  0.17625  1.0000
  C   C577      1.0  0.98286  0.73497  0.14936  1.0000
  C   C578      1.0  0.00017  0.71138  0.20171  1.0000
  H   H1020     1.0  0.91449  0.77428  0.06801  1.0000
  H   H1021     1.0  0.79590  0.77851  0.13377  1.0000
  H   H1022     1.0  0.88791  0.86918  0.16999  1.0000
  C   C579      1.0  0.03699  0.66292  0.20106  1.0000
  H   H1023     1.0  0.97164  0.97568  0.23626  1.0000
  C   C580      1.0  0.82492  0.74787  0.15406  1.0000
  C   C581      1.0  0.92301  0.96412  0.08404  1.0000
  C   C582      1.0  0.19292  0.56937  0.14866  1.0000
  H   H1024     1.0  0.15335  0.70241  0.15115  1.0000
  H   H1025     1.0  0.77321  0.85488  0.15182  1.0000
  C   C583      1.0  0.18371  0.61236  0.11775  1.0000
  S   S123      1.0  0.20013  0.89297  0.13917  1.0000
  Fe  Fe59      1.0  0.78461  0.03623  0.24665  1.0000
  H   H1026     1.0  0.13585  0.70593  0.08616  1.0000
  S   S124      1.0  0.09149  0.65904  0.00743  1.0000
  H   H1027     1.0  0.08062  0.78528  0.07149  1.0000
  H   H1028     1.0  0.92207  0.92631  0.20080  1.0000
  H   H1029     1.0  0.02006  0.72958  0.22615  1.0000
  H   H1030     1.0  0.91922  0.86101  0.01831  1.0000
  H   H1031     1.0  0.90314  0.70780  0.15709  1.0000
  C   C584      1.0  0.87201  0.57016  0.13536  1.0000
  H   H1032     1.0  0.86390  0.86046  0.24746  1.0000
  H   H1033     1.0  0.18448  0.60324  0.07904  1.0000
  H   H1034     1.0  0.96797  0.71028  0.21812  1.0000
  H   H1035     1.0  0.09401  0.82671  0.10988  1.0000
  H   H1036     1.0  0.14511  0.63605  0.12021  1.0000
  H   H1037     1.0  0.97117  0.71229  0.12358  1.0000
  C   C585      1.0  0.94676  0.89020  0.20726  1.0000
  H   H1038     1.0  0.03200  0.96721  0.21958  1.0000
  C   C586      1.0  0.16427  0.71045  0.11641  1.0000
  C   C587      1.0  0.91216  0.56631  0.11108  1.0000
  Fe  Fe60      1.0  0.84008  0.02088  0.15913  1.0000
  H   H1039     1.0  0.98601  0.88714  0.20503  1.0000
  C   C588      1.0  0.15537  0.76165  0.11724  1.0000
  C   C589      1.0  0.09861  0.85377  0.22542  1.0000
  H   H1040     1.0  0.82575  0.75091  0.19419  1.0000
  C   C590      1.0  0.92801  0.86301  0.16830  1.0000
  C   C591      1.0  0.98061  0.93382  0.02677  1.0000
  H   H1041     1.0  0.01749  0.73695  0.13821  1.0000
  H   H1042     1.0  0.17210  0.77311  0.08911  1.0000
  H   H1043     1.0  0.84656  0.66918  0.24329  1.0000
  S   S125      1.0  0.86368  0.97366  0.09994  1.0000
  H   H1044     1.0  0.96520  0.80241  0.21587  1.0000
  H   H1045     1.0  0.19279  0.57646  0.18806  1.0000
  H   H1046     1.0  0.86297  0.81198  0.15074  1.0000
  H   H1047     1.0  0.76762  0.58808  0.06049  1.0000
  H   H1048     1.0  0.00000  0.80828  0.17126  1.0000
  C   C592      1.0  0.97008  0.80436  0.06779  1.0000
  H   H1049     1.0  0.92944  0.87655  0.13187  1.0000
  H   H1050     1.0  0.81415  0.71862  0.14288  1.0000
  H   H1051     1.0  0.77849  0.90441  0.08702  1.0000
  C   C593      1.0  0.00942  0.96169  0.10295  1.0000
  C   C594      1.0  0.01930  0.94196  0.05855  1.0000
  H   H1052     1.0  0.93862  0.65976  0.06302  1.0000
  H   H1053     1.0  0.76439  0.73862  0.24292  1.0000
  S   S126      1.0  0.82877  0.62402  0.14211  1.0000
  H   H1054     1.0  0.01822  0.64279  0.17813  1.0000
  N   N32       1.0  0.21690  0.67828  0.11225  1.0000
  Fe  Fe61      1.0  0.13599  0.94700  0.09129  1.0000
  C   C595      1.0  0.89505  0.77943  0.16135  1.0000
  H   H1055     1.0  0.98962  0.56739  0.19211  1.0000
  C   C596      1.0  0.92749  0.79793  0.09117  1.0000
  S   S127      1.0  0.11857  0.99589  0.15048  1.0000
  C   C597      1.0  0.00627  0.66216  0.04106  1.0000
  C   C598      1.0  0.95376  0.67383  0.03659  1.0000
  H   H1056     1.0  0.04972  0.64713  0.23909  1.0000
  Fe  Fe62      1.0  0.18536  0.94369  0.19669  1.0000
  H   H1057     1.0  0.03907  0.96738  0.12799  1.0000
  H   H1058     1.0  0.78694  0.92753  0.14599  1.0000
  H   H1059     1.0  0.17805  0.73669  0.01943  1.0000
  H   H1060     1.0  0.07890  0.56217  0.19888  1.0000
  C   C599      1.0  0.96112  0.97328  0.11540  1.0000
  C   C600      1.0  0.22470  0.63288  0.13591  1.0000
  H   H1061     1.0  0.08063  0.78170  0.13712  1.0000
  H   H1062     1.0  0.19249  0.66022  0.03956  1.0000
  H   H1063     1.0  0.82569  0.94403  0.24427  1.0000
  H   H1064     1.0  0.87250  0.74094  0.10059  1.0000
  H   H1065     1.0  0.17249  0.76901  0.15385  1.0000
  S   S128      1.0  0.18649  0.97715  0.06233  1.0000
  H   H1066     1.0  0.07523  0.85125  0.19147  1.0000
  H   H1067     1.0  0.22727  0.63506  0.17631  1.0000
  H   H1068     1.0  0.11540  0.90863  0.19693  1.0000
  H   H1069     1.0  0.91627  0.59634  0.09720  1.0000
  C   C601      1.0  0.87647  0.74144  0.14112  1.0000
  H   H1070     1.0  0.94557  0.87848  0.24468  1.0000
  C   C602      1.0  0.01105  0.97252  0.25073  1.0000
  C   C603      1.0  0.12137  0.88622  0.22853  1.0000
  C   C604      1.0  0.22234  0.67175  0.05921  1.0000
  C   C605      1.0  0.21835  0.71386  0.02862  1.0000
  H   H1071     1.0  0.24095  0.73252  0.04817  1.0000
  H   H1072     1.0  0.07086  0.66234  0.18628  1.0000
  Fe  Fe63      1.0  0.24923  0.92712  0.11522  1.0000
  H   H1073     1.0  0.90047  0.77622  0.20223  1.0000
  H   H1074     1.0  0.98803  0.82537  0.08991  1.0000
  S   S129      1.0  0.23991  0.97269  0.17717  1.0000
  H   H1075     1.0  0.92118  0.60198  0.23368  1.0000
  S   S130      1.0  0.07887  0.92718  0.04071  1.0000
  C   C606      1.0  0.09909  0.79042  0.10845  1.0000
  H   H1076     1.0  0.03157  0.63883  0.07069  1.0000
  H   H1077     1.0  0.99951  0.77117  0.06391  1.0000
  C   C607      1.0  0.77783  0.58599  0.02338  1.0000
  Fe  Fe64      1.0  0.17478  0.02088  0.12596  1.0000
  N   N33       1.0  0.94178  0.78104  0.14455  1.0000
  H   H1078     1.0  0.16230  0.55623  0.13599  1.0000
  H   H1079     1.0  0.25781  0.91014  0.01146  1.0000
  H   H1080     1.0  0.95361  0.98851  0.14958  1.0000
  C   C608      1.0  0.94928  0.82775  0.01651  1.0000
  H   H1081     1.0  0.99425  0.04403  0.24772  1.0000
  H   H1082     1.0  0.81915  0.57787  0.02762  1.0000
  H   H1083     1.0  0.24198  0.84910  0.02084  1.0000
  C   C609      1.0  0.24655  0.77913  0.24856  1.0000
  H   H1084     1.0  0.25848  0.64386  0.05633  1.0000
  H   H1085     1.0  0.90280  0.93878  0.01458  1.0000
  H   H1086     1.0  0.25034  0.72956  0.12883  1.0000
  H   H1087     1.0  0.25353  0.69498  0.18007  1.0000
  C   C610      1.0  0.25655  0.69438  0.14037  1.0000
  C   C611      1.0  0.79633  0.62768  0.36939  1.0000
  H   H1088     1.0  0.85238  0.04400  0.39487  1.0000
  H   H1089     1.0  0.22656  0.96664  0.42993  1.0000
  C   C612      1.0  0.10746  0.67742  0.47866  1.0000
  C   C613      1.0  0.11121  0.82453  0.43036  1.0000
  C   C614      1.0  0.06626  0.01009  0.29881  1.0000
  H   H1090     1.0  0.93943  0.93630  0.31216  1.0000
  H   H1091     1.0  0.92268  0.91402  0.41429  1.0000
  H   H1092     1.0  0.83932  0.97167  0.45244  1.0000
  S   S131      1.0  0.88305  0.60426  0.43873  1.0000
  C   C615      1.0  0.05993  0.69183  0.49277  1.0000
  H   H1093     1.0  0.03104  0.68022  0.47441  1.0000
  H   H1094     1.0  0.18746  0.82498  0.44599  1.0000
  C   C616      1.0  0.02887  0.57845  0.36583  1.0000
  H   H1095     1.0  0.05514  0.03126  0.39089  1.0000
  C   C617      1.0  0.01144  0.01535  0.27571  1.0000
  H   H1096     1.0  0.88516  0.61482  0.31640  1.0000
  C   C618      1.0  0.99801  0.87890  0.39557  1.0000
  H   H1097     1.0  0.24374  0.99536  0.27842  1.0000
  S   S132      1.0  0.08576  0.77881  0.26003  1.0000
  H   H1098     1.0  0.05718  0.60147  0.43417  1.0000
  C   C619      1.0  0.78233  0.91966  0.34376  1.0000
  H   H1099     1.0  0.02845  0.94256  0.27720  1.0000
  H   H1100     1.0  0.16398  0.81373  0.49952  1.0000
  C   C620      1.0  0.82012  0.92421  0.27291  1.0000
  Fe  Fe65      1.0  0.87317  0.67777  0.44103  1.0000
  H   H1101     1.0  0.06260  0.85670  0.48120  1.0000
  C   C621      1.0  0.15314  0.00529  0.38720  1.0000
  H   H1102     1.0  0.04596  0.76267  0.41364  1.0000
  H   H1103     1.0  0.08034  0.98038  0.32554  1.0000
  C   C622      1.0  0.83737  0.98836  0.48666  1.0000
  H   H1104     1.0  0.01426  0.87527  0.36120  1.0000
  H   H1105     1.0  0.99457  0.60024  0.43079  1.0000
  H   H1106     1.0  0.92914  0.64186  0.33554  1.0000
  H   H1107     1.0  0.24456  0.75696  0.49983  1.0000
  C   C623      1.0  0.15911  0.86067  0.31322  1.0000
  H   H1108     1.0  0.76231  0.99003  0.48995  1.0000
  H   H1109     1.0  0.96582  0.81999  0.32746  1.0000
  H   H1110     1.0  0.84647  0.69688  0.30034  1.0000
  H   H1111     1.0  0.87253  0.55923  0.27621  1.0000
  H   H1112     1.0  0.11527  0.65415  0.45000  1.0000
  H   H1113     1.0  0.01552  0.61291  0.34797  1.0000
  Fe  Fe66      1.0  0.19600  0.66739  0.40433  1.0000
  H   H1114     1.0  0.02596  0.74417  0.31118  1.0000
  Fe  Fe67      1.0  0.17407  0.61560  0.31710  1.0000
  S   S133      1.0  0.12403  0.67238  0.35415  1.0000
  Fe  Fe68      1.0  0.92893  0.73682  0.49019  1.0000
  C   C624      1.0  0.10806  0.82342  0.26551  1.0000
  C   C625      1.0  0.92678  0.94542  0.34785  1.0000
  C   C626      1.0  0.83368  0.59349  0.40080  1.0000
  H   H1115     1.0  0.14181  0.87026  0.47124  1.0000
  Fe  Fe69      1.0  0.86551  0.76356  0.38724  1.0000
  Fe  Fe70      1.0  0.14253  0.71784  0.30508  1.0000
  C   C627      1.0  0.12934  0.03855  0.34111  1.0000
  C   C628      1.0  0.15218  0.88923  0.27228  1.0000
  S   S134      1.0  0.85870  0.79232  0.31124  1.0000
  H   H1116     1.0  0.14432  0.80450  0.34046  1.0000
  H   H1117     1.0  0.12720  0.78974  0.41809  1.0000
  N   N34       1.0  0.07332  0.05040  0.32320  1.0000
  C   C629      1.0  0.03251  0.58219  0.42131  1.0000
  H   H1118     1.0  0.06782  0.56006  0.35894  1.0000
  H   H1119     1.0  0.92141  0.88113  0.36173  1.0000
  C   C630      1.0  0.06693  0.82810  0.45719  1.0000
  Fe  Fe71      1.0  0.81440  0.77055  0.47577  1.0000
  H   H1120     1.0  0.98068  0.89260  0.49281  1.0000
  H   H1121     1.0  0.22644  0.97229  0.36534  1.0000
  C   C631      1.0  0.94429  0.60338  0.26988  1.0000
  H   H1122     1.0  0.01150  0.90364  0.41649  1.0000
  S   S135      1.0  0.93350  0.98389  0.48390  1.0000
  H   H1123     1.0  0.94502  0.96826  0.36580  1.0000
  C   C632      1.0  0.15373  0.83389  0.46404  1.0000
  S   S136      1.0  0.21069  0.71736  0.35831  1.0000
  C   C633      1.0  0.90771  0.63253  0.30289  1.0000
  H   H1124     1.0  0.88518  0.96378  0.34095  1.0000
  C   C634      1.0  0.84133  0.87697  0.27438  1.0000
  C   C635      1.0  0.21077  0.99028  0.39685  1.0000
  N   N35       1.0  0.01705  0.83394  0.42468  1.0000
  H   H1125     1.0  0.05326  0.79679  0.36667  1.0000
  H   H1126     1.0  0.00620  0.71872  0.35843  1.0000
  C   C636      1.0  0.83294  0.85118  0.31048  1.0000
  H   H1127     1.0  0.13953  0.02158  0.42034  1.0000
  H   H1128     1.0  0.09839  0.84905  0.39813  1.0000
  H   H1129     1.0  0.22276  0.01965  0.40330  1.0000
  H   H1130     1.0  0.94957  0.79352  0.37667  1.0000
  C   C637      1.0  0.13764  0.82738  0.30946  1.0000
  S   S137      1.0  0.18549  0.92581  0.27475  1.0000
  C   C638      1.0  0.99454  0.74773  0.33111  1.0000
  S   S138      1.0  0.93159  0.70183  0.41950  1.0000
  H   H1131     1.0  0.89597  0.88843  0.49409  1.0000
  C   C639      1.0  0.80343  0.87250  0.34515  1.0000
  S   S139      1.0  0.86805  0.80095  0.45609  1.0000
  H   H1132     1.0  0.89821  0.04964  0.36065  1.0000
  H   H1133     1.0  0.07949  0.79749  0.48248  1.0000
  H   H1134     1.0  0.96183  0.74691  0.30406  1.0000
  C   C640      1.0  0.87098  0.67636  0.27529  1.0000
  C   C641      1.0  0.93982  0.90311  0.38108  1.0000
  S   S140      1.0  0.24525  0.60762  0.37037  1.0000
  H   H1135     1.0  0.04464  0.56805  0.27578  1.0000
  C   C642      1.0  0.98023  0.79219  0.35656  1.0000
  H   H1136     1.0  0.08982  0.99976  0.26961  1.0000
  H   H1137     1.0  0.17503  0.56930  0.39897  1.0000
  S   S141      1.0  0.80708  0.73758  0.40465  1.0000
  H   H1138     1.0  0.79584  0.85268  0.37236  1.0000
  C   C643      1.0  0.98131  0.83048  0.45744  1.0000
  Fe  Fe72      1.0  0.25403  0.65813  0.32009  1.0000
  C   C644      1.0  0.02679  0.79529  0.39121  1.0000
  H   H1139     1.0  0.99254  0.79509  0.47184  1.0000
  S   S142      1.0  0.20487  0.67328  0.48579  1.0000
  H   H1140     1.0  0.77026  0.59709  0.47400  1.0000
  H   H1141     1.0  0.18282  0.86296  0.34711  1.0000
  H   H1142     1.0  0.94258  0.83848  0.43651  1.0000
  H   H1143     1.0  0.79789  0.66088  0.36775  1.0000
  H   H1144     1.0  0.14369  0.97447  0.38301  1.0000
  S   S143      1.0  0.15322  0.55555  0.29621  1.0000
  H   H1145     1.0  0.98720  0.02055  0.30416  1.0000
  H   H1146     1.0  0.15097  0.02331  0.31154  1.0000
  C   C645      1.0  0.79027  0.94556  0.30745  1.0000
  H   H1147     1.0  0.96708  0.62356  0.26179  1.0000
  S   S144      1.0  0.18689  0.66138  0.26364  1.0000
  C   C646      1.0  0.14544  0.69146  0.50317  1.0000
  H   H1148     1.0  0.76336  0.87821  0.45997  1.0000
  H   H1149     1.0  0.23424  0.76605  0.27934  1.0000
  H   H1150     1.0  0.89189  0.69630  0.26246  1.0000
  N   N36       1.0  0.97832  0.55624  0.29013  1.0000
  H   H1151     1.0  0.96018  0.56445  0.36384  1.0000
  C   C647      1.0  0.97818  0.85995  0.50250  1.0000
  C   C648      1.0  0.76368  0.57296  0.49844  1.0000
  H   H1152     1.0  0.26078  0.83198  0.28856  1.0000
