data_image0
_chemical_formula_structural       FeS2FeS2FeSFeS4HFeSHFeSFeH2CSH2C3S2HCFeS2FeS2Fe2S3FeH2S3FeSFeS2FeS2FeS2Fe2S4HCSCSC6H4CFeCH2C6H4C6H4C6H4C2H2C3FeH3C6H6C6H2CHC6H6CHSH2SHCH2S2H3SH3FeH3C5H3CH2SHC2H2SHC5H8CH2CHCH6CH3C2HCH8C3H3C2H3C3H11SCNC8HC3H28NHCHC2HC4H2CH11CH3CHCH3C2H8CHCH2CHC2H8FeH3C2FeH4CH5CH5CH2C3H5C4H2CHC2H2CH2CHC2HCHSCHCHCH2C2SH4C5SHCH2CNH6CNH6FeCNC12H14CH4NH2CH6C4H2CNCH2SHSHCHCH5C2H4CH6CHCHCH4CH2C5H2CH7CHC2HCHNCHCHNHCHCHNC12H28CHCHC2H2FeC2H6C2SH8CHC2H3SCH6NH4CH6C4HC3HFeSCFeSHFeHFeSCSFeS2H2FeSCH8FeSH2CSHCHFeSH4FeS2FeS2FeSFeS3HFeS2FeSH2SFeS2FeS2FeSFeS3FeS2FeS2FeSFeS3C6H4C6H4C6H4C6H4C6H4C2H5CH3SH2C7H8C7H4C3H5C6H5C3HCH7CHSH2CH3CNC10HCH22CH6CNH3CSNC4HC2H2SC2H15NH5CH7CHNHSCH2CHCH2CHCH2C2H4C4H2CH4CH8SH2CH2C3FeH3CH3SCHCH3CH2CH3C2SCHFeH2CHC2SH2NH2NC3HCHC2H2CH16CH2SH5CHSCNCH4CH2NC12H29CHCHCHCH2C3HCSH3CH2C4H2FeC2H2CHC2H3CHC2H3CHCHCH5CHC2H2C3H2NHC2H3C2HC3H6C2H6CHCH2CH3SH4NC12H28NHCH5C2H2CFeCH3C2H6CHSHC2FeH3SFeC2H2CHCH3CHCH2SH4CH4C2HCH4C3H8C2HC2FeC2FeS2FeHSCHFeHS2FeSCFeS2FeSFeS3CFeS2FeS2FeSFeS3FeS2FeSCFeHFeHS2H3CH2CH7C6HC2HCH2C2H2SH9CH2CH2C6H5C3H4CH2CHC7H6C4HNHCH8CH4C2SH2CHCH3CHCHCH2CHCH3CSH2C2HCH2SH2CH7C2H5C3H2CH2CH2CH5CHC3SH2CHC2HNHCH3NC9H19C2FeH6C2HCHC2HCHCH2CHSH3C2H11S2C2H4NC3H2CH7C2HCH3CH6NC7H2CHCH8C2H5CH4C3HCH3C2H3SCHCH2CHC3HCSCHCNCH2NH2CH3C3NH3C2H2CHCHC3H4CH11CH2CH7CH3CH6CH2C2H2C2H6CFeS2FeS2Fe2S3H4FeS2FeS2FeSFeS3FeS2FeS2FeSFeS3FeS2FeS2Fe2S3FeS2FeS2FeSFeS3FeCHFeS2H2CHS2H4CSHSNHSH5CH3CFeSHFeS2FeSFeS3FeS2FeS2FeHFeS3CHCH4C2H4C6H5CH2C3H3C6HCH2C2H3CH5CH7SC6H4C6H4CH2C2H2C6H4C6H2C8H4C6H4C6H4C6H7CH2C2H6CHC9H4C6H7CHCH5CHCH3CHNC10HCH22CH5C3H4CH4NC4NHC3H2CH8FeCH5SH4CHCHCH6CHC2NC10HCH22NH6CH3CH2C2H12CHNCH4C3HCH3NH4C3H2CHCH6CHCHC2H5CH2C3H4CH2NC5NH18C2H3CHCH2CH3CH5CHCH2NC3HSC5H2CH7CH4CHCH7CHNC6HC4H14CH4CH4CH2CH2CH2C2HC2H2C2HSNH2C2H2CH2CH2CHCH2CH3FeH2CH2C2H2C2H4CH6CH4CH3C2HCH6CH2CH2C2NCH5CH2CH5CH3C2H3CH6C3HCHCHC3HCH2NHC2H6CHCH6CH3CH2CH6C3H4C2NH4C3H5C5H3C2HCH3C2H4CH2CFeH3CHFeSHFeHSFeSCSHFeS2FeS2FeSFeS3HFeS2Fe2S3FeHFeHSHS2C2HC2H2NCH4CHCH2SHFeH2C6H6FeSHN2HSC8HC6H6C2H2CSC2HCH4CH3C2SH3CHC3H3CHCHCS2H2SH2NC10HCH22NH5NC6SC4H13FeH15NC11SH13CH11CHCHC5NCFeCH2C2NCFeC2H6CHCH4C2H4C3H9CHCH2C3H2SC2H2C2HCHFeHC2H3CSH5NH4CH2CHSHC2H3C3H7C9HC2H3CH3SHNC8SH3CH3CHFeH2C2H2SH2C2HC2H4CH5CSHCH5C3H2CH4CHCH2NHC2HC2HCHCH4CH2CSH2CH3C2H8C2FeSCHC6FeHCH4CH2CHCHCH4CH3FeCH4CHC3H6CH2CH2CH10SCFeCH3CSHCHSCH7CH6CH2CHCHC2H7C2H4CSCH3CH3SH3SCHC2H3CH3C2H3SH8CH3CHNH5C2H3FeS2FeSFe2S5HSCFeS2FeS2FeSFeS3FeS2FeS2FeSFeS3C3H2SHFeHSFeHSHC2S2FeS2FeS2FeCFeHS2FeS2FeS2FeSFeS3H9FeH2SC7H6CH5C8H4C3H2CH2C2H2C3H8FeCH5NCH6C6H4C6H4C6H4CH2C3H2C6H6C2H6C6H3C4H6C6H4C6H5C2H6CHCHCHCHCHCHC2HCH3CHSH2CHCHC2H2C2SH4FeNC12H28NC12H16CH10CH4CH7C2H3C2H4CHSH5CHC2H4SHCH4CHC2HNCHCHC3HCHNH2CH9CH2C2HC3H3C2HNC7H17CHCHCH4CFeHCHCH2C5H5CH2SCNH3NCHC2HCH2C3H3CH4CH5CH13CNCHC4H3CH5CH6CHCH5NH5CH2C2H2CH2CHCHSFeCH7CHCSCH5C3HCHCFeHSH2CSH3CH2CHC2SCH2CHFeH2SHNCH4CSH2CH2NCHNCHFeH3SH3C3H7C2H3SCHCH2CH3CH2C7HCHC2H3CH3CH2CHC2HCH2NHCHCH2CH3C2H3C2H5CHCHCH3CHFeH3SHC2H6CH2NCH2C2H4C2H4SH7CH3CH2NHFeH2CH2CHNFeSHFeS2FeSFeS3FeS2FeS2FeSFeS3FeSCFeS2FeSFeS3FeS2FeSFeSFeS2FeS2FeS2FeSFeS3H2SHSHFeS2HSFeSFeS3C2H2SCH3C8H4C6H5C3HCFeCHC6H4C2H2C6H4C6H4C6H4C6H4C6H4C6H5C2H7CHCHCHCH12CHSNC12H28NC10H23C3H2C2HCH3C2H2CSH6C2H14NC12H30CHC2H2C3H2SHCH3CH2CH4C3H6C3HNC12H29C2H2NHCH10CNC12H28CHCNCH3CH3C2HCSCH2CNCH7C2H6CHCHCH3C2HCFeHCHCHCH5SCH2CH13CH4NC6HNC2H2CH13CH4CHC2H3C2H2SH4CH2NH3CHCFeHCHCHCHC2HC2H2CH5CHNH2CH3CH2CHCH3C2HC3HCH4CH7CHC3H2CH10C2H3C2HCH2CHNCH11FeSHFeS2FeCS2FeS2FeSCFeSFeS3H3CH7CFeS2FeSHFeSFeCS2FeS2FeSFeS3H3NSH3CH5CH2CH4C2HSCH2CHC4H4SHC8H6CH2CHC2HC2H6CHC7H4C3HSC4H3NHCH3CH11CH2C2H4CH4CHCH2CHCHCHNHCHCH4CH2CH2C3HC2SC2HC2H2C3H2C2H14CH3CHCH3C2H3CH4NC2HCHFeH3CH2CHFeH3C3HCH7C2H2CH2CH6SCHC2H2C2HCHC3H4CHCH4CHCH7C2H2C2HC4NC2H5C2HCH2CH3CH3CH2C2NHNC7H2C2H14CNH13C2H4C4H7CH3C2HNHCHC2H7NH2CH4CH4CSH3C3HC2H2CH2C3H2CH4C3HCH6CH2C3H9CH2CNH2CHCH4C2H2CHSH2C2FeSHFeSCFeHFeS3CFeS2FeS2FeSFeS3FeSFeHS2FeS2FeS2FeSFeHS2FeS2FeS2FeSFeS3CSCHSHFeSH2FeSCHSCS2CH2SHC2HCSH2CH2CHC6H4C6H5CSH2CH2C6H2C6H4C6H4C6H4C6H2CHC2H2CHFeC7H4C5H4CH2SHCH2CH12CHSH3CH2C2H7CH2CH7SH5C2HCHSCH3CH7CHCHCH2SCH2C2HC2H4SH2C2H3NSH3NC9H11FeH12NC2HCHFeH11CH3C2H2CH3CNH5CHCH7CH8CHC3H2CFeH3CH2CHSH2CH6CH3C2HCSH2FeH3CH2FeH4CHSH4NCHCH8SC2SNHC6H6NC12H28NC8HC3H17C2H9NC9H19SNH2C2HC2NH2CH4C2H4CHCH3CFeCHC3HSHCH2C3HCH2CH2SHCH5CH3CHCHCH3CHCFeH3CH6NC6H17NC6SC2HCHSH4CH7CHCHC2H2FeC3H4CFeCH2C2H7CNFeS2FeCFeSHSFeSFeS2FeSFeS2FeSFeSHFeSFeS3CH3FeS2FeS2FeHFeS3HSH2SCFeSFeSH3SC3SCH2SH2CFeS2FeS2FeSFeS3HSC5H3CHC6H4C3NHCH3CH2CH3CHCHC6H4C6H4CHC3SH13C6H7C3H2C4H2CHCHC2HCH2C6H4C3HCFeH2CSC6H4CSC3H4NC11H14CH13CNC4HC3HC2H7CH8CSNHNH2NC12H19CFeCH6NC12H28NC12H35C2NC2H2CH2C3H12CFeH7SCH2CH4SH3SH3CHC2H3CH2NHC3SH2CHCH2C2H3CH4CH3CH2CH2C2HCHC3H2C2HCH5NC12H25SC2NC4HC3HCHCH6CH9CH7CH4C2H2C2H2CH2CH2CH3NCH5C2HCHC3HCHC5HSCH4CHC2HSCH6FeC2SH3C2HC3HCFeHCHCH6C2H8CHSHCH4SH4CHCHCH3SH2CHSHCHC2HSH2C2H3CH4CH2C2NH4CHCH4CH3C2HCHCH4CS2CHCFeSFeS2FeSFeCS2FeS2FeSFeHFeHS2FeS2FeS2FeSFeHS2FeS2FeS2FeSFeS3CFeHSFeHSFeSHS2FeS2FeS2HFeSHSFeS2FeS2FeSFeCS2H2CHFeS2CH3C2H5C5HCH2FeHC6H4C2HC3HCH2C6H4C6H4C6H4C2H2C2H4CHFeC3H2C6H5C2HCHC6H4C3HC7H4SHCH4CHFeH3CH2CHC3SCNHCH2C2H6CH6NSC4H14CH2C2H2CNC12H28NC5H2C2H7CSH16CH3CH7CH5CH4CH5FeH5SCSHC2H4C2NC12H30CHSNH2CHSH3CH3C2HC3H2CH2SH3CHCH2C3NC2H2C2H3CH2FeH8CH6SCH2CH2CHC5H4CHNC2H4C2HCHCH2SHCH2CHCHC3H3CH2NC5HC2HC3H4CH5CH9CHC2H6CHCH7SHSHCH2CH3FeCH5CH5CH5NC10HCNSHCHC2H4CH16CH8CHCH2CFeS2FeS2FeSFeS3FeS2FeS2FeSFeS3FeS2FeSFeSFeS2FeS2FeS2FeSFeS3C3FeSNHSFeS2FeS2FeHFeS3CSHFeHSFeSHFeSFeSHNH8C3H2CHSH3C7H4C7H4C6H4C2SH2CH2CHC6H4CHCH2C6H4C6H4C6H4C6H4C6H4C6H4C6H7FeHCH3CH4CNC12H19C2H9C2H4CH6CHCH2CHC2H3CHCH5CHC3H10NC12H30CH7C2H6CH4CHC2H2CH2CH2NC12H25CH5CH4C2HCH2C2HCH4CSH3CH3NCH2NH7CNC8H14NHCHCH2C3H6CHCHCH2CHC4HCH2C2HCFeH5CHCH8C2H2SH3CNC11H28NH8CHCH3CHC2H7CHCH2C2SCH3CHCH3CH2C4H6CNC11H22C2H3C2H2SHC3HC2HCHC4H3CHC3HNHSHCNCHC2H5CH2C2H6CHSCH4CSHCH3CH4CSCH3CHC2H8SH3CHCHCSH2CHC2SH2CH4NHCH2NHCH6CNH2C2H5CH3CH2SH4C2H2CH2CH3SH5CH2CHSH2CHCSCH2N2H3CHCHC2H2SHS2FeSFeS2FeSFeS5H3CHCSCSH2FeSFeS2FeHFeSHSHFeSFeS2H6NHC6H2C4HCH5CH4SH4CHFeC2H4C2H3C9H3C6H4C7H3C6H7CH3CH2NC5HC4HCH28CHCHC2H4SNH3C2H4FeSH2CH2S2H3CHCH2FeNH2CHCH2CHC2H2C2HCH3CSH3NCH5CHCH4CH2CHC2NHFeH8CSH3CH2CH3CH2SHCH5C2NC11H14CH4CH7CH2CFeHCHCH6CH2CH3NHSHC2H3CHC2HCNCH4C2HCHCH3CHSH4CH6C3SHNH2CHC3H3C2HCH2CHC2H2C2HCHCHSH4CH4CHCH2C2H2CHCH4CH2CH2CHCHFeCH5NH3CH5C3HCHC2H2CH8C3H2CH5FeC3H5CHNC10H4FeH9CH5C2H2CHSHCHSCH3C2HC2HC3H7CHCH3CH2CH3CH2C3H6C3HCH4CH3CH4C2H2CH2CH2FeS2FeS2FeSFeS5FeSFeSFeS2FeS2FeSFeS3FeS2FeS2FeSFeS3FeS2FeSCFeSFeSHSFeSCFeS2FeSFeS3H5CHCFeH5SH3C2HSH2CHCH2FeCH2CH3CHSC3HC3H7CHC2H5SH2C6H4C6H5CH5CHC7H4C6H4C6H4C3H3C6H4C6H4C6H4C6H2FeH6C2H2CHNC7H13CHCH2CHNCH2CHC2HCH2CHFeH4CH3CHC5H5CHCHNH3CHCH2SHCH3NH8CHCH2C2H2CH5C5H7CHCHCHC3HC3HFeH2CHC4H12C6H11SHC4H2C3H2CH6SH2CH2CH5CSHCH2CHCH2CH2SH2CH4CH6SHCH3CH4CH2S2H8C3HC4HCHCHCH3CH2C3H2CH6SH6NHC3H3CHC2HCH9NH3CHCHC2H3CFeH2CH2SHSH3C3HCH2CH5CH5CH2CH5C2H2C5HSNCH2NC11H25NC12H28NC6HCHC2H15CH10CH3NC7H2C2H2CH10C2H2CH2CH6C2H2C2H3NH3CH2CH3C3HNH4NHNHCFeHCH3CHCH2CHCH4CHCHC2HCH2CH2CH10CH3CH4CHC2H2CHC2H2C2H3CHFeHFeS2FeSHFeHFeS3FeS2FeSHFe2S4HFeS2FeS2FeSFeS3HSHFeSHFeSFeSHSCH2CHSHCH2FeHSFeS2Fe2HS2FeS2FeS2FeHFeS3HNCHCH2C2H2CHCH3C6H4SH2C8H4CH3CSHCH2SH3C2HC8H4C6H4CH2CH2CHCHCH3CH4C6H5CH4CH4C3HCH2CHC7H7CHC2HCH2C2SCH9CHCHCH2SH2NHSH4SH3C2SC4HSH2NC8HC3H15CH13CH2CH2CHCH4FeH3CH2C2HCH6CHC2H3NC12H28NC12H28NC9HC2H15SHCHCHCH6CSH3CH2CH2C2HC4HC2H3CHC2H2C2HC2H3CHCHNH2CSH2C2H2C2H2CNCHCHC3HCH2CHCHCH2CHCH3CHCH7SNH2C2H2CH4CH5C2H4CHCH6C2H2NHCH6CH3CHNCHCH5CH2FeH4CH3CH3CH2CHC3HCHFeS2FeCSHCH2S2FeS2FeS2FeSFeS3FeS2FeS2Fe2S2FeS2FeS2FeSFeS3CSHC2HCHC2H3C6H2CSC3H2CHC4H2C6H4C6H3C6H5CH4C5H4CHC3H2CH6NC8HC2H25C2HC2H3CH3C2NC6HCHC2FeH2SH2CH7CH11CHCNH2C3HCHC2HCHCH8CH5CNCH18CH7CH3CH4C2H3C2H3C4HC2HC3HCH3NH4S2HCHCSH2SH2C2H2CHC3H11CH3CH2C3H3CH6CHNH3CH6CHCS2CSH4C2H2FeCH3CH2NHCH4C5NC12H16CH11CHCHC3H2CH2CSCH2CH2CH3NC9HC2H19CHCH6NC6HC3HCH5CHC2HCN2HC2H6C2HSHFeH4CH10CHCH2CH2SFeHSFeSC2FeH3SCSHC3SH7CH3SHC2HC2HCH2FeHCH3CHC2H2CH9NCHNFeCH3CHCHFeCH2FeHCH2CH5CHCHSH3CH10C2HCH3CH4CH2CSC3H3CH2C2HCHC2HCHCSH2SC2H2C4H3CHCHCH2CH2CH2SH9FeHC2H2CH5CHCHC3HCFeS2H2FeSC2FeC2HSH4SHC2H3NH5C2HCFeH5FeH2FeHSH4S2FeS2FeS2FeSFeS3FeS2FeS2FeSFeS3HSH2FeSFeSFeS2FeS2FeSFeS3FeS2FeS2FeSFeS3C6H5CHC6H4C6H4C6H4C6H4C2HC3HSH2C6H5C2H6CH2CH7CHCH2C3H2C6H5CHCHCH4C6H4C6H3CHC2H5CH3NHCH3C2H2CH4C2SC2H5NH5NC5HC4HCHSCH3CH11C3HC2H3CHCH2CH2CH14CHC4H5CHCNH2NCHC2H2CH6CH3NC12H22CH5C4H4CH7CH6CH2CSCH3CNCHCH4CNC12H28C2H2CHC2H5CNH3CHCH5NC2H3CHCHCHCH3C2H3C3H3CHC2HCH2CH6C4H4SH4CH3CH5FeSCH4CHCHSH5CSH2NC4HC3HCH4CH7CHCH4NCHCHCHCH10CH2CHC2H2CH5CH3CH3CHCHCHC2HC2H3CH7C2H5CHFeNC11H12CH10C2H4FeHNH3C2H5C2H5CHC2H2C3H3C2HSH2C2SHS2C5H3C2SHCHCFeS2FeS2FeSFeS3FeSH3FeSFeS2HFeCHSFeSHFeSFeH2FeS2FeSFeSFeS3CH3CHC3SCH2C5H3C8H4C3H2CHC7H4C6H4C6H6SCHC2H2FeH9NFeC3H3SCSCH4C2H4SHCH3C2H2CSCH2CH3CHC3HC2H2CH5CH5CH2CH12CH7SC2H6C3HCH2CH2C2H2C3HSCHSCH2SH3C2HCH2C2H4SC3HCH3CH2SHCH4CH2N2CH2CH2C3H3CH9CH3CH2CH3CH2CH2SC3HNCHCH2CH2CH5CH3C2H11CH4FeHCSH2SC3HCHSHSHSFeSC2H5FeS2FeS2FeSFeS3HSCS2FeSFeS2FeSFeS3FeS2FeS2FeSFeS3H3FeS2H2FeSHSCSH2NHFeSHCHCSHCHCH3C2H2CH12CHC6H4C6H4C6H4C6H4C6H4C6H4C6H5CH2CH3C6H6C4SH2CHC2H3SH6SCH2CNHCFeC3H4SH8CHNHCFeCHCHC2HC2HCH4CH8FeH4CHCHCH5CFeHNC11FeH18CH7CH11NCHC6HC2H6CH2CH3FeH2C2H3CH3CH2CNC12H27CH5SH2CH2C2FeHCHCHCH5CH5CHNC3HC2HC4H22C2HC3HNC12H25CH9FeCH2SHC2H2C2H2FeHCHC2H3C2H3CHC2H3C2H4CH3CH2NCHC2H2NC12H18C6H2NH9CHCHNH2S2HSCHCH6CH4CNHSHCHCHCHSH2SHC2H2FeHC3H5SHNFeS2FeS2FeSFeS3FeS2FeSHFeHFeS3FeS2FeS2FeSFeS3FeS2FeHSFeS2HSFeS2FeSFeS3FeS2FeSHFeSFeS3CHC6H5C6H3C6HCH2C4H2C7H5CHC7H4C4H4C6H5C3SHCH3CH2C4HCSHCH3CH2C2H2CH2C2HCHCH8CHCH3CH3FeH4C2HCH3CH4C3H2C3HC2H5C2HCH2C3HCHCHSH2CH2CNC2H2CHC2H16CH2C2H3CH4C4H2CHCHCH2NFeHC2H5CH5CH4CSHCH2SH2NHCH3CHC3H3SH3C2HCHCHC2H3CH7C2H5C3HCSH2FeH7C2H3CH2C2H2C2H2C2HC2H2C2H5CH4CHNC10HCH10CH13SH3FeCHC2H7C3H10NHNCH2CHCH3C2H2NH7CH3CH7CH2CH3CH3CSC2HC2HCHCH2C3HC2H8SCHCHCH2NC3HC2HCH2CH3CH4NCH2CH5CHC2H7NC12H26CH6C3H3CH5CHNH2C2H5C2H2SH2NH4CHC2HCSH7CH3CFeH
_chemical_formula_sum              "Fe512 S1024 H8192 C4608 N256"
_cell_length_a       79.1465
_cell_length_b       80.1931
_cell_length_c       112.273
_cell_angle_alpha    74.2635
_cell_angle_beta     74.3059
_cell_angle_gamma    74.2814

_space_group_name_H-M_alt    "P 1"
_space_group_IT_number       1

loop_
  _space_group_symop_operation_xyz
  'x, y, z'

loop_
  _atom_site_type_symbol
  _atom_site_label
  _atom_site_symmetry_multiplicity
  _atom_site_fract_x
  _atom_site_fract_y
  _atom_site_fract_z
  _atom_site_occupancy
  Fe  Fe1       1.0  0.44650  0.09820  0.03878  1.0000
  S   S1        1.0  0.43121  0.12477  0.03040  1.0000
  S   S2        1.0  0.47515  0.09062  0.04099  1.0000
  Fe  Fe2       1.0  0.41470  0.08093  0.04509  1.0000
  S   S3        1.0  0.39632  0.10604  0.03751  1.0000
  S   S4        1.0  0.40852  0.05392  0.05382  1.0000
  Fe  Fe3       1.0  0.42008  0.10951  0.02136  1.0000
  S   S5        1.0  0.41847  0.12045  0.00086  1.0000
  Fe  Fe4       1.0  0.40901  0.11911  0.04722  1.0000
  S   S6        1.0  0.39367  0.13940  0.05901  1.0000
  S   S7        1.0  0.43748  0.08336  0.02824  1.0000
  S   S8        1.0  0.42522  0.09359  0.05626  1.0000
  S   S9        1.0  0.46682  0.38163  0.09677  1.0000
  H   H1        1.0  0.46865  0.00520  0.00904  1.0000
  Fe  Fe5       1.0  0.06367  0.45732  0.03197  1.0000
  S   S10       1.0  0.08397  0.43295  0.02731  1.0000
  H   H2        1.0  0.45638  0.10813  0.00863  1.0000
  Fe  Fe6       1.0  0.10338  0.44407  0.03280  1.0000
  S   S11       1.0  0.12418  0.42769  0.04423  1.0000
  Fe  Fe7       1.0  0.09091  0.45047  0.00813  1.0000
  H   H3        1.0  0.47127  0.22298  0.18152  1.0000
  H   H4        1.0  0.18412  0.47886  0.14360  1.0000
  C   C1        1.0  0.45758  0.03426  0.03668  1.0000
  S   S12       1.0  0.17940  0.47565  0.07769  1.0000
  H   H5        1.0  0.42737  0.25776  0.14094  1.0000
  H   H6        1.0  0.47685  0.39472  0.13421  1.0000
  C   C2        1.0  0.21515  0.47153  0.16954  1.0000
  C   C3        1.0  0.42092  0.07550  0.98984  1.0000
  C   C4        1.0  0.00506  0.42563  0.07559  1.0000
  S   S13       1.0  0.29685  0.47214  0.08220  1.0000
  S   S14       1.0  0.40014  0.01951  0.01205  1.0000
  H   H7        1.0  0.17564  0.36491  0.16044  1.0000
  C   C5        1.0  0.46249  0.03741  0.02197  1.0000
  Fe  Fe8       1.0  0.44051  0.19044  0.08821  1.0000
  S   S15       1.0  0.45811  0.17944  0.10235  1.0000
  S   S16       1.0  0.44613  0.17342  0.07404  1.0000
  Fe  Fe9       1.0  0.42710  0.22591  0.09628  1.0000
  S   S17       1.0  0.44361  0.21770  0.11115  1.0000
  S   S18       1.0  0.41082  0.25392  0.09221  1.0000
  Fe  Fe10      1.0  0.46550  0.20588  0.09656  1.0000
  Fe  Fe11      1.0  0.43471  0.19204  0.11565  1.0000
  S   S19       1.0  0.42867  0.17855  0.13610  1.0000
  S   S20       1.0  0.44982  0.21609  0.08126  1.0000
  S   S21       1.0  0.41610  0.20103  0.10203  1.0000
  Fe  Fe12      1.0  0.16023  0.46034  0.09210  1.0000
  H   H8        1.0  0.47041  0.00549  0.05358  1.0000
  H   H9        1.0  0.03404  0.46246  0.98773  1.0000
  S   S22       1.0  0.17460  0.45381  0.13504  1.0000
  S   S23       1.0  0.18173  0.44174  0.10186  1.0000
  S   S24       1.0  0.36624  0.23352  0.16192  1.0000
  Fe  Fe13      1.0  0.32256  0.46242  0.12083  1.0000
  S   S25       1.0  0.34717  0.44487  0.12775  1.0000
  Fe  Fe14      1.0  0.28231  0.47069  0.12872  1.0000
  S   S26       1.0  0.25749  0.46403  0.14228  1.0000
  S   S27       1.0  0.30138  0.45136  0.11760  1.0000
  Fe  Fe15      1.0  0.44114  0.32748  0.10784  1.0000
  S   S28       1.0  0.45874  0.33573  0.11680  1.0000
  S   S29       1.0  0.45533  0.30301  0.10010  1.0000
  Fe  Fe16      1.0  0.40982  0.35780  0.11423  1.0000
  S   S30       1.0  0.42505  0.36831  0.12373  1.0000
  S   S31       1.0  0.38122  0.37053  0.11218  1.0000
  Fe  Fe17      1.0  0.44791  0.36340  0.10736  1.0000
  Fe  Fe18      1.0  0.43453  0.33963  0.13231  1.0000
  S   S32       1.0  0.43931  0.33144  0.15205  1.0000
  S   S33       1.0  0.43210  0.35500  0.09698  1.0000
  S   S34       1.0  0.41748  0.32928  0.12418  1.0000
  S   S35       1.0  0.21301  0.37392  0.15230  1.0000
  H   H10       1.0  0.04929  0.46602  0.99569  1.0000
  C   C6        1.0  0.24612  0.46315  0.09036  1.0000
  S   S36       1.0  0.22846  0.44763  0.07937  1.0000
  C   C7        1.0  0.48283  0.39222  0.12481  1.0000
  S   S37       1.0  0.08241  0.46671  0.03908  1.0000
  C   C8        1.0  0.35579  0.42399  0.12367  1.0000
  C   C9        1.0  0.36910  0.41187  0.12957  1.0000
  C   C10       1.0  0.37694  0.39545  0.12612  1.0000
  C   C11       1.0  0.37154  0.39104  0.11671  1.0000
  C   C12       1.0  0.35794  0.40299  0.11099  1.0000
  C   C13       1.0  0.35014  0.41947  0.11441  1.0000
  H   H11       1.0  0.37342  0.41529  0.13679  1.0000
  H   H12       1.0  0.38714  0.38622  0.13076  1.0000
  H   H13       1.0  0.35358  0.39959  0.10378  1.0000
  H   H14       1.0  0.33992  0.42875  0.10978  1.0000
  C   C14       1.0  0.43532  0.31063  0.16077  1.0000
  Fe  Fe19      1.0  0.20026  0.45907  0.08880  1.0000
  C   C15       1.0  0.42624  0.30122  0.15668  1.0000
  H   H15       1.0  0.45698  0.11764  0.07135  1.0000
  H   H16       1.0  0.42146  0.30672  0.14801  1.0000
  C   C16       1.0  0.18481  0.43152  0.14000  1.0000
  C   C17       1.0  0.19469  0.42687  0.14948  1.0000
  C   C18       1.0  0.20382  0.40930  0.15303  1.0000
  C   C19       1.0  0.20222  0.39611  0.14769  1.0000
  C   C20       1.0  0.19198  0.40068  0.13843  1.0000
  C   C21       1.0  0.18341  0.41838  0.13452  1.0000
  H   H17       1.0  0.19583  0.43697  0.15374  1.0000
  H   H18       1.0  0.21218  0.40604  0.15983  1.0000
  H   H19       1.0  0.19071  0.39053  0.13424  1.0000
  H   H20       1.0  0.17542  0.42177  0.12744  1.0000
  C   C22       1.0  0.41106  0.19312  0.14370  1.0000
  C   C23       1.0  0.39629  0.20181  0.13819  1.0000
  C   C24       1.0  0.38241  0.21390  0.14403  1.0000
  C   C25       1.0  0.38366  0.21797  0.15506  1.0000
  C   C26       1.0  0.39844  0.20932  0.16059  1.0000
  C   C27       1.0  0.41199  0.19661  0.15503  1.0000
  H   H21       1.0  0.39546  0.19900  0.12949  1.0000
  H   H22       1.0  0.37075  0.22015  0.13996  1.0000
  H   H23       1.0  0.07104  0.48820  0.07824  1.0000
  H   H24       1.0  0.42343  0.18988  0.15930  1.0000
  C   C28       1.0  0.42350  0.26864  0.09259  1.0000
  C   C29       1.0  0.41556  0.28651  0.09285  1.0000
  C   C30       1.0  0.42520  0.29741  0.09504  1.0000
  C   C31       1.0  0.44285  0.29047  0.09672  1.0000
  C   C32       1.0  0.45096  0.27299  0.09569  1.0000
  C   C33       1.0  0.44139  0.26216  0.09359  1.0000
  H   H25       1.0  0.40185  0.29175  0.09172  1.0000
  H   H26       1.0  0.41903  0.31109  0.09549  1.0000
  H   H27       1.0  0.46455  0.26756  0.09688  1.0000
  H   H28       1.0  0.44791  0.24869  0.09284  1.0000
  C   C34       1.0  0.47407  0.12587  0.03912  1.0000
  C   C35       1.0  0.02094  0.45618  0.03596  1.0000
  H   H29       1.0  0.04303  0.41748  0.05675  1.0000
  H   H30       1.0  0.05165  0.45282  0.07351  1.0000
  C   C36       1.0  0.06610  0.43032  0.99401  1.0000
  C   C37       1.0  0.01609  0.44672  0.01868  1.0000
  C   C38       1.0  0.02777  0.44981  0.02483  1.0000
  Fe  Fe20      1.0  0.37184  0.24221  0.17758  1.0000
  H   H31       1.0  0.47955  0.05671  0.03203  1.0000
  H   H32       1.0  0.33693  0.39041  0.13518  1.0000
  H   H33       1.0  0.04211  0.44679  0.02113  1.0000
  C   C39       1.0  0.12888  0.43683  0.05533  1.0000
  C   C40       1.0  0.14382  0.42840  0.06085  1.0000
  C   C41       1.0  0.14684  0.43459  0.07054  1.0000
  C   C42       1.0  0.13469  0.44902  0.07494  1.0000
  C   C43       1.0  0.12000  0.45758  0.06926  1.0000
  C   C44       1.0  0.11728  0.45173  0.05937  1.0000
  H   H34       1.0  0.15286  0.41683  0.05779  1.0000
  H   H35       1.0  0.15804  0.42767  0.07503  1.0000
  H   H36       1.0  0.45248  0.35426  0.18107  1.0000
  H   H37       1.0  0.10585  0.45839  0.05520  1.0000
  H   H38       1.0  0.13742  0.48811  0.06823  1.0000
  H   H39       1.0  0.46055  0.12858  0.03782  1.0000
  C   C45       1.0  0.40601  0.04439  0.04227  1.0000
  C   C46       1.0  0.39952  0.05508  0.03168  1.0000
  C   C47       1.0  0.39761  0.04730  0.02247  1.0000
  C   C48       1.0  0.40241  0.02887  0.02376  1.0000
  C   C49       1.0  0.40917  0.01821  0.03425  1.0000
  C   C50       1.0  0.41082  0.02595  0.04358  1.0000
  H   H40       1.0  0.39594  0.06935  0.03057  1.0000
  H   H41       1.0  0.39261  0.05562  0.01426  1.0000
  C   C51       1.0  0.04133  0.47219  0.98825  1.0000
  H   H42       1.0  0.41628  0.01773  0.05160  1.0000
  C   C52       1.0  0.40790  0.14868  0.06372  1.0000
  C   C53       1.0  0.42647  0.14384  0.05958  1.0000
  C   C54       1.0  0.43788  0.15143  0.06305  1.0000
  C   C55       1.0  0.43089  0.16371  0.07086  1.0000
  C   C56       1.0  0.41231  0.16850  0.07520  1.0000
  C   C57       1.0  0.40080  0.16102  0.07157  1.0000
  H   H43       1.0  0.43205  0.13419  0.05370  1.0000
  H   H44       1.0  0.45223  0.14784  0.05960  1.0000
  H   H45       1.0  0.40683  0.17810  0.08116  1.0000
  H   H46       1.0  0.38640  0.16478  0.07481  1.0000
  H   H47       1.0  0.36608  0.17558  0.16653  1.0000
  H   H48       1.0  0.39945  0.21231  0.16913  1.0000
  C   C58       1.0  0.49983  0.05399  0.98972  1.0000
  H   H49       1.0  0.46706  0.44249  0.07791  1.0000
  S   S38       1.0  0.13547  0.45475  0.08884  1.0000
  H   H50       1.0  0.44652  0.04573  0.03882  1.0000
  H   H51       1.0  0.47998  0.00164  0.03194  1.0000
  S   S39       1.0  0.15243  0.47895  0.10545  1.0000
  H   H52       1.0  0.47007  0.22349  0.01911  1.0000
  C   C59       1.0  0.31734  0.22187  0.18505  1.0000
  H   H53       1.0  0.16257  0.47802  0.16385  1.0000
  H   H54       1.0  0.37923  0.33524  0.10409  1.0000
  S   S40       1.0  0.32291  0.48406  0.10315  1.0000
  S   S41       1.0  0.42631  0.25639  0.18410  1.0000
  H   H55       1.0  0.49435  0.36881  0.14723  1.0000
  H   H56       1.0  0.35297  0.04142  0.07364  1.0000
  H   H57       1.0  0.30834  0.24437  0.17049  1.0000
  S   S42       1.0  0.09763  0.44203  0.98941  1.0000
  H   H58       1.0  0.13261  0.48602  0.04854  1.0000
  H   H59       1.0  0.48732  0.08861  0.06838  1.0000
  H   H60       1.0  0.50091  0.06676  0.09954  1.0000
  Fe  Fe21      1.0  0.08981  0.48167  0.01922  1.0000
  H   H61       1.0  0.49055  0.01107  0.05348  1.0000
  H   H62       1.0  0.46232  0.08918  0.09549  1.0000
  H   H63       1.0  0.47551  0.09907  0.99761  1.0000
  C   C60       1.0  0.36408  0.02541  0.99815  1.0000
  C   C61       1.0  0.49455  0.12563  0.99370  1.0000
  C   C62       1.0  0.21688  0.45398  0.17928  1.0000
  C   C63       1.0  0.26188  0.45500  0.07042  1.0000
  C   C64       1.0  0.37446  0.01792  0.07164  1.0000
  H   H64       1.0  0.38919  0.01556  0.06811  1.0000
  H   H65       1.0  0.26139  0.47294  0.09934  1.0000
  H   H66       1.0  0.45982  0.11192  0.09485  1.0000
  C   C65       1.0  0.50203  0.04272  0.04078  1.0000
  H   H67       1.0  0.32951  0.24414  0.17384  1.0000
  H   H68       1.0  0.04606  0.42548  0.07597  1.0000
  S   S43       1.0  0.49420  0.20864  0.09084  1.0000
  H   H69       1.0  0.37420  0.01354  0.00123  1.0000
  C   C66       1.0  0.41844  0.10542  0.99198  1.0000
  C   C67       1.0  0.47655  0.27797  0.14734  1.0000
  H   H70       1.0  0.45737  0.09445  0.07405  1.0000
  H   H71       1.0  0.47793  0.31386  0.05563  1.0000
  S   S44       1.0  0.11207  0.45958  0.01319  1.0000
  H   H72       1.0  0.39843  0.01489  0.98563  1.0000
  C   C68       1.0  0.47233  0.26066  0.14629  1.0000
  C   C69       1.0  0.46335  0.22747  0.14524  1.0000
  C   C70       1.0  0.47664  0.24778  0.16822  1.0000
  C   C71       1.0  0.47294  0.29298  0.13599  1.0000
  C   C72       1.0  0.44863  0.21702  0.14824  1.0000
  H   H73       1.0  0.47788  0.25891  0.13638  1.0000
  H   H74       1.0  0.45745  0.26379  0.14751  1.0000
  H   H75       1.0  0.45982  0.23963  0.13806  1.0000
  H   H76       1.0  0.45877  0.29550  0.13510  1.0000
  H   H77       1.0  0.49265  0.03785  0.02607  1.0000
  H   H78       1.0  0.47720  0.18327  0.04588  1.0000
  H   H79       1.0  0.43543  0.22480  0.15233  1.0000
  H   H80       1.0  0.45186  0.20426  0.15503  1.0000
  C   C73       1.0  0.26207  0.44277  0.15173  1.0000
  H   H81       1.0  0.14750  0.39200  0.16616  1.0000
  H   H82       1.0  0.49399  0.16650  0.10590  1.0000
  C   C74       1.0  0.27851  0.43603  0.15548  1.0000
  H   H83       1.0  0.34570  0.29067  0.16200  1.0000
  C   C75       1.0  0.47739  0.19748  0.04160  1.0000
  H   H84       1.0  0.32705  0.39251  0.15727  1.0000
  H   H85       1.0  0.33942  0.21337  0.17036  1.0000
  H   H86       1.0  0.47604  0.07481  0.98832  1.0000
  H   H87       1.0  0.46755  0.13701  0.08280  1.0000
  H   H88       1.0  0.37241  0.25099  0.10537  1.0000
  H   H89       1.0  0.47048  0.13182  0.00848  1.0000
  C   C76       1.0  0.50095  0.39278  0.11956  1.0000
  H   H90       1.0  0.42098  0.08233  0.00714  1.0000
  H   H91       1.0  0.39921  0.25937  0.13355  1.0000
  H   H92       1.0  0.23624  0.43776  0.15285  1.0000
  C   C77       1.0  0.44685  0.03684  0.01671  1.0000
  C   C78       1.0  0.28147  0.41943  0.16376  1.0000
  H   H93       1.0  0.47003  0.29624  0.06795  1.0000
  C   C79       1.0  0.36977  0.28147  0.14016  1.0000
  H   H94       1.0  0.47229  0.32895  0.16111  1.0000
  H   H95       1.0  0.42997  0.12150  0.08841  1.0000
  H   H96       1.0  0.42238  0.06146  0.99399  1.0000
  H   H97       1.0  0.50037  0.00916  0.02975  1.0000
  H   H98       1.0  0.36322  0.33819  0.11869  1.0000
  H   H99       1.0  0.48536  0.25692  0.16745  1.0000
  H   H100      1.0  0.49042  0.15848  0.99554  1.0000
  H   H101      1.0  0.46051  0.20944  0.01374  1.0000
  C   C80       1.0  0.39928  0.27267  0.12710  1.0000
  C   C81       1.0  0.24642  0.45623  0.08008  1.0000
  C   C82       1.0  0.45388  0.23707  0.00551  1.0000
  H   H102      1.0  0.21346  0.48221  0.17457  1.0000
  H   H103      1.0  0.38162  0.30943  0.12740  1.0000
  H   H104      1.0  0.34768  0.30481  0.13954  1.0000
  C   C83       1.0  0.49942  0.28577  0.07947  1.0000
  C   C84       1.0  0.46335  0.35690  0.16076  1.0000
  H   H105      1.0  0.45786  0.35937  0.15218  1.0000
  H   H106      1.0  0.46830  0.36872  0.16041  1.0000
  H   H107      1.0  0.36647  0.19549  0.17615  1.0000
  C   C85       1.0  0.32910  0.34885  0.15681  1.0000
  C   C86       1.0  0.30874  0.34936  0.15934  1.0000
  C   C87       1.0  0.30560  0.33333  0.15601  1.0000
  H   H108      1.0  0.17183  0.34296  0.16795  1.0000
  H   H109      1.0  0.35514  0.36535  0.14211  1.0000
  H   H110      1.0  0.33467  0.34784  0.14673  1.0000
  H   H111      1.0  0.33524  0.33595  0.16242  1.0000
  H   H112      1.0  0.30170  0.36140  0.15357  1.0000
  H   H113      1.0  0.36754  0.03724  0.99938  1.0000
  H   H114      1.0  0.32205  0.37617  0.13674  1.0000
  H   H115      1.0  0.36538  0.33547  0.15484  1.0000
  H   H116      1.0  0.31212  0.32084  0.16172  1.0000
  H   H117      1.0  0.29097  0.33370  0.15818  1.0000
  H   H118      1.0  0.31104  0.33336  0.14580  1.0000
  S   S45       1.0  0.03575  0.45850  0.04424  1.0000
  C   C88       1.0  0.26150  0.46813  0.09120  1.0000
  N   N1        1.0  0.41740  0.42891  0.09698  1.0000
  C   C89       1.0  0.40897  0.44819  0.09707  1.0000
  C   C90       1.0  0.43665  0.42751  0.08974  1.0000
  C   C91       1.0  0.40747  0.42275  0.08976  1.0000
  C   C92       1.0  0.41639  0.41718  0.11011  1.0000
  C   C93       1.0  0.41646  0.42565  0.12101  1.0000
  C   C94       1.0  0.38828  0.45247  0.10199  1.0000
  C   C95       1.0  0.41465  0.40344  0.08777  1.0000
  C   C96       1.0  0.44956  0.43261  0.09568  1.0000
  H   H119      1.0  0.48277  0.15299  0.06291  1.0000
  C   C97       1.0  0.41786  0.41171  0.13326  1.0000
  C   C98       1.0  0.38169  0.47053  0.10563  1.0000
  C   C99       1.0  0.40202  0.39815  0.08195  1.0000
  H   H120      1.0  0.41172  0.45647  0.08731  1.0000
  H   H121      1.0  0.41517  0.45340  0.10266  1.0000
  H   H122      1.0  0.44292  0.41368  0.08875  1.0000
  H   H123      1.0  0.43716  0.43559  0.07991  1.0000
  H   H124      1.0  0.40724  0.43173  0.08025  1.0000
  H   H125      1.0  0.39317  0.42341  0.09481  1.0000
  H   H126      1.0  0.40396  0.41187  0.11316  1.0000
  H   H127      1.0  0.42758  0.40523  0.10995  1.0000
  H   H128      1.0  0.40379  0.43554  0.12306  1.0000
  H   H129      1.0  0.42771  0.43249  0.11870  1.0000
  H   H130      1.0  0.38141  0.45279  0.09448  1.0000
  H   H131      1.0  0.38398  0.44225  0.11033  1.0000
  H   H132      1.0  0.41587  0.39395  0.09690  1.0000
  H   H133      1.0  0.42795  0.40198  0.08115  1.0000
  H   H134      1.0  0.44443  0.44606  0.09771  1.0000
  H   H135      1.0  0.45163  0.42279  0.10455  1.0000
  H   H136      1.0  0.46019  0.01658  0.98732  1.0000
  H   H137      1.0  0.48125  0.33603  0.17120  1.0000
  H   H138      1.0  0.28877  0.45954  0.06346  1.0000
  H   H139      1.0  0.40670  0.40456  0.13609  1.0000
  H   H140      1.0  0.43083  0.40198  0.13208  1.0000
  H   H141      1.0  0.41710  0.41824  0.14100  1.0000
  H   H142      1.0  0.50070  0.32573  0.11794  1.0000
  H   H143      1.0  0.37133  0.01249  0.08197  1.0000
  H   H144      1.0  0.47423  0.02740  0.01859  1.0000
  H   H145      1.0  0.38843  0.39898  0.08821  1.0000
  H   H146      1.0  0.40094  0.40692  0.07253  1.0000
  H   H147      1.0  0.40730  0.38426  0.08074  1.0000
  N   N2        1.0  0.06969  0.42846  0.08063  1.0000
  H   H148      1.0  0.49330  0.35903  0.17100  1.0000
  C   C100      1.0  0.06260  0.42543  0.09474  1.0000
  H   H149      1.0  0.47530  0.30534  0.13729  1.0000
  C   C101      1.0  0.08979  0.42163  0.07800  1.0000
  C   C102      1.0  0.09650  0.40142  0.08268  1.0000
  H   H150      1.0  0.48420  0.20054  0.11853  1.0000
  C   C103      1.0  0.35432  0.18164  0.16205  1.0000
  C   C104      1.0  0.04210  0.43243  0.09907  1.0000
  C   C105      1.0  0.03689  0.43144  0.11334  1.0000
  C   C106      1.0  0.11690  0.39604  0.07848  1.0000
  H   H151      1.0  0.06771  0.43189  0.05505  1.0000
  H   H152      1.0  0.45594  0.01782  0.07006  1.0000
  C   C107      1.0  0.14486  0.40365  0.17045  1.0000
  H   H153      1.0  0.06077  0.40513  0.08067  1.0000
  H   H154      1.0  0.06511  0.41101  0.09907  1.0000
  H   H155      1.0  0.07007  0.43112  0.09923  1.0000
  H   H156      1.0  0.11047  0.46859  0.07269  1.0000
  H   H157      1.0  0.38563  0.48118  0.09745  1.0000
  H   H158      1.0  0.09561  0.42511  0.06768  1.0000
  H   H159      1.0  0.09634  0.42833  0.08242  1.0000
  H   H160      1.0  0.09050  0.39353  0.07887  1.0000
  H   H161      1.0  0.09321  0.39769  0.09317  1.0000
  H   H162      1.0  0.33529  0.03510  0.00441  1.0000
  H   H163      1.0  0.49773  0.14269  0.10822  1.0000
  C   C108      1.0  0.48893  0.14957  0.07128  1.0000
  H   H164      1.0  0.38778  0.35184  0.13914  1.0000
  H   H165      1.0  0.03763  0.44637  0.09428  1.0000
  H   H166      1.0  0.03448  0.42423  0.09693  1.0000
  C   C109      1.0  0.49858  0.19948  0.11559  1.0000
  H   H167      1.0  0.13202  0.42050  0.15529  1.0000
  C   C110      1.0  0.47833  0.33973  0.16156  1.0000
  H   H168      1.0  0.12151  0.38166  0.08225  1.0000
  H   H169      1.0  0.12095  0.39860  0.06798  1.0000
  H   H170      1.0  0.12368  0.40356  0.08206  1.0000
  C   C111      1.0  0.48636  0.04259  0.03499  1.0000
  C   C112      1.0  0.49007  0.15280  0.12528  1.0000
  H   H171      1.0  0.48959  0.14584  0.01116  1.0000
  H   H172      1.0  0.48530  0.11905  0.06648  1.0000
  H   H173      1.0  0.31843  0.21149  0.16896  1.0000
  H   H174      1.0  0.06055  0.46130  0.09036  1.0000
  H   H175      1.0  0.37467  0.04360  0.07448  1.0000
  H   H176      1.0  0.32586  0.18161  0.16665  1.0000
  H   H177      1.0  0.08383  0.45599  0.08300  1.0000
  H   H178      1.0  0.29398  0.41446  0.16697  1.0000
  C   C113      1.0  0.49010  0.00259  0.03676  1.0000
  H   H179      1.0  0.46779  0.28232  0.15597  1.0000
  C   C114      1.0  0.48099  0.23171  0.17909  1.0000
  H   H180      1.0  0.49618  0.47408  0.13166  1.0000
  H   H181      1.0  0.44263  0.02400  0.02082  1.0000
  C   C115      1.0  0.48401  0.10841  0.04105  1.0000
  H   H182      1.0  0.01038  0.43247  0.06578  1.0000
  C   C116      1.0  0.48177  0.13991  0.03877  1.0000
  C   C117      1.0  0.05694  0.40945  0.05636  1.0000
  H   H183      1.0  0.47494  0.03860  0.06035  1.0000
  H   H184      1.0  0.48177  0.35525  0.13635  1.0000
  H   H185      1.0  0.41362  0.00411  0.03493  1.0000
  H   H186      1.0  0.22008  0.47587  0.14236  1.0000
  H   H187      1.0  0.43067  0.09786  0.09225  1.0000
  H   H188      1.0  0.48400  0.33224  0.13915  1.0000
  H   H189      1.0  0.47545  0.15447  0.12601  1.0000
  H   H190      1.0  0.02147  0.44141  0.01022  1.0000
  Fe  Fe22      1.0  0.29983  0.47442  0.10104  1.0000
  H   H191      1.0  0.34244  0.01114  0.00692  1.0000
  H   H192      1.0  0.28874  0.44384  0.15229  1.0000
  H   H193      1.0  0.04039  0.42378  0.99659  1.0000
  C   C118      1.0  0.47996  0.38547  0.10573  1.0000
  C   C119      1.0  0.43413  0.10925  0.08458  1.0000
  Fe  Fe23      1.0  0.22389  0.36679  0.17003  1.0000
  H   H194      1.0  0.26226  0.44966  0.06245  1.0000
  H   H195      1.0  0.44176  0.15879  0.03435  1.0000
  H   H196      1.0  0.45147  0.25020  0.00791  1.0000
  H   H197      1.0  0.12624  0.42937  0.16932  1.0000
  C   C120      1.0  0.44785  0.35543  0.17232  1.0000
  H   H198      1.0  0.39667  0.33712  0.15236  1.0000
  H   H199      1.0  0.44193  0.23613  0.00254  1.0000
  H   H200      1.0  0.29228  0.28053  0.18311  1.0000
  H   H201      1.0  0.47389  0.41906  0.08446  1.0000
  H   H202      1.0  0.36767  0.34501  0.16695  1.0000
  C   C121      1.0  0.14091  0.39788  0.18518  1.0000
  H   H203      1.0  0.35035  0.25592  0.11544  1.0000
  H   H204      1.0  0.47987  0.07585  0.10894  1.0000
  H   H205      1.0  0.47602  0.21922  0.14091  1.0000
  H   H206      1.0  0.33798  0.34700  0.17775  1.0000
  H   H207      1.0  0.29569  0.40093  0.14160  1.0000
  C   C122      1.0  0.49168  0.20213  0.04619  1.0000
  H   H208      1.0  0.34696  0.02300  0.01689  1.0000
  H   H209      1.0  0.44751  0.21401  0.13942  1.0000
  C   C123      1.0  0.45426  0.10581  0.07872  1.0000
  C   C124      1.0  0.36579  0.00999  0.06424  1.0000
  C   C125      1.0  0.06854  0.47938  0.07308  1.0000
  H   H210      1.0  0.15675  0.40971  0.16653  1.0000
  H   H211      1.0  0.48167  0.19893  0.03121  1.0000
  H   H212      1.0  0.41622  0.27734  0.16075  1.0000
  H   H213      1.0  0.37550  0.28749  0.14557  1.0000
  H   H214      1.0  0.48479  0.16129  0.07569  1.0000
  C   C126      1.0  0.32696  0.20900  0.17596  1.0000
  C   C127      1.0  0.36564  0.31327  0.11338  1.0000
  C   C128      1.0  0.49795  0.38642  0.10037  1.0000
  C   C129      1.0  0.24891  0.43263  0.15581  1.0000
  H   H215      1.0  0.22794  0.47114  0.16242  1.0000
  H   H216      1.0  0.35770  0.37602  0.15328  1.0000
  C   C130      1.0  0.21365  0.48995  0.14264  1.0000
  H   H217      1.0  0.40655  0.26987  0.11765  1.0000
  C   C131      1.0  0.27697  0.46678  0.08150  1.0000
  C   C132      1.0  0.44157  0.30330  0.17200  1.0000
  H   H218      1.0  0.48702  0.13240  0.08954  1.0000
  H   H219      1.0  0.36679  0.47338  0.10859  1.0000
  C   C133      1.0  0.42939  0.27738  0.17518  1.0000
  H   H220      1.0  0.02214  0.43615  0.11624  1.0000
  H   H221      1.0  0.23427  0.46417  0.09783  1.0000
  C   C134      1.0  0.46534  0.23178  0.15745  1.0000
  H   H222      1.0  0.48772  0.13589  0.98663  1.0000
  C   C135      1.0  0.46755  0.11146  0.00065  1.0000
  C   C136      1.0  0.31598  0.24124  0.17807  1.0000
  H   H223      1.0  0.05657  0.39588  0.06218  1.0000
  C   C137      1.0  0.25211  0.41582  0.16373  1.0000
  H   H224      1.0  0.31115  0.41493  0.13982  1.0000
  S   S46       1.0  0.38080  0.26787  0.17261  1.0000
  C   C138      1.0  0.46452  0.03983  0.05505  1.0000
  H   H225      1.0  0.30868  0.38252  0.15967  1.0000
  C   C139      1.0  0.49130  0.34249  0.13883  1.0000
  H   H226      1.0  0.48814  0.20044  0.05666  1.0000
  C   C140      1.0  0.44977  0.03104  0.06495  1.0000
  H   H227      1.0  0.45167  0.23771  0.16245  1.0000
  H   H228      1.0  0.21836  0.44271  0.17486  1.0000
  C   C141      1.0  0.43990  0.04216  0.07486  1.0000
  C   C142      1.0  0.49939  0.13647  0.04037  1.0000
  S   S47       1.0  0.19523  0.47774  0.10158  1.0000
  H   H229      1.0  0.00492  0.41221  0.99468  1.0000
  H   H230      1.0  0.48203  0.28972  0.12709  1.0000
  H   H231      1.0  0.45887  0.05434  0.05225  1.0000
  H   H232      1.0  0.39328  0.30299  0.11294  1.0000
  C   C143      1.0  0.32301  0.38180  0.15478  1.0000
  C   C144      1.0  0.49682  0.23408  0.15045  1.0000
  C   C145      1.0  0.32380  0.38707  0.14031  1.0000
  C   C146      1.0  0.07010  0.46056  0.08115  1.0000
  C   C147      1.0  0.33393  0.36136  0.17344  1.0000
  S   S48       1.0  0.06929  0.47419  0.01238  1.0000
  H   H233      1.0  0.43973  0.02918  0.06049  1.0000
  C   C148      1.0  0.49252  0.08498  0.07723  1.0000
  H   H234      1.0  0.49300  0.21602  0.04177  1.0000
  H   H235      1.0  0.35424  0.19582  0.15784  1.0000
  C   C149      1.0  0.46804  0.43233  0.08680  1.0000
  N   N3        1.0  0.33445  0.36402  0.15945  1.0000
  H   H236      1.0  0.31240  0.38358  0.17910  1.0000
  H   H237      1.0  0.44943  0.04389  0.07988  1.0000
  H   H238      1.0  0.43293  0.05540  0.07032  1.0000
  H   H239      1.0  0.42961  0.03548  0.08189  1.0000
  H   H240      1.0  0.49411  0.29502  0.08612  1.0000
  H   H241      1.0  0.43538  0.04794  0.01873  1.0000
  C   C150      1.0  0.27691  0.46060  0.07099  1.0000
  N   N4        1.0  0.48544  0.09983  0.08431  1.0000
  H   H242      1.0  0.43697  0.36749  0.17119  1.0000
  H   H243      1.0  0.04367  0.44002  0.11592  1.0000
  H   H244      1.0  0.24198  0.40806  0.16670  1.0000
  H   H245      1.0  0.49035  0.17313  0.01746  1.0000
  H   H246      1.0  0.45096  0.03814  0.00633  1.0000
  H   H247      1.0  0.44221  0.34374  0.17336  1.0000
  Fe  Fe24      1.0  0.17538  0.46156  0.11405  1.0000
  C   C151      1.0  0.34602  0.02353  0.00710  1.0000
  N   N5        1.0  0.44354  0.20853  0.03992  1.0000
  C   C152      1.0  0.44641  0.19052  0.03702  1.0000
  C   C153      1.0  0.45856  0.20912  0.04571  1.0000
  C   C154      1.0  0.42611  0.21131  0.04958  1.0000
  C   C155      1.0  0.44193  0.22329  0.02838  1.0000
  C   C156      1.0  0.45782  0.22209  0.01682  1.0000
  C   C157      1.0  0.43117  0.18724  0.03224  1.0000
  C   C158      1.0  0.42132  0.22851  0.05477  1.0000
  C   C159      1.0  0.15384  0.47013  0.03743  1.0000
  C   C160      1.0  0.35715  0.17254  0.15112  1.0000
  C   C161      1.0  0.48086  0.01279  0.04746  1.0000
  C   C162      1.0  0.43725  0.17035  0.02703  1.0000
  C   C163      1.0  0.40550  0.22808  0.06615  1.0000
  H   H248      1.0  0.44828  0.18006  0.04567  1.0000
  H   H249      1.0  0.45905  0.18757  0.03000  1.0000
  H   H250      1.0  0.46008  0.22302  0.04408  1.0000
  H   H251      1.0  0.45520  0.20458  0.05621  1.0000
  H   H252      1.0  0.42623  0.19984  0.05779  1.0000
  H   H253      1.0  0.41450  0.21172  0.04563  1.0000
  H   H254      1.0  0.42934  0.22459  0.02527  1.0000
  H   H255      1.0  0.44054  0.23626  0.03076  1.0000
  H   H256      1.0  0.47728  0.43519  0.09152  1.0000
  H   H257      1.0  0.37005  0.17440  0.14442  1.0000
  H   H258      1.0  0.41939  0.18555  0.04019  1.0000
  H   H259      1.0  0.42683  0.19831  0.02458  1.0000
  H   H260      1.0  0.41743  0.24028  0.04737  1.0000
  H   H261      1.0  0.43268  0.23040  0.05789  1.0000
  C   C164      1.0  0.36786  0.34741  0.15671  1.0000
  H   H262      1.0  0.07867  0.47958  0.06404  1.0000
  H   H263      1.0  0.46557  0.23608  0.99740  1.0000
  H   H264      1.0  0.07383  0.45010  0.06463  1.0000
  H   H265      1.0  0.04067  0.41757  0.11861  1.0000
  N   N6        1.0  0.47258  0.03214  0.04336  1.0000
  H   H266      1.0  0.11670  0.41132  0.16907  1.0000
  H   H267      1.0  0.20043  0.46258  0.15960  1.0000
  C   C165      1.0  0.31605  0.36890  0.18199  1.0000
  H   H268      1.0  0.42584  0.16788  0.02424  1.0000
  H   H269      1.0  0.44842  0.17160  0.01858  1.0000
  H   H270      1.0  0.40896  0.21676  0.07399  1.0000
  H   H271      1.0  0.40227  0.24052  0.06965  1.0000
  H   H272      1.0  0.39343  0.22684  0.06349  1.0000
  H   H273      1.0  0.48456  0.11047  0.01290  1.0000
  C   C166      1.0  0.48246  0.13376  0.08076  1.0000
  C   C167      1.0  0.33679  0.17887  0.17189  1.0000
  C   C168      1.0  0.06055  0.41897  0.07514  1.0000
  C   C169      1.0  0.36453  0.24879  0.11527  1.0000
  H   H274      1.0  0.35548  0.34056  0.10452  1.0000
  H   H275      1.0  0.49495  0.13983  0.13132  1.0000
  C   C170      1.0  0.19898  0.47460  0.16329  1.0000
  N   N7        1.0  0.49540  0.34050  0.15157  1.0000
  C   C171      1.0  0.38680  0.34943  0.14949  1.0000
  H   H276      1.0  0.30235  0.34900  0.16938  1.0000
  H   H277      1.0  0.49188  0.34925  0.11314  1.0000
  S   S49       1.0  0.30330  0.48013  0.13342  1.0000
  H   H278      1.0  0.14430  0.46456  0.03478  1.0000
  S   S50       1.0  0.25346  0.35683  0.16864  1.0000
  H   H279      1.0  0.42640  0.11111  0.07724  1.0000
  C   C172      1.0  0.42926  0.26897  0.13270  1.0000
  H   H280      1.0  0.40469  0.28543  0.14049  1.0000
  C   C173      1.0  0.46540  0.10168  0.08900  1.0000
  H   H281      1.0  0.35211  0.31177  0.11896  1.0000
  H   H282      1.0  0.36427  0.25268  0.13349  1.0000
  H   H283      1.0  0.38635  0.24692  0.12371  1.0000
  H   H284      1.0  0.36762  0.30895  0.10439  1.0000
  H   H285      1.0  0.35102  0.01542  0.06651  1.0000
  C   C174      1.0  0.38085  0.30223  0.12041  1.0000
  C   C175      1.0  0.48993  0.11664  0.07542  1.0000
  H   H286      1.0  0.38725  0.47056  0.11371  1.0000
  H   H287      1.0  0.37121  0.26730  0.14516  1.0000
  H   H288      1.0  0.15863  0.46070  0.04572  1.0000
  H   H289      1.0  0.08216  0.41067  0.05937  1.0000
  C   C176      1.0  0.37295  0.27508  0.11892  1.0000
  H   H290      1.0  0.31037  0.40698  0.12650  1.0000
  H   H291      1.0  0.49419  0.18554  0.00123  1.0000
  H   H292      1.0  0.06450  0.43038  0.00388  1.0000
  H   H293      1.0  0.43816  0.27644  0.13416  1.0000
  H   H294      1.0  0.32557  0.29129  0.15712  1.0000
  H   H295      1.0  0.41431  0.29342  0.12415  1.0000
  C   C177      1.0  0.34017  0.28541  0.15601  1.0000
  H   H296      1.0  0.16542  0.47148  0.02930  1.0000
  C   C178      1.0  0.05240  0.42676  0.98987  1.0000
  H   H297      1.0  0.37055  0.01594  0.05407  1.0000
  C   C179      1.0  0.06808  0.41833  0.06098  1.0000
  H   H298      1.0  0.49200  0.16362  0.12888  1.0000
  H   H299      1.0  0.35777  0.15809  0.15467  1.0000
  H   H300      1.0  0.35462  0.00865  0.04369  1.0000
  H   H301      1.0  0.45870  0.38725  0.12223  1.0000
  C   C180      1.0  0.35367  0.36415  0.15245  1.0000
  H   H302      1.0  0.46278  0.25507  0.17150  1.0000
  H   H303      1.0  0.45113  0.02260  0.04036  1.0000
  C   C181      1.0  0.30932  0.40346  0.13691  1.0000
  C   C182      1.0  0.26821  0.40935  0.16795  1.0000
  C   C183      1.0  0.47928  0.12007  0.00490  1.0000
  C   C184      1.0  0.36763  0.03803  0.06965  1.0000
  C   C185      1.0  0.35908  0.99400  0.04544  1.0000
  H   H304      1.0  0.05491  0.48466  0.07097  1.0000
  H   H305      1.0  0.34188  0.27081  0.15936  1.0000
  C   C186      1.0  0.42315  0.28464  0.16393  1.0000
  H   H306      1.0  0.01566  0.41409  0.07854  1.0000
  H   H307      1.0  0.17610  0.38455  0.17355  1.0000
  H   H308      1.0  0.37033  0.04438  0.05941  1.0000
  H   H309      1.0  0.16222  0.48676  0.05280  1.0000
  H   H310      1.0  0.47413  0.15340  0.03716  1.0000
  H   H311      1.0  0.46573  0.05071  0.01780  1.0000
  H   H312      1.0  0.46959  0.21869  0.16363  1.0000
  C   C187      1.0  0.36595  0.33299  0.10998  1.0000
  H   H313      1.0  0.34614  0.17843  0.14586  1.0000
  C   C188      1.0  0.42018  0.08729  0.99730  1.0000
  C   C189      1.0  0.00228  0.46022  0.04061  1.0000
  H   H314      1.0  0.35908  0.28214  0.11805  1.0000
  C   C190      1.0  0.41125  0.28148  0.13133  1.0000
  H   H315      1.0  0.39035  0.36064  0.15163  1.0000
  N   N8        1.0  0.38029  0.28305  0.12667  1.0000
  C   C191      1.0  0.37258  0.25514  0.12376  1.0000
  H   H316      1.0  0.34267  0.28572  0.13653  1.0000
  C   C192      1.0  0.47250  0.38809  0.11805  1.0000
  H   H317      1.0  0.36490  0.23437  0.11867  1.0000
  N   N9        1.0  0.47815  0.24372  0.15556  1.0000
  H   H318      1.0  0.38105  0.27672  0.10903  1.0000
  C   C193      1.0  0.34954  0.29016  0.14212  1.0000
  H   H319      1.0  0.06299  0.40838  0.04638  1.0000
  C   C194      1.0  0.06590  0.44796  0.07450  1.0000
  H   H320      1.0  0.43585  0.26374  0.12397  1.0000
  N   N10       1.0  0.24736  0.40455  0.11574  1.0000
  C   C195      1.0  0.25526  0.39438  0.12712  1.0000
  C   C196      1.0  0.23494  0.42154  0.11870  1.0000
  C   C197      1.0  0.23601  0.39353  0.11373  1.0000
  C   C198      1.0  0.26149  0.40833  0.10379  1.0000
  C   C199      1.0  0.27963  0.41056  0.10541  1.0000
  C   C200      1.0  0.26568  0.37511  0.12647  1.0000
  C   C201      1.0  0.22457  0.40267  0.10356  1.0000
  C   C202      1.0  0.24333  0.43447  0.12205  1.0000
  C   C203      1.0  0.22883  0.44986  0.12626  1.0000
  C   C204      1.0  0.29182  0.41607  0.09261  1.0000
  C   C205      1.0  0.27969  0.36864  0.13468  1.0000
  C   C206      1.0  0.21625  0.38949  0.10068  1.0000
  H   H321      1.0  0.24442  0.39355  0.13588  1.0000
  H   H322      1.0  0.26427  0.40145  0.12890  1.0000
  H   H323      1.0  0.22895  0.42943  0.11044  1.0000
  H   H324      1.0  0.22349  0.41847  0.12663  1.0000
  H   H325      1.0  0.22664  0.38916  0.12278  1.0000
  H   H326      1.0  0.24459  0.38113  0.11092  1.0000
  H   H327      1.0  0.26506  0.39755  0.09847  1.0000
  H   H328      1.0  0.25599  0.42045  0.09713  1.0000
  H   H329      1.0  0.28705  0.39788  0.11028  1.0000
  H   H330      1.0  0.27772  0.42059  0.11101  1.0000
  H   H331      1.0  0.25603  0.36613  0.12991  1.0000
  H   H332      1.0  0.27268  0.37392  0.11664  1.0000
  H   H333      1.0  0.23279  0.40884  0.09459  1.0000
  H   H334      1.0  0.21328  0.41308  0.10703  1.0000
  H   H335      1.0  0.25054  0.42814  0.12987  1.0000
  H   H336      1.0  0.25268  0.44018  0.11360  1.0000
  H   H337      1.0  0.23548  0.45964  0.12729  1.0000
  H   H338      1.0  0.22022  0.45635  0.11926  1.0000
  H   H339      1.0  0.22029  0.44528  0.13554  1.0000
  H   H340      1.0  0.28515  0.42880  0.08729  1.0000
  H   H341      1.0  0.30450  0.41792  0.09404  1.0000
  H   H342      1.0  0.29515  0.40580  0.08691  1.0000
  H   H343      1.0  0.28535  0.35427  0.13516  1.0000
  H   H344      1.0  0.29078  0.37588  0.13061  1.0000
  H   H345      1.0  0.27351  0.37078  0.14441  1.0000
  H   H346      1.0  0.20775  0.39658  0.09365  1.0000
  H   H347      1.0  0.22689  0.37904  0.09664  1.0000
  H   H348      1.0  0.20765  0.38323  0.10943  1.0000
  C   C207      1.0  0.49812  0.29685  0.06597  1.0000
  H   H349      1.0  0.48665  0.10599  0.10162  1.0000
  C   C208      1.0  0.16500  0.36078  0.18084  1.0000
  H   H350      1.0  0.47327  0.31534  0.07198  1.0000
  C   C209      1.0  0.12891  0.41702  0.16581  1.0000
  C   C210      1.0  0.47864  0.30610  0.06537  1.0000
  H   H351      1.0  0.49278  0.30377  0.15851  1.0000
  H   H352      1.0  0.18691  0.47488  0.17115  1.0000
  Fe  Fe25      1.0  0.25008  0.37387  0.18225  1.0000
  C   C211      1.0  0.18096  0.49081  0.14769  1.0000
  C   C212      1.0  0.17656  0.35418  0.16906  1.0000
  H   H353      1.0  0.18291  0.40780  0.17597  1.0000
  H   H354      1.0  0.49058  0.27635  0.14800  1.0000
  H   H355      1.0  0.48732  0.07298  0.08287  1.0000
  H   H356      1.0  0.48872  0.27036  0.10493  1.0000
  H   H357      1.0  0.48960  0.27719  0.08198  1.0000
  H   H358      1.0  0.19079  0.34943  0.16991  1.0000
  C   C213      1.0  0.49379  0.07765  0.10458  1.0000
  C   C214      1.0  0.49381  0.09617  0.09560  1.0000
  S   S51       1.0  0.22082  0.38539  0.18257  1.0000
  H   H359      1.0  0.22902  0.45173  0.18316  1.0000
  H   H360      1.0  0.14966  0.48437  0.14470  1.0000
  H   H361      1.0  0.34398  0.36778  0.17475  1.0000
  H   H362      1.0  0.48956  0.24151  0.11979  1.0000
  H   H363      1.0  0.23919  0.48715  0.11983  1.0000
  H   H364      1.0  0.49143  0.04597  0.99752  1.0000
  H   H365      1.0  0.45984  0.05307  0.98629  1.0000
  H   H366      1.0  0.49625  0.08572  0.12100  1.0000
  C   C215      1.0  0.14437  0.48813  0.04071  1.0000
  H   H367      1.0  0.46162  0.12067  0.99275  1.0000
  C   C216      1.0  0.49903  0.14912  0.00194  1.0000
  C   C217      1.0  0.49948  0.25892  0.10237  1.0000
  H   H368      1.0  0.49458  0.25241  0.09686  1.0000
  H   H369      1.0  0.44864  0.31048  0.17520  1.0000
  H   H370      1.0  0.39351  0.99183  0.05182  1.0000
  S   S52       1.0  0.27178  0.38889  0.17864  1.0000
  C   C218      1.0  0.43882  0.28661  0.17910  1.0000
  H   H371      1.0  0.33923  0.16441  0.17609  1.0000
  H   H372      1.0  0.49706  0.05018  0.04849  1.0000
  H   H373      1.0  0.49480  0.22386  0.17649  1.0000
  H   H374      1.0  0.49763  0.23142  0.14109  1.0000
  H   H375      1.0  0.18776  0.43495  0.17925  1.0000
  H   H376      1.0  0.30491  0.36342  0.18163  1.0000
  N   N11       1.0  0.33080  0.18949  0.18212  1.0000
  H   H377      1.0  0.50008  0.22068  0.15657  1.0000
  H   H378      1.0  0.34879  0.99321  0.02958  1.0000
  H   H379      1.0  0.15081  0.36446  0.17986  1.0000
  H   H380      1.0  0.50083  0.25426  0.07294  1.0000
  C   C219      1.0  0.50001  0.15363  0.11148  1.0000
  H   H381      1.0  0.16198  0.42381  0.17887  1.0000
  H   H382      1.0  0.03124  0.48381  0.99106  1.0000
  H   H383      1.0  0.32416  0.27813  0.18310  1.0000
  H   H384      1.0  0.30248  0.18987  0.18481  1.0000
  H   H385      1.0  0.50052  0.07007  0.00236  1.0000
  H   H386      1.0  0.30893  0.24995  0.18488  1.0000
  C   C220      1.0  0.31437  0.28987  0.18500  1.0000
  C   C221      1.0  0.29635  0.29126  0.18494  1.0000
  C   C222      1.0  0.17094  0.37656  0.18293  1.0000
  C   C223      1.0  0.17291  0.41433  0.18318  1.0000
  H   H387      1.0  0.50122  0.11426  0.98898  1.0000
  C   C224      1.0  0.50074  0.17619  0.00878  1.0000
  C   C225      1.0  0.50145  0.10500  0.04295  1.0000
  C   C226      1.0  0.47585  0.99164  0.00934  1.0000
  H   H388      1.0  0.20576  0.49083  0.12510  1.0000
  Fe  Fe26      1.0  0.33027  0.06686  0.35679  1.0000
  S   S53       1.0  0.33614  0.05337  0.34051  1.0000
  C   C227      1.0  0.38103  0.00546  0.35370  1.0000
  Fe  Fe27      1.0  0.28957  0.07002  0.36069  1.0000
  S   S54       1.0  0.29267  0.05646  0.34505  1.0000
  H   H389      1.0  0.24672  0.03004  0.33864  1.0000
  Fe  Fe28      1.0  0.31581  0.03777  0.35261  1.0000
  H   H390      1.0  0.21906  0.99949  0.32562  1.0000
  Fe  Fe29      1.0  0.31251  0.07367  0.33449  1.0000
  S   S55       1.0  0.31177  0.08605  0.31400  1.0000
  C   C228      1.0  0.03396  0.19071  0.29636  1.0000
  S   S56       1.0  0.30806  0.08861  0.34976  1.0000
  Fe  Fe30      1.0  0.05209  0.34596  0.35599  1.0000
  S   S57       1.0  0.07144  0.32689  0.36731  1.0000
  S   S58       1.0  0.05803  0.36642  0.33822  1.0000
  H   H391      1.0  0.11513  0.36180  0.33546  1.0000
  H   H392      1.0  0.07390  0.14117  0.33284  1.0000
  Fe  Fe31      1.0  0.05441  0.30743  0.36925  1.0000
  S   S59       1.0  0.06586  0.27876  0.36775  1.0000
  C   C229      1.0  0.19400  0.25420  0.24352  1.0000
  H   H393      1.0  0.31148  0.25463  0.21563  1.0000
  H   H394      1.0  0.04290  0.35806  0.29199  1.0000
  H   H395      1.0  0.19325  0.99570  0.35009  1.0000
  H   H396      1.0  0.26901  0.32745  0.21614  1.0000
  H   H397      1.0  0.02632  0.11437  0.32505  1.0000
  H   H398      1.0  0.32095  0.01850  0.33146  1.0000
  H   H399      1.0  0.09102  0.10995  0.31052  1.0000
  H   H400      1.0  0.16618  0.34951  0.18913  1.0000
  Fe  Fe32      1.0  0.36831  0.23773  0.20582  1.0000
  S   S60       1.0  0.36122  0.22171  0.22568  1.0000
  H   H401      1.0  0.11039  0.13683  0.29471  1.0000
  H   H402      1.0  0.15572  0.22277  0.25311  1.0000
  C   C230      1.0  0.21218  0.07110  0.37835  1.0000
  S   S61       1.0  0.37695  0.26314  0.20320  1.0000
  H   H403      1.0  0.01879  0.27767  0.34719  1.0000
  C   C231      1.0  0.17695  0.99332  0.32541  1.0000
  H   H404      1.0  0.05407  0.40141  0.34259  1.0000
  Fe  Fe33      1.0  0.21607  0.36228  0.19859  1.0000
  S   S62       1.0  0.19532  0.36702  0.21619  1.0000
  H   H405      1.0  0.29492  0.01323  0.30907  1.0000
  H   H406      1.0  0.20828  0.30141  0.19441  1.0000
  H   H407      1.0  0.31199  0.08326  0.37819  1.0000
  H   H408      1.0  0.27970  0.99249  0.32334  1.0000
  Fe  Fe34      1.0  0.24063  0.17778  0.27149  1.0000
  S   S63       1.0  0.23977  0.19124  0.28678  1.0000
  S   S64       1.0  0.21822  0.16424  0.27371  1.0000
  Fe  Fe35      1.0  0.27411  0.19009  0.25473  1.0000
  S   S65       1.0  0.27643  0.20405  0.26880  1.0000
  S   S66       1.0  0.29227  0.19062  0.23547  1.0000
  Fe  Fe36      1.0  0.26948  0.18007  0.28334  1.0000
  S   S67       1.0  0.28276  0.16904  0.30005  1.0000
  Fe  Fe37      1.0  0.24675  0.21375  0.27084  1.0000
  S   S68       1.0  0.23480  0.24277  0.26893  1.0000
  S   S69       1.0  0.26999  0.16511  0.26896  1.0000
  S   S70       1.0  0.24472  0.20140  0.25580  1.0000
  H   H409      1.0  0.05195  0.13240  0.32731  1.0000
  Fe  Fe38      1.0  0.05867  0.20836  0.31370  1.0000
  S   S71       1.0  0.06653  0.21536  0.32907  1.0000
  S   S72       1.0  0.06932  0.21869  0.29318  1.0000
  Fe  Fe39      1.0  0.06990  0.18646  0.33805  1.0000
  S   S73       1.0  0.09402  0.17201  0.34671  1.0000
  H   H410      1.0  0.04899  0.42214  0.34745  1.0000
  H   H411      1.0  0.20694  0.25125  0.24656  1.0000
  S   S74       1.0  0.06439  0.17927  0.32177  1.0000
  Fe  Fe40      1.0  0.20589  0.07931  0.31701  1.0000
  S   S75       1.0  0.18847  0.09691  0.33006  1.0000
  S   S76       1.0  0.23177  0.08503  0.30428  1.0000
  Fe  Fe41      1.0  0.18242  0.05195  0.32611  1.0000
  S   S77       1.0  0.16272  0.06712  0.34008  1.0000
  S   S78       1.0  0.18570  0.02507  0.32190  1.0000
  Fe  Fe42      1.0  0.16559  0.09142  0.32454  1.0000
  S   S79       1.0  0.14318  0.11285  0.31745  1.0000
  Fe  Fe43      1.0  0.18724  0.07142  0.34445  1.0000
  S   S80       1.0  0.19063  0.06752  0.36435  1.0000
  S   S81       1.0  0.18335  0.07583  0.31016  1.0000
  S   S82       1.0  0.20657  0.05430  0.33190  1.0000
  Fe  Fe44      1.0  0.12795  0.32125  0.28865  1.0000
  S   S83       1.0  0.11727  0.32303  0.27164  1.0000
  S   S84       1.0  0.12512  0.34619  0.29519  1.0000
  Fe  Fe45      1.0  0.14185  0.28163  0.29229  1.0000
  S   S85       1.0  0.13198  0.27992  0.27591  1.0000
  S   S86       1.0  0.15684  0.25662  0.30299  1.0000
  Fe  Fe46      1.0  0.14299  0.30411  0.26583  1.0000
  S   S87       1.0  0.15795  0.30306  0.24588  1.0000
  Fe  Fe47      1.0  0.10724  0.29876  0.28319  1.0000
  S   S88       1.0  0.07926  0.29706  0.28358  1.0000
  S   S89       1.0  0.15485  0.30462  0.28172  1.0000
  S   S90       1.0  0.11594  0.29828  0.30071  1.0000
  C   C232      1.0  0.07192  0.24040  0.29098  1.0000
  C   C233      1.0  0.08847  0.24344  0.29105  1.0000
  C   C234      1.0  0.09075  0.26082  0.28894  1.0000
  C   C235      1.0  0.07656  0.27520  0.28654  1.0000
  C   C236      1.0  0.05995  0.27214  0.28658  1.0000
  C   C237      1.0  0.05760  0.25474  0.28886  1.0000
  H   H412      1.0  0.09955  0.23237  0.29261  1.0000
  H   H413      1.0  0.10346  0.26306  0.28917  1.0000
  H   H414      1.0  0.04893  0.28323  0.28478  1.0000
  H   H415      1.0  0.04480  0.25240  0.28880  1.0000
  C   C238      1.0  0.10926  0.15641  0.33836  1.0000
  C   C239      1.0  0.11025  0.15834  0.32547  1.0000
  C   C240      1.0  0.12139  0.14522  0.31907  1.0000
  C   C241      1.0  0.13158  0.13001  0.32551  1.0000
  C   C242      1.0  0.13123  0.12837  0.33830  1.0000
  C   C243      1.0  0.12013  0.14163  0.34470  1.0000
  H   H416      1.0  0.10245  0.16997  0.32039  1.0000
  H   H417      1.0  0.12196  0.14674  0.30912  1.0000
  H   H418      1.0  0.13909  0.11669  0.34332  1.0000
  H   H419      1.0  0.11952  0.14014  0.35467  1.0000
  C   C244      1.0  0.21335  0.24639  0.27868  1.0000
  C   C245      1.0  0.19939  0.25866  0.27369  1.0000
  C   C246      1.0  0.18207  0.26154  0.28117  1.0000
  C   C247      1.0  0.17865  0.25252  0.29379  1.0000
  C   C248      1.0  0.19261  0.24029  0.29889  1.0000
  C   C249      1.0  0.20997  0.23706  0.29127  1.0000
  H   H420      1.0  0.20176  0.26570  0.26396  1.0000
  H   H421      1.0  0.17133  0.27058  0.27702  1.0000
  H   H422      1.0  0.19004  0.23337  0.30870  1.0000
  H   H423      1.0  0.22077  0.22761  0.29519  1.0000
  C   C250      1.0  0.22226  0.14185  0.28153  1.0000
  C   C251      1.0  0.23945  0.13288  0.28340  1.0000
  C   C252      1.0  0.24246  0.11513  0.28988  1.0000
  C   C253      1.0  0.22815  0.10648  0.29492  1.0000
  C   C254      1.0  0.21095  0.11533  0.29299  1.0000
  C   C255      1.0  0.20806  0.13295  0.28616  1.0000
  H   H424      1.0  0.25048  0.13951  0.27982  1.0000
  H   H425      1.0  0.25580  0.10830  0.29130  1.0000
  H   H426      1.0  0.19982  0.10869  0.29686  1.0000
  H   H427      1.0  0.19471  0.13981  0.28475  1.0000
  C   C256      1.0  0.18474  0.34935  0.22445  1.0000
  C   C257      1.0  0.18483  0.33622  0.21840  1.0000
  C   C258      1.0  0.17598  0.32242  0.22499  1.0000
  C   C259      1.0  0.16746  0.32138  0.23773  1.0000
  C   C260      1.0  0.16707  0.33463  0.24378  1.0000
  C   C261      1.0  0.17561  0.34871  0.23709  1.0000
  H   H428      1.0  0.19141  0.33684  0.20860  1.0000
  H   H429      1.0  0.17580  0.31242  0.22024  1.0000
  H   H430      1.0  0.16035  0.33395  0.25362  1.0000
  H   H431      1.0  0.17534  0.35895  0.24178  1.0000
  C   C262      1.0  0.03556  0.25182  0.35150  1.0000
  C   C263      1.0  0.39387  0.03183  0.35239  1.0000
  H   H432      1.0  0.36841  0.18670  0.20418  1.0000
  H   H433      1.0  0.39769  0.03910  0.35804  1.0000
  H   H434      1.0  0.15296  0.24639  0.34695  1.0000
  H   H435      1.0  0.26090  0.00887  0.33654  1.0000
  H   H436      1.0  0.05918  0.11648  0.31770  1.0000
  C   C264      1.0  0.28360  0.30662  0.18712  1.0000
  H   H437      1.0  0.04660  0.10528  0.34661  1.0000
  H   H438      1.0  0.04333  0.29196  0.32757  1.0000
  H   H439      1.0  0.07188  0.28932  0.34014  1.0000
  S   S91       1.0  0.02239  0.24161  0.34650  1.0000
  H   H440      1.0  0.36710  0.99507  0.37921  1.0000
  H   H441      1.0  0.10700  0.20529  0.34449  1.0000
  C   C265      1.0  0.02714  0.11303  0.33500  1.0000
  C   C266      1.0  0.34217  0.21291  0.22842  1.0000
  C   C267      1.0  0.33308  0.20728  0.24087  1.0000
  C   C268      1.0  0.31740  0.20090  0.24314  1.0000
  C   C269      1.0  0.31113  0.19958  0.23301  1.0000
  C   C270      1.0  0.32024  0.20515  0.22063  1.0000
  C   C271      1.0  0.33568  0.21189  0.21830  1.0000
  H   H442      1.0  0.33808  0.20801  0.24873  1.0000
  H   H443      1.0  0.31027  0.19681  0.25268  1.0000
  H   H444      1.0  0.31512  0.20436  0.21288  1.0000
  H   H445      1.0  0.34272  0.21608  0.20872  1.0000
  H   H446      1.0  0.32797  0.37064  0.19690  1.0000
  H   H447      1.0  0.00746  0.30301  0.37732  1.0000
  H   H448      1.0  0.00279  0.36876  0.32421  1.0000
  H   H449      1.0  0.07968  0.37721  0.35004  1.0000
  C   C272      1.0  0.12647  0.22098  0.32158  1.0000
  C   C273      1.0  0.07660  0.36007  0.32645  1.0000
  C   C274      1.0  0.07896  0.37146  0.31453  1.0000
  C   C275      1.0  0.09371  0.36693  0.30492  1.0000
  C   C276      1.0  0.10609  0.35086  0.30712  1.0000
  C   C277      1.0  0.10382  0.33945  0.31908  1.0000
  C   C278      1.0  0.08910  0.34411  0.32878  1.0000
  H   H450      1.0  0.06942  0.38390  0.31273  1.0000
  H   H451      1.0  0.09561  0.37592  0.29577  1.0000
  H   H452      1.0  0.11359  0.32718  0.32089  1.0000
  H   H453      1.0  0.08756  0.33548  0.33806  1.0000
  C   C279      1.0  0.05420  0.26859  0.36132  1.0000
  C   C280      1.0  0.05988  0.25041  0.36135  1.0000
  C   C281      1.0  0.05067  0.24204  0.35637  1.0000
  H   H454      1.0  0.28099  0.01278  0.34918  1.0000
  H   H455      1.0  0.32083  0.00071  0.31639  1.0000
  H   H456      1.0  0.09793  0.38091  0.33118  1.0000
  H   H457      1.0  0.07114  0.24273  0.36553  1.0000
  H   H458      1.0  0.05487  0.22794  0.35672  1.0000
  C   C282      1.0  0.30306  0.10902  0.31056  1.0000
  C   C283      1.0  0.30415  0.11995  0.31802  1.0000
  C   C284      1.0  0.29782  0.13836  0.31475  1.0000
  C   C285      1.0  0.29017  0.14590  0.30411  1.0000
  C   C286      1.0  0.28879  0.13492  0.29680  1.0000
  C   C287      1.0  0.29546  0.11657  0.29990  1.0000
  H   H459      1.0  0.31034  0.11429  0.32610  1.0000
  H   H460      1.0  0.29896  0.14678  0.32045  1.0000
  H   H461      1.0  0.28269  0.14049  0.28872  1.0000
  H   H462      1.0  0.29454  0.10820  0.29410  1.0000
  H   H463      1.0  0.12196  0.35656  0.36037  1.0000
  C   C288      1.0  0.24280  0.07120  0.35880  1.0000
  C   C289      1.0  0.22661  0.06962  0.35661  1.0000
  C   C290      1.0  0.21123  0.06962  0.36642  1.0000
  H   H464      1.0  0.11124  0.39944  0.33925  1.0000
  C   C291      1.0  0.14100  0.00407  0.33684  1.0000
  H   H465      1.0  0.25461  0.07115  0.35126  1.0000
  H   H466      1.0  0.22606  0.06835  0.34738  1.0000
  H   H467      1.0  0.01880  0.10360  0.34126  1.0000
  H   H468      1.0  0.17065  0.21453  0.30537  1.0000
  H   H469      1.0  0.14752  0.02945  0.33463  1.0000
  H   H470      1.0  0.26524  0.03318  0.35193  1.0000
  H   H471      1.0  0.02241  0.27641  0.32442  1.0000
  C   C292      1.0  0.10879  0.07094  0.34340  1.0000
  H   H472      1.0  0.07784  0.30875  0.34158  1.0000
  S   S92       1.0  0.03317  0.35600  0.37259  1.0000
  H   H473      1.0  0.20929  0.18246  0.24555  1.0000
  H   H474      1.0  0.12390  0.22108  0.35948  1.0000
  C   C293      1.0  0.01497  0.18968  0.29637  1.0000
  H   H475      1.0  0.10182  0.41719  0.35358  1.0000
  H   H476      1.0  0.09270  0.13177  0.28979  1.0000
  H   H477      1.0  0.21154  0.27875  0.20322  1.0000
  C   C294      1.0  0.00741  0.38857  0.34720  1.0000
  N   N12       1.0  0.23810  0.28736  0.22853  1.0000
  C   C295      1.0  0.24657  0.27049  0.23666  1.0000
  C   C296      1.0  0.22125  0.29668  0.23640  1.0000
  C   C297      1.0  0.23278  0.28213  0.21830  1.0000
  C   C298      1.0  0.25104  0.29952  0.22200  1.0000
  C   C299      1.0  0.25966  0.30555  0.23051  1.0000
  C   C300      1.0  0.26296  0.25850  0.22968  1.0000
  C   C301      1.0  0.22025  0.29686  0.21055  1.0000
  C   C302      1.0  0.22147  0.29614  0.25031  1.0000
  C   C303      1.0  0.20404  0.30709  0.25667  1.0000
  C   C304      1.0  0.27457  0.31521  0.22258  1.0000
  H   H478      1.0  0.29674  0.28367  0.26308  1.0000
  C   C305      1.0  0.21752  0.29067  0.19961  1.0000
  H   H479      1.0  0.23634  0.26226  0.24157  1.0000
  H   H480      1.0  0.25087  0.27328  0.24441  1.0000
  H   H481      1.0  0.21737  0.31084  0.23156  1.0000
  H   H482      1.0  0.20972  0.29061  0.23727  1.0000
  H   H483      1.0  0.22584  0.27082  0.22247  1.0000
  H   H484      1.0  0.24491  0.27740  0.21128  1.0000
  H   H485      1.0  0.26205  0.29343  0.21490  1.0000
  H   H486      1.0  0.24428  0.31195  0.21634  1.0000
  H   H487      1.0  0.26565  0.29424  0.23736  1.0000
  H   H488      1.0  0.24946  0.31520  0.23559  1.0000
  H   H489      1.0  0.25894  0.25308  0.22301  1.0000
  H   H490      1.0  0.27345  0.26601  0.22431  1.0000
  H   H491      1.0  0.22564  0.30906  0.20651  1.0000
  H   H492      1.0  0.20688  0.30032  0.21665  1.0000
  H   H493      1.0  0.22274  0.28238  0.25596  1.0000
  H   H494      1.0  0.23274  0.30111  0.25107  1.0000
  H   H495      1.0  0.20429  0.30608  0.26668  1.0000
  H   H496      1.0  0.20240  0.32126  0.25173  1.0000
  H   H497      1.0  0.19228  0.30206  0.25660  1.0000
  H   H498      1.0  0.46499  0.08380  0.37745  1.0000
  H   H499      1.0  0.28176  0.25277  0.27656  1.0000
  H   H500      1.0  0.30872  0.19191  0.19834  1.0000
  C   C306      1.0  0.32067  0.00457  0.33473  1.0000
  H   H501      1.0  0.28511  0.30663  0.21679  1.0000
  H   H502      1.0  0.19356  0.41655  0.19188  1.0000
  H   H503      1.0  0.32118  0.34991  0.19938  1.0000
  H   H504      1.0  0.48257  0.22621  0.19883  1.0000
  H   H505      1.0  0.18591  0.03542  0.35970  1.0000
  H   H506      1.0  0.08734  0.14845  0.31251  1.0000
  C   C307      1.0  0.11179  0.37648  0.33285  1.0000
  N   N13       1.0  0.19822  0.00740  0.36380  1.0000
  H   H507      1.0  0.06682  0.34472  0.30473  1.0000
  H   H508      1.0  0.12241  0.18911  0.36752  1.0000
  H   H509      1.0  0.13044  0.23174  0.31345  1.0000
  C   C308      1.0  0.15259  0.01604  0.33318  1.0000
  S   S93       1.0  0.39072  0.22777  0.19062  1.0000
  N   N14       1.0  0.27039  0.03279  0.31296  1.0000
  C   C309      1.0  0.25066  0.03646  0.31293  1.0000
  C   C310      1.0  0.27300  0.03192  0.32600  1.0000
  C   C311      1.0  0.27764  0.04835  0.30403  1.0000
  C   C312      1.0  0.28076  0.01623  0.30818  1.0000
  H   H510      1.0  0.10003  0.06881  0.35302  1.0000
  C   C313      1.0  0.24621  0.03791  0.29997  1.0000
  C   C314      1.0  0.29701  0.04907  0.30416  1.0000
  H   H511      1.0  0.12292  0.37559  0.31306  1.0000
  H   H512      1.0  0.46345  0.06685  0.37011  1.0000
  S   S94       1.0  0.04131  0.18872  0.34918  1.0000
  C   C315      1.0  0.22622  0.03937  0.30125  1.0000
  C   C316      1.0  0.30342  0.06413  0.29370  1.0000
  H   H513      1.0  0.24369  0.04903  0.31614  1.0000
  H   H514      1.0  0.24389  0.02634  0.31992  1.0000
  H   H515      1.0  0.28722  0.02573  0.32667  1.0000
  H   H516      1.0  0.27054  0.04558  0.32764  1.0000
  H   H517      1.0  0.26875  0.06111  0.30610  1.0000
  H   H518      1.0  0.27757  0.04867  0.29408  1.0000
  H   H519      1.0  0.28176  0.01852  0.29780  1.0000
  H   H520      1.0  0.28461  0.16868  0.20295  1.0000
  H   H521      1.0  0.38530  0.19335  0.19056  1.0000
  H   H522      1.0  0.38272  0.05670  0.37737  1.0000
  H   H523      1.0  0.24979  0.04993  0.29308  1.0000
  H   H524      1.0  0.25341  0.02608  0.29596  1.0000
  H   H525      1.0  0.30672  0.03659  0.30263  1.0000
  H   H526      1.0  0.29753  0.05150  0.31333  1.0000
  H   H527      1.0  0.23024  0.00559  0.34211  1.0000
  N   N15       1.0  0.07797  0.11514  0.32913  1.0000
  H   H528      1.0  0.08357  0.08745  0.32858  1.0000
  H   H529      1.0  0.13745  0.03336  0.36137  1.0000
  H   H530      1.0  0.30680  0.31560  0.24237  1.0000
  H   H531      1.0  0.19048  0.19716  0.30666  1.0000
  H   H532      1.0  0.19927  0.01661  0.34371  1.0000
  C   C317      1.0  0.31761  0.36449  0.19584  1.0000
  H   H533      1.0  0.22342  0.04042  0.29187  1.0000
  H   H534      1.0  0.22190  0.02746  0.30782  1.0000
  H   H535      1.0  0.21830  0.05140  0.30479  1.0000
  H   H536      1.0  0.30391  0.06202  0.28423  1.0000
  H   H537      1.0  0.29428  0.07704  0.29498  1.0000
  H   H538      1.0  0.31711  0.06467  0.29414  1.0000
  H   H539      1.0  0.12609  0.24285  0.25199  1.0000
  C   C318      1.0  0.27126  0.24265  0.23900  1.0000
  H   H540      1.0  0.04667  0.40206  0.35923  1.0000
  N   N16       1.0  0.11836  0.22792  0.33358  1.0000
  H   H541      1.0  0.17359  0.23561  0.33791  1.0000
  S   S95       1.0  0.32011  0.00827  0.35853  1.0000
  C   C319      1.0  0.06071  0.33573  0.30197  1.0000
  H   H542      1.0  0.10708  0.06207  0.33793  1.0000
  H   H543      1.0  0.32199  0.23495  0.27222  1.0000
  C   C320      1.0  0.09743  0.25455  0.32191  1.0000
  H   H544      1.0  0.15024  0.21808  0.34323  1.0000
  C   C321      1.0  0.29331  0.24144  0.27795  1.0000
  H   H545      1.0  0.09439  0.29264  0.33365  1.0000
  H   H546      1.0  0.44375  0.28096  0.18775  1.0000
  C   C322      1.0  0.08242  0.38520  0.35570  1.0000
  H   H547      1.0  0.32928  0.28778  0.24074  1.0000
  C   C323      1.0  0.12984  0.23941  0.33468  1.0000
  H   H548      1.0  0.12354  0.24575  0.34297  1.0000
  H   H549      1.0  0.15696  0.22595  0.32643  1.0000
  C   C324      1.0  0.31070  0.26880  0.21529  1.0000
  C   C325      1.0  0.07764  0.26161  0.32129  1.0000
  H   H550      1.0  0.03605  0.18720  0.30618  1.0000
  H   H551      1.0  0.10040  0.22664  0.35935  1.0000
  H   H552      1.0  0.19378  0.21447  0.28490  1.0000
  H   H553      1.0  0.19625  0.22722  0.24315  1.0000
  C   C326      1.0  0.18607  0.23763  0.24751  1.0000
  C   C327      1.0  0.21120  0.01844  0.37853  1.0000
  C   C328      1.0  0.03013  0.34065  0.31597  1.0000
  C   C329      1.0  0.11009  0.19979  0.36829  1.0000
  H   H554      1.0  0.13055  0.25071  0.32635  1.0000
  H   H555      1.0  0.19390  0.17733  0.23848  1.0000
  C   C330      1.0  0.28892  0.32065  0.18921  1.0000
  H   H556      1.0  0.03303  0.35557  0.32872  1.0000
  H   H557      1.0  0.17448  0.24293  0.26631  1.0000
  H   H558      1.0  0.13015  0.20203  0.34380  1.0000
  H   H559      1.0  0.10282  0.26558  0.32264  1.0000
  C   C331      1.0  0.11286  0.21635  0.35798  1.0000
  H   H560      1.0  0.07637  0.27290  0.31308  1.0000
  H   H561      1.0  0.19204  0.19243  0.28553  1.0000
  H   H562      1.0  0.32290  0.27291  0.20884  1.0000
  H   H563      1.0  0.38266  0.04075  0.34807  1.0000
  H   H564      1.0  0.09336  0.39137  0.37316  1.0000
  H   H565      1.0  0.28751  0.31574  0.25533  1.0000
  H   H566      1.0  0.01655  0.38501  0.31896  1.0000
  H   H567      1.0  0.07422  0.38142  0.36527  1.0000
  S   S96       1.0  0.03669  0.32606  0.35658  1.0000
  H   H568      1.0  0.11650  0.38127  0.36994  1.0000
  H   H569      1.0  0.17385  0.24101  0.24358  1.0000
  C   C332      1.0  0.07436  0.40500  0.35094  1.0000
  H   H570      1.0  0.16116  0.22571  0.28492  1.0000
  H   H571      1.0  0.18450  0.26518  0.24772  1.0000
  C   C333      1.0  0.12345  0.24176  0.26237  1.0000
  C   C334      1.0  0.34444  0.18456  0.19036  1.0000
  C   C335      1.0  0.17848  0.20207  0.30235  1.0000
  Fe  Fe48      1.0  0.01940  0.33430  0.37428  1.0000
  H   H572      1.0  0.35079  0.17019  0.19138  1.0000
  H   H573      1.0  0.28084  0.31904  0.22888  1.0000
  H   H574      1.0  0.10681  0.09850  0.34218  1.0000
  C   C336      1.0  0.16796  0.21316  0.28162  1.0000
  H   H575      1.0  0.05786  0.33321  0.32728  1.0000
  H   H576      1.0  0.29377  0.23771  0.28815  1.0000
  H   H577      1.0  0.29640  0.16886  0.21466  1.0000
  S   S97       1.0  0.31123  0.04986  0.36919  1.0000
  C   C337      1.0  0.10714  0.36074  0.36110  1.0000
  H   H578      1.0  0.04396  0.18115  0.29106  1.0000
  C   C338      1.0  0.05899  0.11833  0.32723  1.0000
  H   H579      1.0  0.37981  0.17221  0.19318  1.0000
  H   H580      1.0  0.07194  0.25129  0.31986  1.0000
  H   H581      1.0  0.02151  0.12611  0.33767  1.0000
  C   C339      1.0  0.17057  0.01069  0.32733  1.0000
  H   H582      1.0  0.10384  0.35335  0.35526  1.0000
  H   H583      1.0  0.07239  0.32526  0.29889  1.0000
  C   C340      1.0  0.08470  0.13863  0.30833  1.0000
  H   H584      1.0  0.10701  0.32579  0.37337  1.0000
  H   H585      1.0  0.13738  0.23783  0.27708  1.0000
  H   H586      1.0  0.13927  0.21115  0.32251  1.0000
  C   C341      1.0  0.15941  0.24245  0.33774  1.0000
  C   C342      1.0  0.05308  0.34598  0.29006  1.0000
  S   S98       1.0  0.26268  0.07757  0.37350  1.0000
  C   C343      1.0  0.14100  0.23846  0.26674  1.0000
  H   H587      1.0  0.15937  0.25454  0.33002  1.0000
  Fe  Fe49      1.0  0.03765  0.21732  0.33878  1.0000
  H   H588      1.0  0.10455  0.25069  0.31281  1.0000
  H   H589      1.0  0.19653  0.25868  0.23305  1.0000
  C   C344      1.0  0.09961  0.23896  0.33352  1.0000
  H   H590      1.0  0.02093  0.33457  0.32442  1.0000
  C   C345      1.0  0.01476  0.37265  0.31728  1.0000
  C   C346      1.0  0.30171  0.30899  0.25229  1.0000
  S   S99       1.0  0.34867  0.24975  0.19314  1.0000
  H   H591      1.0  0.11621  0.23088  0.26737  1.0000
  H   H592      1.0  0.19763  0.19874  0.26275  1.0000
  N   N17       1.0  0.04763  0.32757  0.31310  1.0000
  H   H593      1.0  0.11463  0.25440  0.26456  1.0000
  H   H594      1.0  0.19506  0.22732  0.26491  1.0000
  N   N18       1.0  0.32540  0.26084  0.24727  1.0000
  C   C347      1.0  0.31119  0.25098  0.25565  1.0000
  C   C348      1.0  0.32600  0.26131  0.23364  1.0000
  C   C349      1.0  0.34336  0.25023  0.25012  1.0000
  H   H595      1.0  0.29117  0.22994  0.27527  1.0000
  C   C350      1.0  0.37414  0.18620  0.19406  1.0000
  H   H596      1.0  0.13865  0.37764  0.32125  1.0000
  C   C351      1.0  0.36020  0.25717  0.24171  1.0000
  C   C352      1.0  0.30908  0.27172  0.22845  1.0000
  H   H597      1.0  0.39133  0.00411  0.34491  1.0000
  H   H598      1.0  0.07147  0.11025  0.35611  1.0000
  C   C353      1.0  0.37707  0.24705  0.24676  1.0000
  H   H599      1.0  0.31292  0.23817  0.25287  1.0000
  H   H600      1.0  0.29756  0.25832  0.25433  1.0000
  H   H601      1.0  0.33702  0.26752  0.22715  1.0000
  H   H602      1.0  0.32899  0.24755  0.23216  1.0000
  H   H603      1.0  0.34533  0.23622  0.24936  1.0000
  H   H604      1.0  0.34376  0.24967  0.26005  1.0000
  H   H605      1.0  0.18903  0.99469  0.38332  1.0000
  H   H606      1.0  0.23272  0.03316  0.37145  1.0000
  H   H607      1.0  0.48691  0.04470  0.38041  1.0000
  H   H608      1.0  0.30450  0.36979  0.20171  1.0000
  H   H609      1.0  0.06665  0.15024  0.35373  1.0000
  H   H610      1.0  0.27927  0.33270  0.19065  1.0000
  H   H611      1.0  0.35866  0.27147  0.24128  1.0000
  H   H612      1.0  0.36272  0.25516  0.23194  1.0000
  H   H613      1.0  0.29672  0.26766  0.23453  1.0000
  H   H614      1.0  0.30780  0.28613  0.22749  1.0000
  C   C354      1.0  0.11076  0.40795  0.35970  1.0000
  H   H615      1.0  0.26146  0.23409  0.24400  1.0000
  H   H616      1.0  0.12469  0.40607  0.35392  1.0000
  S   S100      1.0  0.02047  0.16459  0.33059  1.0000
  H   H617      1.0  0.07618  0.09147  0.34408  1.0000
  H   H618      1.0  0.15859  0.20391  0.28580  1.0000
  H   H619      1.0  0.38893  0.25199  0.24039  1.0000
  H   H620      1.0  0.37589  0.24898  0.25641  1.0000
  H   H621      1.0  0.37933  0.23266  0.24703  1.0000
  C   C355      1.0  0.04372  0.31209  0.30985  1.0000
  H   H622      1.0  0.09021  0.23041  0.33450  1.0000
  S   S101      1.0  0.24507  0.35250  0.19960  1.0000
  C   C356      1.0  0.31093  0.24647  0.27004  1.0000
  N   N19       1.0  0.10201  0.38055  0.35618  1.0000
  C   C357      1.0  0.10437  0.09034  0.33652  1.0000
  H   H623      1.0  0.06973  0.26603  0.33011  1.0000
  H   H624      1.0  0.06209  0.35989  0.27081  1.0000
  H   H625      1.0  0.14716  0.25009  0.26191  1.0000
  H   H626      1.0  0.00284  0.33960  0.35293  1.0000
  C   C358      1.0  0.08468  0.09580  0.33471  1.0000
  H   H627      1.0  0.04683  0.31542  0.33291  1.0000
  H   H628      1.0  0.07777  0.34009  0.27614  1.0000
  N   N20       1.0  0.33835  0.14854  0.27281  1.0000
  C   C359      1.0  0.32878  0.14000  0.26690  1.0000
  C   C360      1.0  0.34146  0.13668  0.28536  1.0000
  C   C361      1.0  0.32584  0.16564  0.27555  1.0000
  C   C362      1.0  0.35575  0.15278  0.26428  1.0000
  C   C363      1.0  0.36633  0.14041  0.25497  1.0000
  C   C364      1.0  0.32132  0.15207  0.25526  1.0000
  C   C365      1.0  0.33165  0.17532  0.28352  1.0000
  C   C366      1.0  0.35345  0.11797  0.28498  1.0000
  C   C367      1.0  0.35475  0.10722  0.29834  1.0000
  C   C368      1.0  0.38490  0.14444  0.24865  1.0000
  C   C369      1.0  0.31598  0.14133  0.24806  1.0000
  C   C370      1.0  0.32089  0.19442  0.28271  1.0000
  H   H629      1.0  0.31713  0.13551  0.27403  1.0000
  H   H630      1.0  0.33750  0.12771  0.26411  1.0000
  H   H631      1.0  0.34802  0.14285  0.29014  1.0000
  H   H632      1.0  0.32832  0.13502  0.29187  1.0000
  H   H633      1.0  0.31219  0.16332  0.28046  1.0000
  H   H634      1.0  0.32409  0.17525  0.26656  1.0000
  H   H635      1.0  0.35336  0.16638  0.25820  1.0000
  H   H636      1.0  0.36497  0.15320  0.27009  1.0000
  H   H637      1.0  0.35914  0.14239  0.24732  1.0000
  H   H638      1.0  0.36818  0.12621  0.25967  1.0000
  H   H639      1.0  0.30910  0.16187  0.25842  1.0000
  H   H640      1.0  0.33119  0.15962  0.24860  1.0000
  H   H641      1.0  0.34611  0.17568  0.28024  1.0000
  H   H642      1.0  0.32914  0.16843  0.29366  1.0000
  H   H643      1.0  0.34803  0.11039  0.28051  1.0000
  H   H644      1.0  0.36733  0.11901  0.27985  1.0000
  H   H645      1.0  0.36089  0.11379  0.30312  1.0000
  H   H646      1.0  0.34126  0.10569  0.30413  1.0000
  H   H647      1.0  0.36320  0.09378  0.29787  1.0000
  H   H648      1.0  0.38368  0.15849  0.24341  1.0000
  H   H649      1.0  0.39309  0.14191  0.25583  1.0000
  H   H650      1.0  0.39200  0.13577  0.24180  1.0000
  H   H651      1.0  0.31021  0.15043  0.24006  1.0000
  H   H652      1.0  0.32787  0.13175  0.24419  1.0000
  H   H653      1.0  0.30564  0.13405  0.25440  1.0000
  H   H654      1.0  0.32502  0.20086  0.28874  1.0000
  H   H655      1.0  0.32330  0.20214  0.27280  1.0000
  H   H656      1.0  0.30629  0.19467  0.28614  1.0000
  H   H657      1.0  0.08354  0.35383  0.37541  1.0000
  C   C371      1.0  0.18187  0.23127  0.26208  1.0000
  H   H658      1.0  0.00342  0.21901  0.27688  1.0000
  C   C372      1.0  0.05598  0.32163  0.32453  1.0000
  H   H659      1.0  0.27426  0.07984  0.32525  1.0000
  C   C373      1.0  0.09008  0.11964  0.31629  1.0000
  H   H660      1.0  0.29154  0.11117  0.37132  1.0000
  C   C374      1.0  0.32250  0.27935  0.24938  1.0000
  H   H661      1.0  0.27538  0.24709  0.24612  1.0000
  H   H662      1.0  0.29733  0.14829  0.21069  1.0000
  C   C375      1.0  0.03947  0.27838  0.35604  1.0000
  C   C376      1.0  0.15395  0.22118  0.26346  1.0000
  C   C377      1.0  0.20227  0.00390  0.35062  1.0000
  H   H663      1.0  0.32561  0.15876  0.20069  1.0000
  C   C378      1.0  0.14829  0.03270  0.36614  1.0000
  S   S102      1.0  0.21663  0.34441  0.18611  1.0000
  H   H664      1.0  0.12122  0.39657  0.31672  1.0000
  H   H665      1.0  0.08508  0.13316  0.35889  1.0000
  H   H666      1.0  0.40561  0.02837  0.34476  1.0000
  C   C379      1.0  0.18127  0.19573  0.25102  1.0000
  H   H667      1.0  0.07033  0.14228  0.30783  1.0000
  H   H668      1.0  0.30970  0.31048  0.25854  1.0000
  C   C380      1.0  0.11377  0.38495  0.34318  1.0000
  C   C381      1.0  0.04657  0.10623  0.33660  1.0000
  C   C382      1.0  0.30684  0.31907  0.18959  1.0000
  C   C383      1.0  0.07887  0.12708  0.33716  1.0000
  H   H669      1.0  0.14675  0.21009  0.26785  1.0000
  H   H670      1.0  0.12297  0.06732  0.34442  1.0000
  Fe  Fe50      1.0  0.35911  0.27445  0.18919  1.0000
  C   C384      1.0  0.18445  0.20531  0.28792  1.0000
  C   C385      1.0  0.19339  0.99152  0.37376  1.0000
  H   H671      1.0  0.05322  0.12761  0.35088  1.0000
  H   H672      1.0  0.31281  0.25775  0.27312  1.0000
  C   C386      1.0  0.10535  0.38969  0.36526  1.0000
  H   H673      1.0  0.18238  0.20720  0.24296  1.0000
  C   C387      1.0  0.31959  0.30366  0.18755  1.0000
  C   C388      1.0  0.18315  0.19944  0.26343  1.0000
  H   H674      1.0  0.07430  0.41277  0.35777  1.0000
  H   H675      1.0  0.16797  0.19250  0.25243  1.0000
  H   H676      1.0  0.11400  0.09163  0.32724  1.0000
  C   C389      1.0  0.03423  0.29923  0.32100  1.0000
  H   H677      1.0  0.09434  0.24504  0.34196  1.0000
  C   C390      1.0  0.11738  0.21221  0.34462  1.0000
  C   C391      1.0  0.37354  0.06868  0.37965  1.0000
  H   H678      1.0  0.29408  0.28870  0.24715  1.0000
  H   H679      1.0  0.09302  0.12630  0.33739  1.0000
  H   H680      1.0  0.09249  0.15442  0.28953  1.0000
  C   C392      1.0  0.02937  0.28531  0.31629  1.0000
  H   H681      1.0  0.01407  0.19177  0.28641  1.0000
  C   C393      1.0  0.00875  0.39479  0.38362  1.0000
  H   H682      1.0  0.07507  0.35999  0.28177  1.0000
  C   C394      1.0  0.26077  0.02221  0.33753  1.0000
  H   H683      1.0  0.33668  0.09836  0.37142  1.0000
  H   H684      1.0  0.05623  0.30385  0.30537  1.0000
  H   H685      1.0  0.03539  0.31689  0.30255  1.0000
  H   H686      1.0  0.12816  0.38101  0.34389  1.0000
  H   H687      1.0  0.02287  0.34399  0.30812  1.0000
  C   C395      1.0  0.07476  0.30910  0.32272  1.0000
  H   H688      1.0  0.35097  0.00294  0.36947  1.0000
  C   C396      1.0  0.09579  0.14046  0.29477  1.0000
  C   C397      1.0  0.03156  0.35808  0.31880  1.0000
  H   H689      1.0  0.19452  0.16776  0.25490  1.0000
  H   H690      1.0  0.29886  0.27697  0.21142  1.0000
  C   C398      1.0  0.14954  0.23003  0.33546  1.0000
  C   C399      1.0  0.35979  0.19489  0.18618  1.0000
  C   C400      1.0  0.08000  0.29945  0.33532  1.0000
  H   H691      1.0  0.01244  0.37546  0.30753  1.0000
  H   H692      1.0  0.08494  0.31695  0.31712  1.0000
  N   N21       1.0  0.15675  0.38787  0.19118  1.0000
  H   H693      1.0  0.09806  0.36129  0.38168  1.0000
  C   C401      1.0  0.16517  0.40047  0.19436  1.0000
  C   C402      1.0  0.15033  0.37552  0.20346  1.0000
  H   H694      1.0  0.00794  0.37443  0.34762  1.0000
  H   H695      1.0  0.39993  0.00651  0.36469  1.0000
  H   H696      1.0  0.04171  0.27704  0.31157  1.0000
  C   C403      1.0  0.13757  0.38435  0.21424  1.0000
  C   C404      1.0  0.45846  0.07262  0.37867  1.0000
  H   H697      1.0  0.22621  0.00243  0.36502  1.0000
  C   C405      1.0  0.29697  0.16264  0.20678  1.0000
  C   C406      1.0  0.18227  0.42525  0.18754  1.0000
  C   C407      1.0  0.12919  0.37070  0.22500  1.0000
  H   H698      1.0  0.02032  0.29170  0.30954  1.0000
  H   H699      1.0  0.30591  0.11494  0.37991  1.0000
  H   H700      1.0  0.15522  0.40839  0.20091  1.0000
  H   H701      1.0  0.17611  0.39284  0.19944  1.0000
  H   H702      1.0  0.16202  0.36675  0.20733  1.0000
  H   H703      1.0  0.14317  0.36647  0.20177  1.0000
  C   C408      1.0  0.11027  0.41692  0.37022  1.0000
  C   C409      1.0  0.26676  0.02003  0.34982  1.0000
  H   H704      1.0  0.17710  0.02392  0.37503  1.0000
  H   H705      1.0  0.11917  0.40825  0.37664  1.0000
  H   H706      1.0  0.10698  0.20303  0.37776  1.0000
  H   H707      1.0  0.02174  0.30639  0.32636  1.0000
  H   H708      1.0  0.12658  0.39485  0.21071  1.0000
  H   H709      1.0  0.14519  0.39026  0.21841  1.0000
  C   C410      1.0  0.22830  0.02276  0.37965  1.0000
  H   H710      1.0  0.01651  0.39371  0.33831  1.0000
  C   C411      1.0  0.09779  0.35353  0.37496  1.0000
  H   H711      1.0  0.05278  0.37425  0.38241  1.0000
  H   H712      1.0  0.12071  0.33343  0.38047  1.0000
  C   C412      1.0  0.18208  0.02259  0.36499  1.0000
  H   H713      1.0  0.16820  0.02699  0.34963  1.0000
  H   H714      1.0  0.37108  0.99841  0.33412  1.0000
  H   H715      1.0  0.09867  0.19489  0.36747  1.0000
  S   S103      1.0  0.26103  0.30805  0.18740  1.0000
  H   H716      1.0  0.17264  0.43261  0.19455  1.0000
  H   H717      1.0  0.12074  0.37717  0.23284  1.0000
  H   H718      1.0  0.12060  0.36482  0.22165  1.0000
  H   H719      1.0  0.13982  0.35992  0.22878  1.0000
  N   N22       1.0  0.23234  0.13459  0.32755  1.0000
  C   C413      1.0  0.24675  0.14430  0.32642  1.0000
  C   C414      1.0  0.24078  0.11841  0.32187  1.0000
  C   C415      1.0  0.21933  0.14665  0.31955  1.0000
  C   C416      1.0  0.22213  0.12955  0.34105  1.0000
  C   C417      1.0  0.23232  0.12600  0.35185  1.0000
  C   C418      1.0  0.23990  0.16292  0.32974  1.0000
  C   C419      1.0  0.20379  0.13874  0.31896  1.0000
  C   C420      1.0  0.25563  0.10459  0.32792  1.0000
  C   C421      1.0  0.26282  0.08893  0.32135  1.0000
  C   C422      1.0  0.22084  0.11915  0.36468  1.0000
  C   C423      1.0  0.25413  0.16842  0.33386  1.0000
  C   C424      1.0  0.18980  0.15286  0.31256  1.0000
  H   H720      1.0  0.25482  0.14627  0.31654  1.0000
  H   H721      1.0  0.25660  0.13625  0.33228  1.0000
  H   H722      1.0  0.23048  0.11098  0.32246  1.0000
  H   H723      1.0  0.24669  0.12256  0.31161  1.0000
  H   H724      1.0  0.22663  0.15096  0.30962  1.0000
  H   H725      1.0  0.21282  0.15900  0.32314  1.0000
  H   H726      1.0  0.21006  0.14016  0.34321  1.0000
  H   H727      1.0  0.21668  0.11760  0.34223  1.0000
  H   H728      1.0  0.23544  0.13836  0.35247  1.0000
  H   H729      1.0  0.24518  0.11624  0.35052  1.0000
  H   H730      1.0  0.23640  0.17294  0.32125  1.0000
  H   H731      1.0  0.22768  0.16341  0.33744  1.0000
  H   H732      1.0  0.19680  0.13289  0.32854  1.0000
  H   H733      1.0  0.20901  0.12829  0.31339  1.0000
  H   H734      1.0  0.26715  0.11037  0.32729  1.0000
  H   H735      1.0  0.25007  0.09909  0.33790  1.0000
  H   H736      1.0  0.26764  0.09352  0.31101  1.0000
  H   H737      1.0  0.25222  0.08140  0.32302  1.0000
  H   H738      1.0  0.20868  0.12945  0.36714  1.0000
  H   H739      1.0  0.13406  0.40989  0.18915  1.0000
  H   H740      1.0  0.23928  0.01071  0.38013  1.0000
  H   H741      1.0  0.25739  0.15929  0.34272  1.0000
  H   H742      1.0  0.26658  0.16829  0.32637  1.0000
  H   H743      1.0  0.24900  0.18206  0.33560  1.0000
  H   H744      1.0  0.19620  0.15950  0.30299  1.0000
  H   H745      1.0  0.17956  0.14653  0.31151  1.0000
  H   H746      1.0  0.18293  0.16289  0.31842  1.0000
  H   H747      1.0  0.37749  0.01926  0.36903  1.0000
  N   N23       1.0  0.17183  0.21642  0.26732  1.0000
  H   H748      1.0  0.04678  0.33756  0.28696  1.0000
  C   C425      1.0  0.24347  0.07340  0.37064  1.0000
  H   H749      1.0  0.22875  0.11557  0.37215  1.0000
  H   H750      1.0  0.08196  0.41037  0.34145  1.0000
  H   H751      1.0  0.33781  0.18624  0.20018  1.0000
  H   H752      1.0  0.36899  0.01473  0.35050  1.0000
  H   H753      1.0  0.17004  0.19200  0.30586  1.0000
  C   C426      1.0  0.38809  0.01509  0.36100  1.0000
  C   C427      1.0  0.06795  0.35186  0.27905  1.0000
  H   H754      1.0  0.04319  0.36338  0.31251  1.0000
  H   H755      1.0  0.01330  0.17595  0.30113  1.0000
  C   C428      1.0  0.31373  0.16507  0.19638  1.0000
  Fe  Fe51      1.0  0.39780  0.25421  0.18692  1.0000
  C   C429      1.0  0.19564  0.17985  0.24728  1.0000
  H   H756      1.0  0.17984  0.18763  0.27084  1.0000
  H   H757      1.0  0.07548  0.29903  0.31750  1.0000
  H   H758      1.0  0.11540  0.19797  0.30332  1.0000
  C   C430      1.0  0.11456  0.21169  0.31771  1.0000
  C   C431      1.0  0.12451  0.20396  0.30608  1.0000
  H   H759      1.0  0.10229  0.22123  0.31533  1.0000
  H   H760      1.0  0.11045  0.20065  0.32544  1.0000
  H   H761      1.0  0.12881  0.21457  0.29801  1.0000
  H   H762      1.0  0.13639  0.19344  0.30818  1.0000
  H   H763      1.0  0.32915  0.27916  0.25701  1.0000
  H   H764      1.0  0.31080  0.32981  0.19147  1.0000
  C   C432      1.0  0.05483  0.40774  0.35002  1.0000
  H   H765      1.0  0.05113  0.09261  0.33474  1.0000
  S   S104      1.0  0.02934  0.21268  0.32253  1.0000
  H   H766      1.0  0.00500  0.21585  0.30107  1.0000
  C   C433      1.0  0.07074  0.13608  0.35832  1.0000
  C   C434      1.0  0.30274  0.28940  0.25316  1.0000
  Fe  Fe52      1.0  0.03557  0.18391  0.33195  1.0000
  H   H767      1.0  0.13047  0.38983  0.18772  1.0000
  H   H768      1.0  0.00391  0.40912  0.37983  1.0000
  H   H769      1.0  0.20034  0.03045  0.37930  1.0000
  S   S105      1.0  0.35586  0.06568  0.36276  1.0000
  Fe  Fe53      1.0  0.24606  0.33633  0.18590  1.0000
  C   C435      1.0  0.03022  0.27002  0.35117  1.0000
  C   C436      1.0  0.32038  0.99644  0.34748  1.0000
  H   H770      1.0  0.10401  0.11844  0.31722  1.0000
  H   H771      1.0  0.21712  0.02454  0.35806  1.0000
  C   C437      1.0  0.06777  0.12412  0.35091  1.0000
  H   H772      1.0  0.03499  0.29234  0.35587  1.0000
  C   C438      1.0  0.12445  0.38197  0.32023  1.0000
  H   H773      1.0  0.03641  0.20423  0.29179  1.0000
  H   H774      1.0  0.32464  0.21953  0.19266  1.0000
  H   H775      1.0  0.28328  0.23460  0.23379  1.0000
  C   C439      1.0  0.35905  0.07636  0.37357  1.0000
  H   H776      1.0  0.05681  0.40429  0.38161  1.0000
  C   C440      1.0  0.10676  0.33430  0.37977  1.0000
  H   H777      1.0  0.34860  0.02986  0.38342  1.0000
  H   H778      1.0  0.23052  0.28757  0.19288  1.0000
  S   S106      1.0  0.34184  0.30195  0.18836  1.0000
  H   H779      1.0  0.21658  0.10714  0.36449  1.0000
  H   H780      1.0  0.44379  0.07802  0.37963  1.0000
  H   H781      1.0  0.25922  0.00091  0.31761  1.0000
  H   H782      1.0  0.25836  0.01227  0.35778  1.0000
  C   C441      1.0  0.22812  0.07320  0.38040  1.0000
  H   H783      1.0  0.11488  0.42957  0.36604  1.0000
  H   H784      1.0  0.31405  0.15786  0.18912  1.0000
  H   H785      1.0  0.18299  0.37085  0.18720  1.0000
  H   H786      1.0  0.00634  0.38709  0.37765  1.0000
  C   C442      1.0  0.16586  0.02167  0.36001  1.0000
  C   C443      1.0  0.21385  0.01301  0.36578  1.0000
  H   H787      1.0  0.30337  0.22019  0.18941  1.0000
  C   C444      1.0  0.29486  0.10832  0.38077  1.0000
  H   H788      1.0  0.01252  0.38944  0.35524  1.0000
  H   H789      1.0  0.14969  0.04641  0.36531  1.0000
  H   H790      1.0  0.46583  0.24554  0.19423  1.0000
  H   H791      1.0  0.09635  0.41996  0.37585  1.0000
  C   C445      1.0  0.22198  0.99541  0.34504  1.0000
  C   C446      1.0  0.47963  0.23790  0.19112  1.0000
  C   C447      1.0  0.31332  0.18500  0.19031  1.0000
  H   H792      1.0  0.12702  0.00831  0.34115  1.0000
  H   H793      1.0  0.06250  0.13385  0.36810  1.0000
  H   H794      1.0  0.14436  0.02652  0.37633  1.0000
  H   H795      1.0  0.02068  0.28116  0.38179  1.0000
  H   H796      1.0  0.16392  0.00800  0.36165  1.0000
  H   H797      1.0  0.35459  0.20873  0.18743  1.0000
  H   H798      1.0  0.02331  0.39244  0.38321  1.0000
  H   H799      1.0  0.20492  0.45422  0.18722  1.0000
  C   C448      1.0  0.00677  0.28930  0.38269  1.0000
  C   C449      1.0  0.27398  0.99885  0.31476  1.0000
  H   H800      1.0  0.48944  0.24634  0.18947  1.0000
  C   C450      1.0  0.34746  0.09201  0.37639  1.0000
  C   C451      1.0  0.32053  0.99455  0.32624  1.0000
  Fe  Fe54      1.0  0.05122  0.33556  0.38414  1.0000
  C   C452      1.0  0.36170  0.99137  0.37233  1.0000
  C   C453      1.0  0.30050  0.08829  0.38542  1.0000
  Fe  Fe55      1.0  0.07320  0.45040  0.54830  1.0000
  S   S107      1.0  0.05111  0.47453  0.55055  1.0000
  S   S108      1.0  0.09007  0.43282  0.56206  1.0000
  Fe  Fe56      1.0  0.06861  0.45013  0.52227  1.0000
  H   H801      1.0  0.50174  0.05681  0.44960  1.0000
  S   S109      1.0  0.08307  0.43150  0.50912  1.0000
  C   C454      1.0  0.05521  0.39246  0.52037  1.0000
  H   H802      1.0  0.38439  0.02534  0.46332  1.0000
  Fe  Fe57      1.0  0.03612  0.46184  0.54243  1.0000
  H   H803      1.0  0.46792  0.04752  0.41494  1.0000
  S   S110      1.0  0.08629  0.46220  0.52856  1.0000
  S   S111      1.0  0.05706  0.43695  0.54197  1.0000
  Fe  Fe58      1.0  0.46867  0.10328  0.51422  1.0000
  S   S112      1.0  0.44370  0.12431  0.51268  1.0000
  C   C455      1.0  0.45714  0.08784  0.46056  1.0000
  Fe  Fe59      1.0  0.44927  0.07364  0.51895  1.0000
  S   S113      1.0  0.42252  0.09201  0.51781  1.0000
  S   S114      1.0  0.45518  0.04398  0.52181  1.0000
  Fe  Fe60      1.0  0.43793  0.10849  0.50121  1.0000
  S   S115      1.0  0.42999  0.12356  0.48286  1.0000
  Fe  Fe61      1.0  0.43032  0.10638  0.52943  1.0000
  S   S116      1.0  0.40985  0.11859  0.54468  1.0000
  S   S117      1.0  0.46403  0.08880  0.50130  1.0000
  S   S118      1.0  0.45592  0.08657  0.53208  1.0000
  C   C456      1.0  0.05604  0.37690  0.39034  1.0000
  Fe  Fe62      1.0  0.40117  0.08621  0.43802  1.0000
  S   S119      1.0  0.42954  0.07260  0.43124  1.0000
  S   S120      1.0  0.39091  0.08599  0.45884  1.0000
  Fe  Fe63      1.0  0.39057  0.09058  0.41296  1.0000
  S   S121      1.0  0.41805  0.07710  0.40413  1.0000
  S   S122      1.0  0.36631  0.10098  0.40383  1.0000
  Fe  Fe64      1.0  0.41732  0.05783  0.42279  1.0000
  S   S123      1.0  0.42815  0.02856  0.42556  1.0000
  Fe  Fe65      1.0  0.42838  0.09305  0.41318  1.0000
  S   S124      1.0  0.45372  0.10247  0.40185  1.0000
  S   S125      1.0  0.38896  0.06967  0.43087  1.0000
  S   S126      1.0  0.40079  0.10836  0.42069  1.0000
  Fe  Fe66      1.0  0.06372  0.43208  0.44216  1.0000
  S   S127      1.0  0.03981  0.45433  0.44486  1.0000
  S   S128      1.0  0.08112  0.41817  0.45638  1.0000
  Fe  Fe67      1.0  0.05935  0.43058  0.41620  1.0000
  S   S129      1.0  0.03553  0.45338  0.41664  1.0000
  C   C457      1.0  0.01357  0.33176  0.41605  1.0000
  Fe  Fe68      1.0  0.05070  0.46604  0.42455  1.0000
  H   H804      1.0  0.46366  0.01549  0.43839  1.0000
  Fe  Fe69      1.0  0.02689  0.43964  0.43670  1.0000
  H   H805      1.0  0.36702  0.12136  0.53364  1.0000
  S   S130      1.0  0.07574  0.44471  0.42220  1.0000
  S   S131      1.0  0.04964  0.41606  0.43590  1.0000
  H   H806      1.0  0.41433  0.01373  0.45453  1.0000
  H   H807      1.0  0.13467  0.34427  0.53646  1.0000
  H   H808      1.0  0.48687  0.04928  0.52874  1.0000
  C   C458      1.0  0.40003  0.10282  0.55664  1.0000
  H   H809      1.0  0.01757  0.43717  0.51252  1.0000
  H   H810      1.0  0.32638  0.99214  0.38650  1.0000
  C   C459      1.0  0.05822  0.39388  0.38996  1.0000
  H   H811      1.0  0.28912  0.08248  0.38583  1.0000
  H   H812      1.0  0.11833  0.43881  0.47205  1.0000
  H   H813      1.0  0.32904  0.05442  0.43834  1.0000
  H   H814      1.0  0.47677  0.01291  0.46235  1.0000
  H   H815      1.0  0.29496  0.05396  0.39589  1.0000
  H   H816      1.0  0.12461  0.47153  0.48744  1.0000
  H   H817      1.0  0.36190  0.03497  0.39221  1.0000
  C   C460      1.0  0.48814  0.11245  0.42496  1.0000
  C   C461      1.0  0.45667  0.03185  0.48002  1.0000
  C   C462      1.0  0.45192  0.07106  0.46948  1.0000
  C   C463      1.0  0.46669  0.10700  0.41062  1.0000
  C   C464      1.0  0.48488  0.10740  0.40541  1.0000
  C   C465      1.0  0.45683  0.15579  0.43953  1.0000
  H   H818      1.0  0.46382  0.02575  0.40705  1.0000
  C   C466      1.0  0.46982  0.11275  0.42993  1.0000
  C   C467      1.0  0.45918  0.10972  0.42290  1.0000
  H   H819      1.0  0.35320  0.00470  0.46294  1.0000
  C   C468      1.0  0.48279  0.04330  0.41213  1.0000
  H   H820      1.0  0.46385  0.11530  0.43930  1.0000
  H   H821      1.0  0.44513  0.10967  0.42693  1.0000
  C   C469      1.0  0.42010  0.02024  0.41578  1.0000
  C   C470      1.0  0.40776  0.03134  0.40863  1.0000
  H   H822      1.0  0.36728  0.07212  0.51415  1.0000
  H   H823      1.0  0.40322  0.04520  0.40900  1.0000
  S   S132      1.0  0.39564  0.99699  0.39342  1.0000
  H   H824      1.0  0.45714  0.06510  0.39868  1.0000
  H   H825      1.0  0.35849  0.01900  0.44193  1.0000
  H   H826      1.0  0.28275  0.11389  0.38739  1.0000
  H   H827      1.0  0.47707  0.14484  0.49445  1.0000
  H   H828      1.0  0.01620  0.40428  0.46572  1.0000
  H   H829      1.0  0.10359  0.46725  0.49629  1.0000
  H   H830      1.0  0.26200  0.05521  0.40108  1.0000
  H   H831      1.0  0.39098  0.03287  0.39596  1.0000
  H   H832      1.0  0.06706  0.38656  0.41914  1.0000
  C   C471      1.0  0.06987  0.48954  0.49147  1.0000
  H   H833      1.0  0.49090  0.16635  0.46000  1.0000
  H   H834      1.0  0.49083  0.09569  0.53602  1.0000
  C   C472      1.0  0.37611  0.00347  0.55459  1.0000
  H   H835      1.0  0.42452  0.05039  0.48387  1.0000
  H   H836      1.0  0.26478  0.04085  0.41627  1.0000
  C   C473      1.0  0.41842  0.11349  0.47645  1.0000
  C   C474      1.0  0.40956  0.10010  0.48400  1.0000
  C   C475      1.0  0.40078  0.09198  0.47855  1.0000
  C   C476      1.0  0.40134  0.09686  0.46549  1.0000
  C   C477      1.0  0.41021  0.11021  0.45795  1.0000
  C   C478      1.0  0.41844  0.11875  0.46348  1.0000
  H   H837      1.0  0.40947  0.09601  0.49401  1.0000
  H   H838      1.0  0.39387  0.08167  0.48440  1.0000
  H   H839      1.0  0.41059  0.11408  0.44788  1.0000
  H   H840      1.0  0.42525  0.12912  0.45762  1.0000
  H   H841      1.0  0.49353  0.06082  0.46546  1.0000
  C   C479      1.0  0.41069  0.03862  0.51324  1.0000
  C   C480      1.0  0.42420  0.04598  0.51440  1.0000
  C   C481      1.0  0.43855  0.03508  0.51969  1.0000
  H   H842      1.0  0.49059  0.07509  0.42470  1.0000
  H   H843      1.0  0.20040  0.07103  0.38598  1.0000
  H   H844      1.0  0.39946  0.04722  0.50944  1.0000
  H   H845      1.0  0.42347  0.06006  0.51121  1.0000
  C   C482      1.0  0.47825  0.02152  0.40258  1.0000
  H   H846      1.0  0.02067  0.39700  0.43583  1.0000
  H   H847      1.0  0.01567  0.38240  0.47437  1.0000
  C   C483      1.0  0.42571  0.00228  0.41537  1.0000
  H   H848      1.0  0.05046  0.39901  0.55280  1.0000
  C   C484      1.0  0.41905  0.99543  0.40781  1.0000
  C   C485      1.0  0.08045  0.42873  0.49469  1.0000
  C   C486      1.0  0.06797  0.44017  0.48767  1.0000
  C   C487      1.0  0.06764  0.43724  0.47583  1.0000
  C   C488      1.0  0.07977  0.42286  0.47115  1.0000
  C   C489      1.0  0.09185  0.41148  0.47837  1.0000
  C   C490      1.0  0.09218  0.41437  0.49000  1.0000
  H   H849      1.0  0.05877  0.45125  0.49128  1.0000
  H   H850      1.0  0.05821  0.44609  0.47031  1.0000
  H   H851      1.0  0.10123  0.40039  0.47485  1.0000
  H   H852      1.0  0.10186  0.40549  0.49532  1.0000
  H   H853      1.0  0.10953  0.48405  0.39903  1.0000
  H   H854      1.0  0.40541  0.99846  0.46831  1.0000
  C   C491      1.0  0.32710  0.05553  0.39679  1.0000
  C   C492      1.0  0.06201  0.36687  0.41139  1.0000
  C   C493      1.0  0.47034  0.14138  0.45897  1.0000
  C   C494      1.0  0.44927  0.04965  0.56282  1.0000
  H   H855      1.0  0.00562  0.46128  0.47482  1.0000
  N   N24       1.0  0.37968  0.00883  0.45252  1.0000
  H   H856      1.0  0.34203  0.00041  0.48644  1.0000
  C   C495      1.0  0.42644  0.00935  0.52193  1.0000
  H   H857      1.0  0.31256  0.06338  0.58207  1.0000
  H   H858      1.0  0.48024  0.00112  0.49046  1.0000
  H   H859      1.0  0.01708  0.39065  0.41662  1.0000
  H   H860      1.0  0.01958  0.36662  0.40141  1.0000
  H   H861      1.0  0.11446  0.47168  0.46706  1.0000
  H   H862      1.0  0.41947  0.02019  0.48248  1.0000
  H   H863      1.0  0.32544  0.05692  0.38707  1.0000
  H   H864      1.0  0.10426  0.35046  0.55962  1.0000
  C   C496      1.0  0.48247  0.05032  0.38909  1.0000
  H   H865      1.0  0.49978  0.08801  0.48426  1.0000
  H   H866      1.0  0.02319  0.33093  0.42188  1.0000
  H   H867      1.0  0.36895  0.01504  0.57591  1.0000
  H   H868      1.0  0.04586  0.38525  0.51914  1.0000
  C   C497      1.0  0.00322  0.37483  0.51666  1.0000
  C   C498      1.0  0.48600  0.00371  0.41105  1.0000
  S   S133      1.0  0.49536  0.11108  0.50882  1.0000
  H   H869      1.0  0.47302  0.11938  0.48184  1.0000
  H   H870      1.0  0.01666  0.48659  0.47335  1.0000
  C   C499      1.0  0.36059  0.03965  0.45602  1.0000
  H   H871      1.0  0.09524  0.46403  0.47755  1.0000
  C   C500      1.0  0.45289  0.01374  0.48803  1.0000
  H   H872      1.0  0.44794  0.09364  0.45388  1.0000
  H   H873      1.0  0.47821  0.01840  0.39350  1.0000
  H   H874      1.0  0.04735  0.40548  0.52251  1.0000
  C   C501      1.0  0.36495  0.00072  0.42433  1.0000
  H   H875      1.0  0.48646  0.03262  0.42021  1.0000
  C   C502      1.0  0.43964  0.01677  0.52346  1.0000
  H   H876      1.0  0.47691  0.03119  0.44891  1.0000
  C   C503      1.0  0.46592  0.15419  0.47718  1.0000
  H   H877      1.0  0.27502  0.06440  0.42155  1.0000
  H   H878      1.0  0.37809  0.09395  0.51665  1.0000
  C   C504      1.0  0.10932  0.46473  0.47682  1.0000
  H   H879      1.0  0.00927  0.48269  0.42933  1.0000
  C   C505      1.0  0.30576  0.08378  0.39848  1.0000
  H   H880      1.0  0.39200  0.11971  0.50746  1.0000
  H   H881      1.0  0.37788  0.12218  0.56422  1.0000
  H   H882      1.0  0.34116  0.07216  0.43277  1.0000
  C   C506      1.0  0.46174  0.15902  0.45086  1.0000
  S   S134      1.0  0.06688  0.41840  0.39891  1.0000
  H   H883      1.0  0.37123  0.00835  0.47888  1.0000
  H   H884      1.0  0.29490  0.09124  0.40492  1.0000
  C   C507      1.0  0.07766  0.42084  0.57548  1.0000
  C   C508      1.0  0.49542  0.15165  0.46178  1.0000
  H   H885      1.0  0.46153  0.17008  0.50419  1.0000
  C   C509      1.0  0.29512  0.05545  0.40543  1.0000
  H   H886      1.0  0.45618  0.09775  0.46609  1.0000
  H   H887      1.0  0.48297  0.16510  0.48424  1.0000
  S   S135      1.0  0.05714  0.34144  0.40111  1.0000
  H   H888      1.0  0.50096  0.14858  0.45218  1.0000
  H   H889      1.0  0.43940  0.01576  0.49434  1.0000
  C   C510      1.0  0.06315  0.48631  0.58340  1.0000
  H   H890      1.0  0.27208  0.07847  0.40645  1.0000
  H   H891      1.0  0.07469  0.47508  0.49468  1.0000
  H   H892      1.0  0.48650  0.05352  0.43263  1.0000
  H   H893      1.0  0.36258  0.09965  0.58011  1.0000
  H   H894      1.0  0.29752  0.04168  0.41116  1.0000
  H   H895      1.0  0.47100  0.16832  0.44721  1.0000
  H   H896      1.0  0.38708  0.03027  0.48431  1.0000
  C   C511      1.0  0.49822  0.99511  0.53971  1.0000
  C   C512      1.0  0.01459  0.39603  0.47555  1.0000
  H   H897      1.0  0.11622  0.43831  0.48852  1.0000
  H   H898      1.0  0.34916  0.01812  0.55948  1.0000
  H   H899      1.0  0.34726  0.06461  0.46175  1.0000
  H   H900      1.0  0.07697  0.46822  0.57070  1.0000
  H   H901      1.0  0.34097  0.11167  0.38773  1.0000
  C   C513      1.0  0.49607  0.01521  0.53641  1.0000
  C   C514      1.0  0.35108  0.02811  0.39301  1.0000
  C   C515      1.0  0.31234  0.06266  0.41785  1.0000
  H   H902      1.0  0.48918  0.06160  0.38698  1.0000
  H   H903      1.0  0.38867  0.03348  0.44691  1.0000
  C   C516      1.0  0.35997  0.05455  0.46230  1.0000
  H   H904      1.0  0.33691  0.03295  0.41136  1.0000
  H   H905      1.0  0.01566  0.43141  0.47075  1.0000
  C   C517      1.0  0.47222  0.15745  0.48809  1.0000
  H   H906      1.0  0.06668  0.48053  0.43866  1.0000
  H   H907      1.0  0.32391  0.02776  0.40243  1.0000
  C   C518      1.0  0.37685  0.11356  0.52698  1.0000
  H   H908      1.0  0.46653  0.02780  0.55519  1.0000
  H   H909      1.0  0.45963  0.13369  0.46364  1.0000
  H   H910      1.0  0.45082  0.00826  0.52748  1.0000
  H   H911      1.0  0.47108  0.08497  0.45499  1.0000
  H   H912      1.0  0.32200  0.07059  0.56556  1.0000
  C   C519      1.0  0.38190  0.12664  0.51454  1.0000
  H   H913      1.0  0.33700  0.06558  0.51783  1.0000
  C   C520      1.0  0.36893  0.09905  0.52495  1.0000
  C   C521      1.0  0.39518  0.04029  0.48279  1.0000
  C   C522      1.0  0.08647  0.40564  0.58291  1.0000
  S   S136      1.0  0.03602  0.31426  0.38711  1.0000
  H   H914      1.0  0.43797  0.07474  0.47475  1.0000
  H   H915      1.0  0.43935  0.11072  0.57490  1.0000
  C   C523      1.0  0.00979  0.38410  0.42586  1.0000
  H   H916      1.0  0.06379  0.35637  0.41964  1.0000
  C   C524      1.0  0.38395  0.10821  0.56501  1.0000
  C   C525      1.0  0.06852  0.46787  0.58041  1.0000
  H   H917      1.0  0.45332  0.04055  0.48693  1.0000
  N   N25       1.0  0.31006  0.06434  0.40463  1.0000
  H   H918      1.0  0.03393  0.37547  0.43373  1.0000
  C   C526      1.0  0.32735  0.00479  0.58467  1.0000
  H   H919      1.0  0.38017  0.02165  0.43281  1.0000
  H   H920      1.0  0.45106  0.04351  0.57266  1.0000
  H   H921      1.0  0.39980  0.13042  0.57957  1.0000
  N   N26       1.0  0.36605  0.08385  0.53617  1.0000
  C   C527      1.0  0.35386  0.07400  0.53389  1.0000
  C   C528      1.0  0.35746  0.09043  0.54824  1.0000
  C   C529      1.0  0.38411  0.07192  0.53753  1.0000
  C   C530      1.0  0.38375  0.05466  0.54798  1.0000
  C   C531      1.0  0.36214  0.06343  0.52321  1.0000
  C   C532      1.0  0.33894  0.10344  0.54842  1.0000
  C   C533      1.0  0.33301  0.11135  0.56023  1.0000
  C   C534      1.0  0.40248  0.04267  0.54757  1.0000
  C   C535      1.0  0.34833  0.05514  0.52098  1.0000
  H   H922      1.0  0.34150  0.08342  0.53139  1.0000
  H   H923      1.0  0.34895  0.06469  0.54272  1.0000
  H   H924      1.0  0.35524  0.07919  0.55640  1.0000
  H   H925      1.0  0.36673  0.09669  0.55060  1.0000
  H   H926      1.0  0.39172  0.06821  0.52839  1.0000
  H   H927      1.0  0.39262  0.07915  0.53974  1.0000
  H   H928      1.0  0.37478  0.04687  0.54702  1.0000
  H   H929      1.0  0.37892  0.05781  0.55749  1.0000
  H   H930      1.0  0.37336  0.05240  0.52577  1.0000
  H   H931      1.0  0.38894  0.10767  0.53102  1.0000
  H   H932      1.0  0.33915  0.11455  0.54002  1.0000
  H   H933      1.0  0.32859  0.09637  0.54855  1.0000
  H   H934      1.0  0.34255  0.11932  0.56018  1.0000
  H   H935      1.0  0.31947  0.12016  0.56041  1.0000
  H   H936      1.0  0.33235  0.10073  0.56897  1.0000
  H   H937      1.0  0.41284  0.05036  0.54627  1.0000
  H   H938      1.0  0.40266  0.03254  0.55655  1.0000
  H   H939      1.0  0.40601  0.03564  0.53971  1.0000
  H   H940      1.0  0.34309  0.04598  0.52977  1.0000
  C   C536      1.0  0.33264  0.04303  0.57338  1.0000
  C   C537      1.0  0.40084  0.02437  0.40123  1.0000
  Fe  Fe70      1.0  0.06272  0.48508  0.53012  1.0000
  H   H941      1.0  0.05639  0.46292  0.58114  1.0000
  H   H942      1.0  0.45388  0.14818  0.48142  1.0000
  H   H943      1.0  0.02352  0.30380  0.41589  1.0000
  H   H944      1.0  0.31747  0.08979  0.39691  1.0000
  H   H945      1.0  0.45018  0.16853  0.43414  1.0000
  H   H946      1.0  0.35617  0.10589  0.52174  1.0000
  C   C538      1.0  0.03135  0.39499  0.48069  1.0000
  C   C539      1.0  0.32515  0.06227  0.57467  1.0000
  H   H947      1.0  0.45429  0.04836  0.39183  1.0000
  C   C540      1.0  0.41137  0.00028  0.45806  1.0000
  H   H948      1.0  0.12024  0.36425  0.55163  1.0000
  C   C541      1.0  0.04872  0.39002  0.47118  1.0000
  C   C542      1.0  0.32898  0.06802  0.43247  1.0000
  H   H949      1.0  0.42688  0.12469  0.56328  1.0000
  C   C543      1.0  0.49570  0.10987  0.41263  1.0000
  H   H950      1.0  0.00851  0.43084  0.48753  1.0000
  C   C544      1.0  0.06381  0.38399  0.41115  1.0000
  H   H951      1.0  0.06412  0.40361  0.56149  1.0000
  H   H952      1.0  0.40540  0.05823  0.56747  1.0000
  C   C545      1.0  0.37921  0.02667  0.45481  1.0000
  H   H953      1.0  0.06520  0.39484  0.51132  1.0000
  S   S137      1.0  0.39507  0.01105  0.51520  1.0000
  H   H954      1.0  0.03194  0.38475  0.48954  1.0000
  H   H955      1.0  0.03142  0.40766  0.48278  1.0000
  H   H956      1.0  0.04003  0.37631  0.57153  1.0000
  C   C546      1.0  0.49113  0.05863  0.41205  1.0000
  C   C547      1.0  0.26198  0.05487  0.41105  1.0000
  H   H957      1.0  0.44745  0.14659  0.44275  1.0000
  H   H958      1.0  0.10088  0.40119  0.58021  1.0000
  H   H959      1.0  0.01389  0.43060  0.41926  1.0000
  H   H960      1.0  0.22848  0.07486  0.38956  1.0000
  H   H961      1.0  0.46086  0.06622  0.47636  1.0000
  H   H962      1.0  0.49287  0.06657  0.53240  1.0000
  H   H963      1.0  0.06045  0.38885  0.47523  1.0000
  H   H964      1.0  0.04962  0.37718  0.46883  1.0000
  H   H965      1.0  0.04942  0.40050  0.46240  1.0000
  H   H966      1.0  0.36947  0.01191  0.41693  1.0000
  H   H967      1.0  0.46288  0.99253  0.50284  1.0000
  S   S138      1.0  0.50084  0.11519  0.43468  1.0000
  S   S139      1.0  0.04606  0.47408  0.52207  1.0000
  C   C548      1.0  0.33393  0.03545  0.40186  1.0000
  C   C549      1.0  0.37536  0.09550  0.57404  1.0000
  H   H968      1.0  0.38931  0.05271  0.47669  1.0000
  H   H969      1.0  0.46107  0.16763  0.47167  1.0000
  H   H970      1.0  0.37135  0.06119  0.45746  1.0000
  H   H971      1.0  0.33812  0.06238  0.39547  1.0000
  N   N27       1.0  0.44672  0.04047  0.46944  1.0000
  C   C550      1.0  0.44979  0.02855  0.46033  1.0000
  C   C551      1.0  0.42678  0.04646  0.47468  1.0000
  C   C552      1.0  0.45387  0.05678  0.46196  1.0000
  H   H972      1.0  0.42027  0.08063  0.55117  1.0000
  H   H973      1.0  0.32440  0.01082  0.57515  1.0000
  C   C553      1.0  0.41461  0.03326  0.47660  1.0000
  H   H974      1.0  0.32959  0.08219  0.41333  1.0000
  H   H975      1.0  0.30037  0.07073  0.42312  1.0000
  H   H976      1.0  0.44303  0.03584  0.45229  1.0000
  H   H977      1.0  0.44351  0.01696  0.46485  1.0000
  H   H978      1.0  0.08152  0.37266  0.56407  1.0000
  H   H979      1.0  0.42093  0.05864  0.46825  1.0000
  H   H980      1.0  0.44720  0.06323  0.45378  1.0000
  C   C554      1.0  0.11026  0.47425  0.48690  1.0000
  C   C555      1.0  0.05904  0.42651  0.57893  1.0000
  H   H981      1.0  0.46719  0.01376  0.50219  1.0000
  C   C556      1.0  0.27594  0.06453  0.41149  1.0000
  H   H982      1.0  0.49066  0.10543  0.39587  1.0000
  H   H983      1.0  0.41424  0.03144  0.46725  1.0000
  H   H984      1.0  0.48528  0.00367  0.44183  1.0000
  C   C557      1.0  0.35961  0.00619  0.57714  1.0000
  H   H985      1.0  0.36983  0.13370  0.51056  1.0000
  H   H986      1.0  0.39436  0.04296  0.49209  1.0000
  H   H987      1.0  0.34479  0.04291  0.56562  1.0000
  H   H988      1.0  0.38785  0.13658  0.51629  1.0000
  H   H989      1.0  0.46909  0.15006  0.43308  1.0000
  H   H990      1.0  0.31699  0.07738  0.43649  1.0000
  N   N28       1.0  0.08734  0.38254  0.54378  1.0000
  C   C558      1.0  0.07433  0.37775  0.55611  1.0000
  C   C559      1.0  0.10010  0.36577  0.54073  1.0000
  C   C560      1.0  0.09724  0.39531  0.54522  1.0000
  C   C561      1.0  0.07779  0.39136  0.53299  1.0000
  C   C562      1.0  0.00462  0.36991  0.40334  1.0000
  C   C563      1.0  0.05875  0.39307  0.56004  1.0000
  C   C564      1.0  0.11336  0.39940  0.53424  1.0000
  H   H991      1.0  0.46264  0.04841  0.54374  1.0000
  H   H992      1.0  0.47142  0.03041  0.47626  1.0000
  C   C565      1.0  0.11238  0.35565  0.55027  1.0000
  H   H993      1.0  0.48445  0.03906  0.56424  1.0000
  C   C566      1.0  0.12156  0.41325  0.53640  1.0000
  H   H994      1.0  0.03553  0.39783  0.57522  1.0000
  H   H995      1.0  0.44726  0.06428  0.56125  1.0000
  H   H996      1.0  0.09250  0.35619  0.54034  1.0000
  H   H997      1.0  0.10872  0.36852  0.53108  1.0000
  H   H998      1.0  0.10205  0.39069  0.55426  1.0000
  H   H999      1.0  0.08794  0.40829  0.54606  1.0000
  H   H1000     1.0  0.07032  0.40498  0.53389  1.0000
  H   H1001     1.0  0.08767  0.39326  0.52383  1.0000
  C   C567      1.0  0.35781  0.00587  0.56374  1.0000
  C   C568      1.0  0.46548  0.04233  0.55325  1.0000
  H   H1002     1.0  0.02308  0.35867  0.42176  1.0000
  H   H1003     1.0  0.31289  0.04877  0.42334  1.0000
  H   H1004     1.0  0.10914  0.40474  0.52505  1.0000
  H   H1005     1.0  0.12413  0.38734  0.53344  1.0000
  H   H1006     1.0  0.48807  0.07020  0.40432  1.0000
  C   C569      1.0  0.36756  0.99866  0.46312  1.0000
  H   H1007     1.0  0.45228  0.18184  0.49044  1.0000
  H   H1008     1.0  0.49217  0.12487  0.48346  1.0000
  H   H1009     1.0  0.35023  0.00446  0.42794  1.0000
  H   H1010     1.0  0.46843  0.05330  0.45780  1.0000
  C   C570      1.0  0.40620  0.00631  0.40104  1.0000
  C   C571      1.0  0.48382  0.06472  0.42460  1.0000
  C   C572      1.0  0.05836  0.36323  0.40091  1.0000
  H   H1011     1.0  0.00564  0.40407  0.49948  1.0000
  C   C573      1.0  0.39943  0.07218  0.56676  1.0000
  H   H1012     1.0  0.13342  0.41551  0.52867  1.0000
  H   H1013     1.0  0.11163  0.42604  0.53638  1.0000
  H   H1014     1.0  0.12590  0.40875  0.54559  1.0000
  C   C574      1.0  0.40786  0.08482  0.55761  1.0000
  C   C575      1.0  0.48288  0.04629  0.55452  1.0000
  H   H1015     1.0  0.48041  0.06070  0.55441  1.0000
  H   H1016     1.0  0.34171  0.05952  0.41510  1.0000
  H   H1017     1.0  0.36060  0.04923  0.47242  1.0000
  S   S140      1.0  0.00742  0.45987  0.55061  1.0000
  C   C576      1.0  0.49754  0.05231  0.53196  1.0000
  H   H1018     1.0  0.01991  0.33589  0.40595  1.0000
  C   C577      1.0  0.42820  0.12237  0.57324  1.0000
  H   H1019     1.0  0.02732  0.44644  0.52833  1.0000
  H   H1020     1.0  0.35781  0.04579  0.44643  1.0000
  C   C578      1.0  0.06460  0.38152  0.53115  1.0000
  H   H1021     1.0  0.47994  0.13363  0.45224  1.0000
  C   C579      1.0  0.06225  0.39748  0.40032  1.0000
  C   C580      1.0  0.45685  0.16848  0.49617  1.0000
  C   C581      1.0  0.12041  0.44574  0.47870  1.0000
  H   H1022     1.0  0.05214  0.43808  0.57316  1.0000
  C   C582      1.0  0.01043  0.31310  0.41812  1.0000
  S   S141      1.0  0.37175  0.06113  0.58475  1.0000
  C   C583      1.0  0.02000  0.38335  0.43584  1.0000
  H   H1023     1.0  0.46917  0.07030  0.42590  1.0000
  C   C584      1.0  0.46966  0.02073  0.45471  1.0000
  N   N29       1.0  0.47961  0.14302  0.46860  1.0000
  C   C585      1.0  0.37021  0.99603  0.47674  1.0000
  H   H1024     1.0  0.13493  0.44572  0.47682  1.0000
  H   H1025     1.0  0.43707  0.04652  0.56165  1.0000
  N   N30       1.0  0.48807  0.03629  0.40015  1.0000
  H   H1026     1.0  0.35573  0.01375  0.39678  1.0000
  H   H1027     1.0  0.35482  0.04739  0.51348  1.0000
  C   C586      1.0  0.32909  0.06848  0.41876  1.0000
  H   H1028     1.0  0.11850  0.33041  0.54448  1.0000
  H   H1029     1.0  0.34959  0.03294  0.46173  1.0000
  H   H1030     1.0  0.44911  0.16545  0.45662  1.0000
  C   C587      1.0  0.37604  0.07618  0.38885  1.0000
  C   C588      1.0  0.41182  0.02026  0.51694  1.0000
  C   C589      1.0  0.01336  0.44634  0.52963  1.0000
  N   N31       1.0  0.49971  0.04114  0.54487  1.0000
  H   H1031     1.0  0.06848  0.36665  0.55601  1.0000
  H   H1032     1.0  0.38235  0.01488  0.55308  1.0000
  H   H1033     1.0  0.07186  0.36859  0.52869  1.0000
  C   C590      1.0  0.38300  0.07745  0.57475  1.0000
  C   C591      1.0  0.12572  0.33979  0.54564  1.0000
  H   H1034     1.0  0.24837  0.06151  0.41548  1.0000
  H   H1035     1.0  0.44530  0.16183  0.50010  1.0000
  C   C592      1.0  0.04633  0.38653  0.57251  1.0000
  H   H1036     1.0  0.32221  0.03887  0.57068  1.0000
  C   C593      1.0  0.46213  0.05854  0.39051  1.0000
  H   H1037     1.0  0.05399  0.37914  0.53980  1.0000
  C   C594      1.0  0.00386  0.43386  0.47858  1.0000
  C   C595      1.0  0.46665  0.00479  0.49637  1.0000
  C   C596      1.0  0.36420  0.09160  0.39190  1.0000
  H   H1038     1.0  0.22570  0.02780  0.38841  1.0000
  H   H1039     1.0  0.45348  0.00448  0.48214  1.0000
  H   H1040     1.0  0.00943  0.37005  0.49776  1.0000
  H   H1041     1.0  0.36074  0.13829  0.58349  1.0000
  C   C597      1.0  0.47096  0.00839  0.44612  1.0000
  H   H1042     1.0  0.37447  0.00255  0.54528  1.0000
  H   H1043     1.0  0.35175  0.99461  0.56433  1.0000
  H   H1044     1.0  0.46125  0.99809  0.42377  1.0000
  H   H1045     1.0  0.38709  0.06999  0.39359  1.0000
  H   H1046     1.0  0.43155  0.13429  0.57448  1.0000
  H   H1047     1.0  0.13417  0.33264  0.55269  1.0000
  H   H1048     1.0  0.49776  0.99626  0.40527  1.0000
  H   H1049     1.0  0.46536  0.99664  0.45161  1.0000
  H   H1050     1.0  0.03465  0.48633  0.45944  1.0000
  H   H1051     1.0  0.04267  0.48646  0.49380  1.0000
  H   H1052     1.0  0.00442  0.36054  0.52124  1.0000
  C   C598      1.0  0.37295  0.01230  0.44051  1.0000
  H   H1053     1.0  0.00524  0.35774  0.43518  1.0000
  H   H1054     1.0  0.36697  0.99257  0.58085  1.0000
  C   C599      1.0  0.48514  0.12462  0.47626  1.0000
  H   H1055     1.0  0.01060  0.42396  0.58002  1.0000
  H   H1056     1.0  0.42759  0.99521  0.52471  1.0000
  H   H1057     1.0  0.49064  0.00563  0.41893  1.0000
  H   H1058     1.0  0.48165  0.02113  0.53686  1.0000
  H   H1059     1.0  0.01300  0.37744  0.44543  1.0000
  H   H1060     1.0  0.08958  0.49055  0.41050  1.0000
  H   H1061     1.0  0.09907  0.32918  0.38934  1.0000
  C   C600      1.0  0.41058  0.11894  0.58224  1.0000
  H   H1062     1.0  0.29085  0.01941  0.58191  1.0000
  H   H1063     1.0  0.12650  0.48588  0.50152  1.0000
  H   H1064     1.0  0.49385  0.99088  0.53259  1.0000
  C   C601      1.0  0.00896  0.36527  0.42530  1.0000
  H   H1065     1.0  0.33514  0.06743  0.57717  1.0000
  H   H1066     1.0  0.05653  0.48551  0.47826  1.0000
  H   H1067     1.0  0.20786  0.00760  0.38670  1.0000
  H   H1068     1.0  0.43491  0.99354  0.42106  1.0000
  H   H1069     1.0  0.38533  0.99118  0.55830  1.0000
  H   H1070     1.0  0.40773  0.10726  0.58041  1.0000
  C   C602      1.0  0.00784  0.44098  0.52070  1.0000
  H   H1071     1.0  0.23966  0.02726  0.58302  1.0000
  H   H1072     1.0  0.48852  0.10507  0.46493  1.0000
  C   C603      1.0  0.37489  0.99581  0.43513  1.0000
  C   C604      1.0  0.49714  0.11073  0.46845  1.0000
  H   H1073     1.0  0.00339  0.48583  0.45467  1.0000
  H   H1074     1.0  0.05390  0.38089  0.58023  1.0000
  C   C605      1.0  0.39875  0.99803  0.45045  1.0000
  C   C606      1.0  0.47230  0.99201  0.41674  1.0000
  H   H1075     1.0  0.00393  0.30838  0.42813  1.0000
  H   H1076     1.0  0.49974  0.01404  0.55515  1.0000
  H   H1077     1.0  0.01617  0.37852  0.51563  1.0000
  H   H1078     1.0  0.40569  0.00159  0.44037  1.0000
  H   H1079     1.0  0.07571  0.49028  0.58308  1.0000
  H   H1080     1.0  0.25858  0.00899  0.58496  1.0000
  C   C607      1.0  0.35001  0.09957  0.38555  1.0000
  Fe  Fe71      1.0  0.05498  0.36350  0.62062  1.0000
  S   S142      1.0  0.03887  0.35541  0.64022  1.0000
  S   S143      1.0  0.04563  0.39226  0.61184  1.0000
  Fe  Fe72      1.0  0.07588  0.32578  0.62023  1.0000
  S   S144      1.0  0.06120  0.31506  0.63971  1.0000
  S   S145      1.0  0.09695  0.30828  0.60832  1.0000
  Fe  Fe73      1.0  0.03678  0.33268  0.63327  1.0000
  Fe  Fe74      1.0  0.06503  0.33881  0.64460  1.0000
  S   S146      1.0  0.07027  0.33594  0.66385  1.0000
  S   S147      1.0  0.05095  0.34174  0.61336  1.0000
  S   S148      1.0  0.08157  0.34857  0.62554  1.0000
  H   H1081     1.0  0.17541  0.39001  0.76690  1.0000
  H   H1082     1.0  0.14401  0.39710  0.77063  1.0000
  H   H1083     1.0  0.09265  0.16319  0.62027  1.0000
  H   H1084     1.0  0.02584  0.17586  0.64094  1.0000
  Fe  Fe75      1.0  0.15744  0.30377  0.68916  1.0000
  S   S149      1.0  0.13918  0.29494  0.70775  1.0000
  S   S150      1.0  0.14920  0.32384  0.67202  1.0000
  Fe  Fe76      1.0  0.19079  0.27851  0.69737  1.0000
  S   S151      1.0  0.17508  0.26770  0.71640  1.0000
  S   S152      1.0  0.22070  0.26831  0.69160  1.0000
  Fe  Fe77      1.0  0.15478  0.26746  0.70580  1.0000
  S   S153      1.0  0.14489  0.24243  0.70843  1.0000
  Fe  Fe78      1.0  0.16137  0.29612  0.71649  1.0000
  S   S154      1.0  0.15692  0.30484  0.73496  1.0000
  S   S155      1.0  0.17163  0.27620  0.68673  1.0000
  S   S156      1.0  0.17843  0.30706  0.69800  1.0000
  Fe  Fe79      1.0  0.16886  0.08841  0.65299  1.0000
  S   S157      1.0  0.17195  0.07616  0.67298  1.0000
  S   S158      1.0  0.14421  0.10668  0.64687  1.0000
  Fe  Fe80      1.0  0.20742  0.07254  0.64185  1.0000
  S   S159      1.0  0.21398  0.05966  0.66094  1.0000
  S   S160      1.0  0.22658  0.06626  0.62410  1.0000
  Fe  Fe81      1.0  0.18740  0.05170  0.66542  1.0000
  S   S161      1.0  0.18717  0.02271  0.67434  1.0000
  Fe  Fe82      1.0  0.19815  0.08527  0.66655  1.0000
  S   S162      1.0  0.20282  0.10336  0.67724  1.0000
  S   S163      1.0  0.18184  0.06334  0.64602  1.0000
  S   S164      1.0  0.19408  0.09884  0.64690  1.0000
  Fe  Fe83      1.0  0.08856  0.21756  0.64836  1.0000
  S   S165      1.0  0.06487  0.23480  0.65845  1.0000
  S   S166      1.0  0.10105  0.22563  0.62772  1.0000
  Fe  Fe84      1.0  0.09066  0.18839  0.67175  1.0000
  S   S167      1.0  0.06749  0.20357  0.68381  1.0000
  S   S168      1.0  0.10303  0.16131  0.68167  1.0000
  Fe  Fe85      1.0  0.05432  0.21002  0.66728  1.0000
  Fe  Fe86      1.0  0.08021  0.22684  0.67398  1.0000
  S   S169      1.0  0.08054  0.24902  0.68269  1.0000
  S   S170      1.0  0.07672  0.19330  0.65581  1.0000
  S   S171      1.0  0.10470  0.21109  0.66329  1.0000
  Fe  Fe87      1.0  0.26128  0.17080  0.68936  1.0000
  S   S172      1.0  0.26495  0.14870  0.70615  1.0000
  S   S173      1.0  0.23355  0.18794  0.69058  1.0000
  Fe  Fe88      1.0  0.29917  0.15882  0.67490  1.0000
  S   S174      1.0  0.30584  0.13590  0.69080  1.0000
  S   S175      1.0  0.31728  0.16371  0.65555  1.0000
  Fe  Fe89      1.0  0.27841  0.13156  0.69204  1.0000
  S   S176      1.0  0.27328  0.10474  0.69306  1.0000
  Fe  Fe90      1.0  0.29176  0.15557  0.70323  1.0000
  S   S177      1.0  0.29789  0.15813  0.72116  1.0000
  S   S178      1.0  0.27270  0.15322  0.67542  1.0000
  S   S179      1.0  0.28708  0.17896  0.68718  1.0000
  Fe  Fe91      1.0  0.24200  0.33943  0.78052  1.0000
  C   C608      1.0  0.18950  0.27258  0.78133  1.0000
  H   H1085     1.0  0.37531  0.99779  0.61895  1.0000
  Fe  Fe92      1.0  0.21477  0.33803  0.76595  1.0000
  S   S180      1.0  0.01178  0.32228  0.63771  1.0000
  S   S181      1.0  0.20867  0.34437  0.74640  1.0000
  H   H1086     1.0  0.35817  0.46430  0.76433  1.0000
  H   H1087     1.0  0.27241  0.02390  0.69285  1.0000
  C   C609      1.0  0.05815  0.40240  0.59757  1.0000
  H   H1088     1.0  0.49042  0.25139  0.75897  1.0000
  S   S182      1.0  0.21652  0.35809  0.77614  1.0000
  S   S183      1.0  0.24173  0.32123  0.76858  1.0000
  H   H1089     1.0  0.34777  0.14301  0.75498  1.0000
  H   H1090     1.0  0.07046  0.10252  0.67895  1.0000
  H   H1091     1.0  0.40373  0.29490  0.75944  1.0000
  H   H1092     1.0  0.28784  0.24031  0.77100  1.0000
  C   C610      1.0  0.28055  0.04961  0.65398  1.0000
  S   S184      1.0  0.42362  0.26490  0.77526  1.0000
  H   H1093     1.0  0.45281  0.19906  0.75657  1.0000
  S   S185      1.0  0.40028  0.35390  0.77151  1.0000
  N   N32       1.0  0.27881  0.03493  0.66568  1.0000
  H   H1094     1.0  0.23281  0.22259  0.76381  1.0000
  S   S186      1.0  0.43917  0.31160  0.76834  1.0000
  H   H1095     1.0  0.31913  0.02562  0.68598  1.0000
  H   H1096     1.0  0.25925  0.18444  0.65427  1.0000
  H   H1097     1.0  0.14331  0.34305  0.59882  1.0000
  H   H1098     1.0  0.09564  0.12415  0.65871  1.0000
  H   H1099     1.0  0.07833  0.38933  0.62301  1.0000
  C   C611      1.0  0.16962  0.15466  0.66010  1.0000
  H   H1100     1.0  0.14672  0.41274  0.74210  1.0000
  H   H1101     1.0  0.04747  0.23351  0.69810  1.0000
  H   H1102     1.0  0.23935  0.00767  0.62659  1.0000
  C   C612      1.0  0.38064  0.16210  0.75696  1.0000
  Fe  Fe93      1.0  0.34074  0.21597  0.76723  1.0000
  S   S187      1.0  0.36568  0.21629  0.75184  1.0000
  H   H1103     1.0  0.21182  0.26311  0.72412  1.0000
  Fe  Fe94      1.0  0.31672  0.24046  0.74948  1.0000
  S   S188      1.0  0.34005  0.24269  0.73313  1.0000
  S   S189      1.0  0.29030  0.25473  0.74422  1.0000
  Fe  Fe95      1.0  0.34847  0.21326  0.73983  1.0000
  S   S190      1.0  0.35687  0.19457  0.72629  1.0000
  Fe  Fe96      1.0  0.35416  0.24564  0.74709  1.0000
  S   S191      1.0  0.36653  0.26942  0.74345  1.0000
  S   S192      1.0  0.32429  0.21104  0.75557  1.0000
  S   S193      1.0  0.33006  0.24537  0.76312  1.0000
  Fe  Fe97      1.0  0.34379  0.08278  0.62550  1.0000
  S   S194      1.0  0.34028  0.09648  0.60582  1.0000
  S   S195      1.0  0.35648  0.09219  0.63733  1.0000
  Fe  Fe98      1.0  0.32954  0.05117  0.62564  1.0000
  S   S196      1.0  0.32451  0.06211  0.60611  1.0000
  S   S197      1.0  0.32677  0.02405  0.63698  1.0000
  Fe  Fe99      1.0  0.35121  0.06945  0.60139  1.0000
  H   H1104     1.0  0.01492  0.28959  0.69019  1.0000
  Fe  Fe100     1.0  0.31389  0.08802  0.61231  1.0000
  S   S198      1.0  0.28886  0.10774  0.60833  1.0000
  S   S199      1.0  0.35715  0.05647  0.62050  1.0000
  S   S200      1.0  0.31651  0.07633  0.63245  1.0000
  C   C613      1.0  0.12725  0.42649  0.75545  1.0000
  H   H1105     1.0  0.16123  0.24407  0.65491  1.0000
  C   C614      1.0  0.21147  0.27247  0.74111  1.0000
  H   H1106     1.0  0.15746  0.16361  0.70205  1.0000
  H   H1107     1.0  0.26480  0.08462  0.64188  1.0000
  H   H1108     1.0  0.29772  0.03865  0.62324  1.0000
  H   H1109     1.0  0.19477  0.38492  0.73982  1.0000
  C   C615      1.0  0.14490  0.41333  0.75212  1.0000
  C   C616      1.0  0.03360  0.23050  0.63442  1.0000
  H   H1110     1.0  0.33229  0.02677  0.66991  1.0000
  H   H1111     1.0  0.27648  0.02404  0.61909  1.0000
  H   H1112     1.0  0.21142  0.40628  0.74109  1.0000
  H   H1113     1.0  0.02409  0.12073  0.65692  1.0000
  C   C617      1.0  0.40731  0.26670  0.76663  1.0000
  C   C618      1.0  0.39971  0.28296  0.75961  1.0000
  C   C619      1.0  0.38724  0.28366  0.75250  1.0000
  C   C620      1.0  0.38202  0.26821  0.75258  1.0000
  C   C621      1.0  0.38944  0.25203  0.75975  1.0000
  C   C622      1.0  0.40221  0.25127  0.76658  1.0000
  H   H1114     1.0  0.25173  0.07812  0.65770  1.0000
  H   H1115     1.0  0.38178  0.29619  0.74681  1.0000
  H   H1116     1.0  0.38567  0.24003  0.75978  1.0000
  H   H1117     1.0  0.40818  0.23867  0.77185  1.0000
  H   H1118     1.0  0.37596  0.12849  0.72578  1.0000
  C   C623      1.0  0.31870  0.16800  0.78356  1.0000
  H   H1119     1.0  0.35300  0.21804  0.69700  1.0000
  H   H1120     1.0  0.19702  0.27928  0.74230  1.0000
  C   C624      1.0  0.30509  0.04294  0.67138  1.0000
  C   C625      1.0  0.24579  0.03877  0.69834  1.0000
  C   C626      1.0  0.04045  0.12152  0.66955  1.0000
  H   H1121     1.0  0.09886  0.16796  0.63310  1.0000
  H   H1122     1.0  0.17173  0.22818  0.76029  1.0000
  H   H1123     1.0  0.19990  0.99908  0.63732  1.0000
  C   C627      1.0  0.40425  0.17444  0.76140  1.0000
  C   C628      1.0  0.37068  0.13640  0.60025  1.0000
  C   C629      1.0  0.27837  0.16931  0.64090  1.0000
  C   C630      1.0  0.27411  0.25998  0.75745  1.0000
  C   C631      1.0  0.25911  0.27365  0.75573  1.0000
  C   C632      1.0  0.24651  0.27868  0.76624  1.0000
  H   H1124     1.0  0.24545  0.99985  0.60753  1.0000
  C   C633      1.0  0.20084  0.24489  0.74934  1.0000
  H   H1125     1.0  0.25748  0.28071  0.74629  1.0000
  H   H1126     1.0  0.23503  0.28943  0.76489  1.0000
  C   C634      1.0  0.20695  0.99992  0.62725  1.0000
  C   C635      1.0  0.34995  0.16413  0.76928  1.0000
  H   H1127     1.0  0.00653  0.25782  0.63873  1.0000
  H   H1128     1.0  0.38680  0.08237  0.59905  1.0000
  H   H1129     1.0  0.38478  0.09812  0.77561  1.0000
  C   C636      1.0  0.26335  0.25570  0.78021  1.0000
  H   H1130     1.0  0.39942  0.41822  0.77898  1.0000
  H   H1131     1.0  0.43597  0.18920  0.76889  1.0000
  H   H1132     1.0  0.28137  0.00731  0.59722  1.0000
  H   H1133     1.0  0.32687  0.03448  0.59389  1.0000
  H   H1134     1.0  0.05291  0.26826  0.63898  1.0000
  C   C637      1.0  0.02376  0.29023  0.68057  1.0000
  H   H1135     1.0  0.01011  0.25786  0.62250  1.0000
  H   H1136     1.0  0.09831  0.07934  0.68017  1.0000
  H   H1137     1.0  0.37943  0.11163  0.59377  1.0000
  H   H1138     1.0  0.35209  0.40264  0.78457  1.0000
  H   H1139     1.0  0.07024  0.14722  0.63527  1.0000
  H   H1140     1.0  0.25876  0.19426  0.63776  1.0000
  H   H1141     1.0  0.27698  0.19508  0.64426  1.0000
  S   S201      1.0  0.02456  0.21065  0.67145  1.0000
  C   C638      1.0  0.31381  0.16949  0.72168  1.0000
  C   C639      1.0  0.32861  0.17212  0.71175  1.0000
  C   C640      1.0  0.34175  0.17992  0.71317  1.0000
  C   C641      1.0  0.33984  0.18563  0.72434  1.0000
  C   C642      1.0  0.32484  0.18326  0.73410  1.0000
  C   C643      1.0  0.31201  0.17512  0.73282  1.0000
  H   H1142     1.0  0.33023  0.16762  0.70317  1.0000
  H   H1143     1.0  0.35341  0.18149  0.70561  1.0000
  H   H1144     1.0  0.32343  0.18693  0.74289  1.0000
  H   H1145     1.0  0.30073  0.17292  0.74060  1.0000
  C   C644      1.0  0.32785  0.14376  0.65048  1.0000
  C   C645      1.0  0.33031  0.14311  0.63775  1.0000
  C   C646      1.0  0.33819  0.12703  0.63375  1.0000
  C   C647      1.0  0.34451  0.11184  0.64235  1.0000
  C   C648      1.0  0.34247  0.11264  0.65496  1.0000
  C   C649      1.0  0.33385  0.12845  0.65907  1.0000
  H   H1146     1.0  0.32591  0.15500  0.63105  1.0000
  H   H1147     1.0  0.33979  0.12650  0.62398  1.0000
  H   H1148     1.0  0.34751  0.10098  0.66161  1.0000
  H   H1149     1.0  0.33241  0.12891  0.66882  1.0000
  C   C650      1.0  0.17919  0.01107  0.66641  1.0000
  H   H1150     1.0  0.21203  0.01411  0.60361  1.0000
  H   H1151     1.0  0.23314  0.04441  0.69481  1.0000
  C   C651      1.0  0.16305  0.01081  0.65089  1.0000
  C   C652      1.0  0.16845  0.02015  0.65764  1.0000
  H   H1152     1.0  0.15491  0.01800  0.64402  1.0000
  H   H1153     1.0  0.16419  0.03440  0.65607  1.0000
  C   C653      1.0  0.22375  0.10362  0.67983  1.0000
  C   C654      1.0  0.23645  0.08801  0.68262  1.0000
  C   C655      1.0  0.25177  0.08854  0.68649  1.0000
  C   C656      1.0  0.25457  0.10466  0.68740  1.0000
  C   C657      1.0  0.24227  0.12034  0.68404  1.0000
  C   C658      1.0  0.22688  0.11979  0.68034  1.0000
  H   H1154     1.0  0.23401  0.07551  0.68236  1.0000
  H   H1155     1.0  0.26131  0.07646  0.68913  1.0000
  H   H1156     1.0  0.24422  0.13282  0.68478  1.0000
  H   H1157     1.0  0.21729  0.13194  0.67803  1.0000
  C   C659      1.0  0.27118  0.09691  0.61140  1.0000
  C   C660      1.0  0.25347  0.10569  0.61539  1.0000
  C   C661      1.0  0.23952  0.09643  0.61914  1.0000
  C   C662      1.0  0.24329  0.07859  0.61849  1.0000
  C   C663      1.0  0.26080  0.07019  0.61369  1.0000
  C   C664      1.0  0.27477  0.07925  0.61037  1.0000
  H   H1158     1.0  0.25058  0.11947  0.61593  1.0000
  H   H1159     1.0  0.22588  0.10303  0.62259  1.0000
  C   C665      1.0  0.03293  0.23373  0.69974  1.0000
  C   C666      1.0  0.05061  0.13511  0.65978  1.0000
  C   C667      1.0  0.13377  0.12212  0.65648  1.0000
  C   C668      1.0  0.13099  0.11666  0.66966  1.0000
  C   C669      1.0  0.12135  0.12879  0.67731  1.0000
  C   C670      1.0  0.11502  0.14652  0.67182  1.0000
  C   C671      1.0  0.11825  0.15213  0.65864  1.0000
  C   C672      1.0  0.12731  0.13984  0.65098  1.0000
  H   H1160     1.0  0.13573  0.10294  0.67395  1.0000
  H   H1161     1.0  0.11865  0.12441  0.68750  1.0000
  H   H1162     1.0  0.11357  0.16586  0.65435  1.0000
  H   H1163     1.0  0.12945  0.14407  0.64077  1.0000
  C   C673      1.0  0.22575  0.24531  0.69285  1.0000
  C   C674      1.0  0.21337  0.23517  0.70039  1.0000
  C   C675      1.0  0.21655  0.21717  0.70035  1.0000
  C   C676      1.0  0.23202  0.20923  0.69265  1.0000
  C   C677      1.0  0.24493  0.21910  0.68560  1.0000
  C   C678      1.0  0.24179  0.23716  0.68574  1.0000
  H   H1164     1.0  0.20102  0.24125  0.70596  1.0000
  H   H1165     1.0  0.20670  0.20955  0.70599  1.0000
  H   H1166     1.0  0.25683  0.21307  0.67952  1.0000
  H   H1167     1.0  0.25126  0.24507  0.67981  1.0000
  C   C679      1.0  0.17171  0.31569  0.73779  1.0000
  C   C680      1.0  0.18274  0.32530  0.72794  1.0000
  C   C681      1.0  0.19423  0.33380  0.73068  1.0000
  C   C682      1.0  0.19501  0.33252  0.74325  1.0000
  C   C683      1.0  0.18405  0.32282  0.75306  1.0000
  C   C684      1.0  0.17217  0.31483  0.75035  1.0000
  H   H1168     1.0  0.18223  0.32639  0.71822  1.0000
  H   H1169     1.0  0.20250  0.34143  0.72301  1.0000
  H   H1170     1.0  0.18438  0.32175  0.76278  1.0000
  H   H1171     1.0  0.16343  0.30771  0.75802  1.0000
  C   C685      1.0  0.12667  0.24443  0.70157  1.0000
  C   C686      1.0  0.12223  0.22907  0.70067  1.0000
  C   C687      1.0  0.10829  0.23030  0.69472  1.0000
  C   C688      1.0  0.09820  0.24693  0.69013  1.0000
  C   C689      1.0  0.10218  0.26226  0.69148  1.0000
  C   C690      1.0  0.11666  0.26105  0.69689  1.0000
  H   H1172     1.0  0.12951  0.21620  0.70465  1.0000
  H   H1173     1.0  0.10509  0.21841  0.69393  1.0000
  H   H1174     1.0  0.09419  0.27517  0.68821  1.0000
  H   H1175     1.0  0.11984  0.27296  0.69766  1.0000
  H   H1176     1.0  0.32417  0.22952  0.68948  1.0000
  H   H1177     1.0  0.19895  0.29454  0.71938  1.0000
  H   H1178     1.0  0.07659  0.17751  0.62994  1.0000
  C   C691      1.0  0.08766  0.16551  0.63005  1.0000
  H   H1179     1.0  0.26366  0.05646  0.61304  1.0000
  H   H1180     1.0  0.25348  0.04883  0.65181  1.0000
  C   C692      1.0  0.01793  0.18181  0.64882  1.0000
  C   C693      1.0  0.28828  0.99787  0.62839  1.0000
  H   H1181     1.0  0.11756  0.16620  0.71693  1.0000
  H   H1182     1.0  0.09245  0.08333  0.66504  1.0000
  H   H1183     1.0  0.25515  0.01860  0.68759  1.0000
  H   H1184     1.0  0.25154  0.11374  0.65510  1.0000
  H   H1185     1.0  0.18045  0.40568  0.74228  1.0000
  H   H1186     1.0  0.04100  0.14816  0.65845  1.0000
  C   C694      1.0  0.30830  0.23892  0.70663  1.0000
  H   H1187     1.0  0.22128  0.24181  0.64965  1.0000
  C   C695      1.0  0.28675  0.01626  0.62426  1.0000
  C   C696      1.0  0.20417  0.39857  0.74984  1.0000
  C   C697      1.0  0.37050  0.13489  0.77143  1.0000
  C   C698      1.0  0.09241  0.33220  0.66578  1.0000
  C   C699      1.0  0.09695  0.32174  0.67715  1.0000
  C   C700      1.0  0.11440  0.31886  0.67909  1.0000
  C   C701      1.0  0.12722  0.32703  0.66987  1.0000
  C   C702      1.0  0.12254  0.33784  0.65860  1.0000
  C   C703      1.0  0.10531  0.34009  0.65643  1.0000
  H   H1188     1.0  0.08701  0.31563  0.68443  1.0000
  H   H1189     1.0  0.11784  0.31052  0.68779  1.0000
  H   H1190     1.0  0.13236  0.34433  0.65149  1.0000
  H   H1191     1.0  0.10194  0.34811  0.64765  1.0000
  C   C704      1.0  0.09701  0.28545  0.61361  1.0000
  C   C705      1.0  0.09051  0.27834  0.62635  1.0000
  C   C706      1.0  0.09209  0.26001  0.63075  1.0000
  C   C707      1.0  0.09955  0.24862  0.62234  1.0000
  C   C708      1.0  0.10600  0.25565  0.60954  1.0000
  C   C709      1.0  0.10492  0.27401  0.60521  1.0000
  H   H1192     1.0  0.08492  0.28679  0.63298  1.0000
  H   H1193     1.0  0.08772  0.25474  0.64070  1.0000
  H   H1194     1.0  0.11194  0.24687  0.60300  1.0000
  H   H1195     1.0  0.23346  0.01647  0.65819  1.0000
  H   H1196     1.0  0.24426  0.02801  0.64303  1.0000
  H   H1197     1.0  0.46932  0.19378  0.77387  1.0000
  H   H1198     1.0  0.21587  0.00598  0.64782  1.0000
  C   C710      1.0  0.44304  0.21114  0.77305  1.0000
  H   H1199     1.0  0.34231  0.22678  0.71100  1.0000
  C   C711      1.0  0.34543  0.00215  0.59975  1.0000
  H   H1200     1.0  0.29560  0.05076  0.67814  1.0000
  H   H1201     1.0  0.16732  0.16898  0.65999  1.0000
  H   H1202     1.0  0.29474  0.20941  0.70913  1.0000
  H   H1203     1.0  0.03589  0.15695  0.67686  1.0000
  H   H1204     1.0  0.37687  0.44045  0.77730  1.0000
  C   C712      1.0  0.29649  0.28381  0.77966  1.0000
  H   H1205     1.0  0.27886  0.99938  0.67959  1.0000
  C   C713      1.0  0.44025  0.20183  0.76376  1.0000
  H   H1206     1.0  0.08489  0.15575  0.65536  1.0000
  H   H1207     1.0  0.36759  0.13697  0.78127  1.0000
  H   H1208     1.0  0.18718  0.37034  0.76148  1.0000
  C   C714      1.0  0.35953  0.14940  0.75147  1.0000
  H   H1209     1.0  0.03109  0.22398  0.69505  1.0000
  N   N33       1.0  0.30897  0.30821  0.74776  1.0000
  C   C715      1.0  0.29952  0.29352  0.75556  1.0000
  C   C716      1.0  0.32041  0.30338  0.73545  1.0000
  C   C717      1.0  0.32141  0.30989  0.75527  1.0000
  C   C718      1.0  0.29600  0.32584  0.74524  1.0000
  C   C719      1.0  0.27992  0.32619  0.73975  1.0000
  C   C720      1.0  0.28797  0.29608  0.76884  1.0000
  C   C721      1.0  0.33400  0.32306  0.74839  1.0000
  C   C722      1.0  0.31358  0.29194  0.72938  1.0000
  C   C723      1.0  0.32492  0.29054  0.71616  1.0000
  C   C724      1.0  0.26707  0.34437  0.73886  1.0000
  H   H1210     1.0  0.01936  0.30396  0.67522  1.0000
  C   C725      1.0  0.34546  0.32399  0.75706  1.0000
  H   H1211     1.0  0.30949  0.28072  0.75668  1.0000
  H   H1212     1.0  0.29045  0.29118  0.75048  1.0000
  H   H1213     1.0  0.32304  0.31553  0.72822  1.0000
  H   H1214     1.0  0.33395  0.29543  0.73686  1.0000
  H   H1215     1.0  0.33017  0.29667  0.75821  1.0000
  H   H1216     1.0  0.31363  0.31420  0.76418  1.0000
  H   H1217     1.0  0.29053  0.33128  0.75398  1.0000
  H   H1218     1.0  0.30312  0.33593  0.73842  1.0000
  H   H1219     1.0  0.27201  0.31629  0.74575  1.0000
  H   H1220     1.0  0.28470  0.32373  0.73004  1.0000
  H   H1221     1.0  0.28482  0.30989  0.77008  1.0000
  H   H1222     1.0  0.27480  0.29274  0.77002  1.0000
  H   H1223     1.0  0.32618  0.33666  0.74549  1.0000
  H   H1224     1.0  0.34329  0.31889  0.73984  1.0000
  H   H1225     1.0  0.31478  0.27828  0.73525  1.0000
  H   H1226     1.0  0.29939  0.29712  0.72863  1.0000
  H   H1227     1.0  0.32368  0.30379  0.70966  1.0000
  H   H1228     1.0  0.33928  0.28491  0.71659  1.0000
  H   H1229     1.0  0.32024  0.28161  0.71234  1.0000
  H   H1230     1.0  0.27395  0.35480  0.73230  1.0000
  H   H1231     1.0  0.25539  0.34416  0.73524  1.0000
  H   H1232     1.0  0.26194  0.34779  0.74833  1.0000
  C   C726      1.0  0.01400  0.23183  0.63428  1.0000
  H   H1233     1.0  0.00649  0.36063  0.63007  1.0000
  H   H1234     1.0  0.02237  0.40111  0.65496  1.0000
  H   H1235     1.0  0.35472  0.33307  0.75186  1.0000
  H   H1236     1.0  0.33672  0.32916  0.76539  1.0000
  H   H1237     1.0  0.35365  0.31068  0.76028  1.0000
  C   C727      1.0  0.29314  0.10881  0.64927  1.0000
  C   C728      1.0  0.23033  0.12317  0.64472  1.0000
  C   C729      1.0  0.29787  0.09790  0.66182  1.0000
  H   H1238     1.0  0.25450  0.13979  0.62932  1.0000
  H   H1239     1.0  0.29590  0.12618  0.62540  1.0000
  H   H1240     1.0  0.30604  0.10940  0.64229  1.0000
  H   H1241     1.0  0.28540  0.10162  0.64630  1.0000
  C   C730      1.0  0.14471  0.39495  0.76113  1.0000
  H   H1242     1.0  0.22472  0.13506  0.63803  1.0000
  H   H1243     1.0  0.23450  0.11158  0.64025  1.0000
  H   H1244     1.0  0.30840  0.13909  0.60259  1.0000
  H   H1245     1.0  0.30396  0.10534  0.66598  1.0000
  N   N34       1.0  0.39639  0.11018  0.60648  1.0000
  C   C731      1.0  0.37861  0.11612  0.60246  1.0000
  C   C732      1.0  0.40059  0.09019  0.61065  1.0000
  C   C733      1.0  0.39423  0.11768  0.61793  1.0000
  C   C734      1.0  0.41160  0.11658  0.59626  1.0000
  N   N35       1.0  0.34242  0.01132  0.58659  1.0000
  H   H1246     1.0  0.00787  0.22391  0.64330  1.0000
  C   C735      1.0  0.41013  0.11100  0.62482  1.0000
  C   C736      1.0  0.40031  0.07936  0.60122  1.0000
  C   C737      1.0  0.40496  0.05945  0.60675  1.0000
  H   H1247     1.0  0.33483  0.47133  0.77142  1.0000
  H   H1248     1.0  0.31023  0.99637  0.60308  1.0000
  C   C738      1.0  0.40771  0.12156  0.63486  1.0000
  H   H1249     1.0  0.36841  0.10965  0.60985  1.0000
  H   H1250     1.0  0.42630  0.39504  0.78222  1.0000
  H   H1251     1.0  0.41414  0.08540  0.61295  1.0000
  H   H1252     1.0  0.39092  0.08600  0.61958  1.0000
  H   H1253     1.0  0.38195  0.11479  0.62511  1.0000
  H   H1254     1.0  0.39212  0.13240  0.61528  1.0000
  H   H1255     1.0  0.17580  0.28025  0.78457  1.0000
  H   H1256     1.0  0.42469  0.10759  0.59768  1.0000
  Fe  Fe101     1.0  0.41712  0.32828  0.78024  1.0000
  C   C739      1.0  0.33405  0.35595  0.78402  1.0000
  H   H1257     1.0  0.36489  0.14042  0.60950  1.0000
  H   H1258     1.0  0.40753  0.17961  0.76853  1.0000
  H   H1259     1.0  0.42308  0.11223  0.61804  1.0000
  H   H1260     1.0  0.41086  0.09689  0.62979  1.0000
  H   H1261     1.0  0.41437  0.42558  0.78523  1.0000
  S   S202      1.0  0.48439  0.30753  0.77819  1.0000
  H   H1262     1.0  0.23684  0.00458  0.58678  1.0000
  H   H1263     1.0  0.41904  0.05533  0.60803  1.0000
  H   H1264     1.0  0.39584  0.05589  0.61603  1.0000
  H   H1265     1.0  0.01408  0.22559  0.62657  1.0000
  C   C740      1.0  0.35151  0.45661  0.78494  1.0000
  H   H1266     1.0  0.30631  0.02002  0.59775  1.0000
  C   C741      1.0  0.26406  0.05657  0.64757  1.0000
  H   H1267     1.0  0.12788  0.43969  0.74905  1.0000
  C   C742      1.0  0.25949  0.22001  0.75238  1.0000
  H   H1268     1.0  0.39492  0.12049  0.64192  1.0000
  H   H1269     1.0  0.41898  0.11621  0.63990  1.0000
  H   H1270     1.0  0.40761  0.13576  0.63042  1.0000
  H   H1271     1.0  0.06019  0.13078  0.68324  1.0000
  H   H1272     1.0  0.12583  0.23212  0.66838  1.0000
  H   H1273     1.0  0.21229  0.24614  0.77076  1.0000
  C   C743      1.0  0.08102  0.14932  0.63893  1.0000
  H   H1274     1.0  0.26746  0.05427  0.67748  1.0000
  C   C744      1.0  0.26759  0.18683  0.64452  1.0000
  C   C745      1.0  0.39439  0.46167  0.78018  1.0000
  N   N36       1.0  0.14000  0.29891  0.63677  1.0000
  C   C746      1.0  0.13110  0.31484  0.62811  1.0000
  C   C747      1.0  0.12622  0.29402  0.64865  1.0000
  C   C748      1.0  0.15430  0.30433  0.64059  1.0000
  C   C749      1.0  0.14878  0.28317  0.63060  1.0000
  C   C750      1.0  0.14027  0.28108  0.62029  1.0000
  C   C751      1.0  0.14398  0.32394  0.61668  1.0000
  C   C752      1.0  0.16343  0.29061  0.65093  1.0000
  C   C753      1.0  0.10953  0.28931  0.64680  1.0000
  C   C754      1.0  0.09611  0.28567  0.65930  1.0000
  C   C755      1.0  0.14760  0.26271  0.61717  1.0000
  H   H1275     1.0  0.11581  0.42201  0.75426  1.0000
  C   C756      1.0  0.18084  0.29509  0.65131  1.0000
  H   H1276     1.0  0.12308  0.32518  0.63355  1.0000
  H   H1277     1.0  0.12112  0.31150  0.62435  1.0000
  H   H1278     1.0  0.13230  0.28240  0.65531  1.0000
  H   H1279     1.0  0.12138  0.30501  0.65384  1.0000
  H   H1280     1.0  0.14871  0.31686  0.64409  1.0000
  H   H1281     1.0  0.16522  0.30731  0.63221  1.0000
  H   H1282     1.0  0.16307  0.28344  0.62592  1.0000
  H   H1283     1.0  0.14935  0.27064  0.63796  1.0000
  H   H1284     1.0  0.14321  0.29107  0.61142  1.0000
  H   H1285     1.0  0.12559  0.28292  0.62327  1.0000
  H   H1286     1.0  0.15048  0.33209  0.61993  1.0000
  H   H1287     1.0  0.15472  0.31404  0.61216  1.0000
  H   H1288     1.0  0.16673  0.27698  0.64924  1.0000
  H   H1289     1.0  0.15432  0.29074  0.66040  1.0000
  H   H1290     1.0  0.10232  0.30028  0.64038  1.0000
  H   H1291     1.0  0.11354  0.27701  0.64312  1.0000
  H   H1292     1.0  0.09110  0.29751  0.66357  1.0000
  H   H1293     1.0  0.08446  0.28201  0.65769  1.0000
  H   H1294     1.0  0.10251  0.27444  0.66597  1.0000
  H   H1295     1.0  0.14204  0.26201  0.60927  1.0000
  H   H1296     1.0  0.16247  0.26002  0.61421  1.0000
  H   H1297     1.0  0.14345  0.25233  0.62550  1.0000
  N   N37       1.0  0.36554  0.15225  0.76230  1.0000
  H   H1298     1.0  0.24442  0.23888  0.76379  1.0000
  H   H1299     1.0  0.28682  0.17252  0.63130  1.0000
  H   H1300     1.0  0.19101  0.29362  0.64244  1.0000
  H   H1301     1.0  0.17831  0.30889  0.65258  1.0000
  H   H1302     1.0  0.18638  0.28603  0.65939  1.0000
  H   H1303     1.0  0.22965  0.24578  0.66182  1.0000
  C   C757      1.0  0.09701  0.08923  0.67119  1.0000
  H   H1304     1.0  0.13071  0.25299  0.66789  1.0000
  H   H1305     1.0  0.03504  0.42225  0.59292  1.0000
  H   H1306     1.0  0.30963  0.23641  0.71666  1.0000
  C   C758      1.0  0.06396  0.14180  0.67537  1.0000
  H   H1307     1.0  0.34729  0.17767  0.76324  1.0000
  H   H1308     1.0  0.24290  0.02906  0.70739  1.0000
  C   C759      1.0  0.34204  0.22835  0.70094  1.0000
  C   C760      1.0  0.32396  0.22629  0.69976  1.0000
  H   H1309     1.0  0.03643  0.17396  0.69203  1.0000
  H   H1310     1.0  0.05235  0.17053  0.67077  1.0000
  H   H1311     1.0  0.08834  0.11091  0.68067  1.0000
  H   H1312     1.0  0.18421  0.14923  0.65702  1.0000
  H   H1313     1.0  0.34811  0.29168  0.78280  1.0000
  H   H1314     1.0  0.04123  0.21665  0.63457  1.0000
  H   H1315     1.0  0.06303  0.16436  0.65213  1.0000
  H   H1316     1.0  0.29824  0.26975  0.77923  1.0000
  H   H1317     1.0  0.19814  0.22758  0.76850  1.0000
  H   H1318     1.0  0.19905  0.40685  0.75708  1.0000
  H   H1319     1.0  0.40350  0.05202  0.60018  1.0000
  H   H1320     1.0  0.26983  0.19225  0.72829  1.0000
  C   C761      1.0  0.20024  0.22669  0.75851  1.0000
  H   H1321     1.0  0.16456  0.13040  0.67266  1.0000
  N   N38       1.0  0.21389  0.25481  0.75040  1.0000
  C   C762      1.0  0.26435  0.04249  0.67584  1.0000
  H   H1322     1.0  0.35337  0.16585  0.77781  1.0000
  H   H1323     1.0  0.05371  0.13103  0.65059  1.0000
  H   H1324     1.0  0.18075  0.26181  0.76903  1.0000
  H   H1325     1.0  0.24303  0.07985  0.64411  1.0000
  C   C763      1.0  0.21816  0.27185  0.72683  1.0000
  C   C764      1.0  0.13386  0.33631  0.60668  1.0000
  C   C765      1.0  0.21369  0.29029  0.71853  1.0000
  H   H1326     1.0  0.29634  0.01818  0.67821  1.0000
  C   C766      1.0  0.17693  0.19316  0.70864  1.0000
  H   H1327     1.0  0.19138  0.18688  0.70821  1.0000
  H   H1328     1.0  0.17349  0.20519  0.71267  1.0000
  H   H1329     1.0  0.16882  0.18364  0.71509  1.0000
  N   N39       1.0  0.28957  0.23819  0.70630  1.0000
  H   H1330     1.0  0.34379  0.44840  0.77051  1.0000
  H   H1331     1.0  0.36590  0.15162  0.72495  1.0000
  H   H1332     1.0  0.03777  0.12358  0.67931  1.0000
  H   H1333     1.0  0.37348  0.38621  0.76871  1.0000
  C   C767      1.0  0.32216  0.03449  0.67653  1.0000
  C   C768      1.0  0.02228  0.12303  0.66656  1.0000
  C   C769      1.0  0.12101  0.17276  0.70679  1.0000
  H   H1334     1.0  0.41161  0.47981  0.76895  1.0000
  H   H1335     1.0  0.41505  0.16285  0.75925  1.0000
  C   C770      1.0  0.26707  0.36608  0.78451  1.0000
  H   H1336     1.0  0.03446  0.23431  0.64299  1.0000
  C   C771      1.0  0.26438  0.19924  0.71968  1.0000
  H   H1337     1.0  0.03792  0.28905  0.63429  1.0000
  H   H1338     1.0  0.39284  0.15391  0.75210  1.0000
  H   H1339     1.0  0.46465  0.24225  0.77480  1.0000
  H   H1340     1.0  0.29238  0.04516  0.64667  1.0000
  H   H1341     1.0  0.04003  0.19054  0.65140  1.0000
  H   H1342     1.0  0.12312  0.34657  0.61086  1.0000
  C   C772      1.0  0.38697  0.36674  0.78246  1.0000
  H   H1343     1.0  0.20393  0.24222  0.73969  1.0000
  C   C773      1.0  0.21019  0.25851  0.76346  1.0000
  H   H1344     1.0  0.34061  0.38173  0.77495  1.0000
  C   C774      1.0  0.32865  0.37614  0.78017  1.0000
  C   C775      1.0  0.18491  0.21927  0.75752  1.0000
  H   H1345     1.0  0.32291  0.21232  0.70377  1.0000
  H   H1346     1.0  0.27831  0.02010  0.65216  1.0000
  H   H1347     1.0  0.11018  0.27932  0.59536  1.0000
  H   H1348     1.0  0.35303  0.13505  0.73396  1.0000
  H   H1349     1.0  0.14986  0.37383  0.78497  1.0000
  C   C776      1.0  0.01726  0.41561  0.63688  1.0000
  H   H1350     1.0  0.38678  0.15908  0.77568  1.0000
  H   H1351     1.0  0.05969  0.16363  0.69197  1.0000
  C   C777      1.0  0.33190  0.15782  0.77391  1.0000
  C   C778      1.0  0.31196  0.01437  0.63334  1.0000
  C   C779      1.0  0.02637  0.27170  0.65152  1.0000
  H   H1352     1.0  0.07661  0.14377  0.67685  1.0000
  H   H1353     1.0  0.12726  0.18401  0.70587  1.0000
  H   H1354     1.0  0.41282  0.12975  0.59704  1.0000
  H   H1355     1.0  0.04831  0.10786  0.66916  1.0000
  C   C780      1.0  0.28584  0.22030  0.71366  1.0000
  H   H1356     1.0  0.39541  0.12308  0.75898  1.0000
  H   H1357     1.0  0.16254  0.15321  0.65325  1.0000
  N   N40       1.0  0.16025  0.37997  0.75794  1.0000
  C   C781      1.0  0.16190  0.37688  0.74494  1.0000
  C   C782      1.0  0.15669  0.36323  0.76747  1.0000
  C   C783      1.0  0.14579  0.37130  0.74286  1.0000
  C   C784      1.0  0.49277  0.23975  0.76684  1.0000
  C   C785      1.0  0.14831  0.37047  0.72903  1.0000
  N   N41       1.0  0.02135  0.27692  0.67423  1.0000
  H   H1358     1.0  0.17394  0.36629  0.74279  1.0000
  H   H1359     1.0  0.16441  0.38868  0.73742  1.0000
  H   H1360     1.0  0.16635  0.35145  0.76437  1.0000
  H   H1361     1.0  0.14308  0.36133  0.76795  1.0000
  H   H1362     1.0  0.13173  0.39141  0.76193  1.0000
  H   H1363     1.0  0.14461  0.35785  0.74863  1.0000
  H   H1364     1.0  0.13301  0.38081  0.74535  1.0000
  H   H1365     1.0  0.24803  0.00404  0.64668  1.0000
  H   H1366     1.0  0.41050  0.08188  0.59240  1.0000
  H   H1367     1.0  0.14861  0.38379  0.72275  1.0000
  H   H1368     1.0  0.16101  0.36109  0.72604  1.0000
  H   H1369     1.0  0.13701  0.36572  0.72788  1.0000
  H   H1370     1.0  0.33323  0.00573  0.60710  1.0000
  H   H1371     1.0  0.25727  0.21121  0.74709  1.0000
  H   H1372     1.0  0.31593  0.18245  0.77939  1.0000
  H   H1373     1.0  0.25140  0.04768  0.67265  1.0000
  H   H1374     1.0  0.19676  0.99922  0.62236  1.0000
  H   H1375     1.0  0.40375  0.18504  0.75267  1.0000
  C   C786      1.0  0.29684  0.02862  0.66942  1.0000
  C   C787      1.0  0.03081  0.28086  0.66048  1.0000
  H   H1376     1.0  0.17232  0.15994  0.68202  1.0000
  H   H1377     1.0  0.40713  0.09936  0.77572  1.0000
  H   H1378     1.0  0.02790  0.25723  0.65530  1.0000
  C   C788      1.0  0.03877  0.27467  0.63841  1.0000
  H   H1379     1.0  0.07637  0.45844  0.58723  1.0000
  C   C789      1.0  0.04938  0.41750  0.59008  1.0000
  H   H1380     1.0  0.21849  0.28154  0.74299  1.0000
  H   H1381     1.0  0.02699  0.24852  0.67578  1.0000
  C   C790      1.0  0.07669  0.39625  0.59386  1.0000
  H   H1382     1.0  0.02807  0.29537  0.65641  1.0000
  H   H1383     1.0  0.04565  0.27699  0.65960  1.0000
  H   H1384     1.0  0.04265  0.15044  0.69824  1.0000
  C   C791      1.0  0.39275  0.10621  0.77751  1.0000
  H   H1385     1.0  0.02308  0.42469  0.62827  1.0000
  H   H1386     1.0  0.22001  0.26593  0.76375  1.0000
  H   H1387     1.0  0.41836  0.46677  0.78337  1.0000
  H   H1388     1.0  0.25876  0.02205  0.66430  1.0000
  H   H1389     1.0  0.03486  0.26889  0.63190  1.0000
  C   C792      1.0  0.36453  0.99420  0.61617  1.0000
  H   H1390     1.0  0.11033  0.38849  0.61421  1.0000
  C   C793      1.0  0.26030  0.02951  0.68873  1.0000
  H   H1391     1.0  0.04031  0.31680  0.68099  1.0000
  H   H1392     1.0  0.23289  0.26700  0.72444  1.0000
  N   N42       1.0  0.21306  0.01724  0.62195  1.0000
  C   C794      1.0  0.22732  0.01833  0.62814  1.0000
  C   C795      1.0  0.21972  0.02007  0.60772  1.0000
  C   C796      1.0  0.19710  0.03209  0.62471  1.0000
  H   H1393     1.0  0.38341  0.46950  0.77525  1.0000
  S   S203      1.0  0.26802  0.34546  0.78124  1.0000
  C   C797      1.0  0.22178  0.01762  0.64259  1.0000
  C   C798      1.0  0.18138  0.03463  0.61813  1.0000
  C   C799      1.0  0.07394  0.15228  0.65269  1.0000
  C   C800      1.0  0.23796  0.01646  0.64792  1.0000
  C   C801      1.0  0.16674  0.05078  0.62102  1.0000
  H   H1394     1.0  0.23218  0.03080  0.62353  1.0000
  H   H1395     1.0  0.02564  0.48656  0.59237  1.0000
  C   C802      1.0  0.37430  0.38196  0.77858  1.0000
  H   H1396     1.0  0.21708  0.03452  0.60329  1.0000
  H   H1397     1.0  0.20153  0.04494  0.62211  1.0000
  H   H1398     1.0  0.19109  0.03002  0.63500  1.0000
  H   H1399     1.0  0.39923  0.13182  0.77082  1.0000
  H   H1400     1.0  0.04441  0.25617  0.67823  1.0000
  H   H1401     1.0  0.35014  0.15618  0.59167  1.0000
  H   H1402     1.0  0.21192  0.02983  0.64462  1.0000
  C   C803      1.0  0.24398  0.01362  0.58846  1.0000
  H   H1403     1.0  0.17507  0.02294  0.62157  1.0000
  H   H1404     1.0  0.18595  0.03669  0.60769  1.0000
  H   H1405     1.0  0.28926  0.21714  0.72315  1.0000
  H   H1406     1.0  0.13604  0.16680  0.68905  1.0000
  C   C804      1.0  0.27625  0.25094  0.76967  1.0000
  H   H1407     1.0  0.32541  0.16021  0.76579  1.0000
  C   C805      1.0  0.25468  0.39766  0.78261  1.0000
  H   H1408     1.0  0.17220  0.06304  0.61754  1.0000
  H   H1409     1.0  0.15562  0.05234  0.61628  1.0000
  H   H1410     1.0  0.16118  0.04912  0.63138  1.0000
  H   H1411     1.0  0.35488  0.16245  0.74537  1.0000
  H   H1412     1.0  0.36184  0.12576  0.77188  1.0000
  H   H1413     1.0  0.21998  0.29004  0.70846  1.0000
  H   H1414     1.0  0.18836  0.28223  0.76188  1.0000
  C   C806      1.0  0.17198  0.14579  0.68327  1.0000
  H   H1415     1.0  0.11439  0.38703  0.62956  1.0000
  N   N43       1.0  0.06203  0.39640  0.64922  1.0000
  C   C807      1.0  0.07878  0.38484  0.64309  1.0000
  C   C808      1.0  0.05466  0.38607  0.66215  1.0000
  C   C809      1.0  0.04825  0.40023  0.64123  1.0000
  C   C810      1.0  0.06510  0.41381  0.65011  1.0000
  C   C811      1.0  0.08408  0.41394  0.65152  1.0000
  C   C812      1.0  0.08614  0.39217  0.62883  1.0000
  H   H1416     1.0  0.02451  0.26134  0.69995  1.0000
  C   C813      1.0  0.06700  0.37972  0.67183  1.0000
  C   C814      1.0  0.05809  0.36898  0.68430  1.0000
  C   C815      1.0  0.08416  0.43118  0.65484  1.0000
  C   C816      1.0  0.10588  0.38359  0.62456  1.0000
  H   H1417     1.0  0.05854  0.30230  0.68787  1.0000
  H   H1418     1.0  0.07615  0.37159  0.64384  1.0000
  H   H1419     1.0  0.08975  0.38194  0.64822  1.0000
  H   H1420     1.0  0.04217  0.39415  0.66687  1.0000
  H   H1421     1.0  0.05083  0.37417  0.66117  1.0000
  H   H1422     1.0  0.04700  0.38772  0.63940  1.0000
  H   H1423     1.0  0.05269  0.40844  0.63171  1.0000
  H   H1424     1.0  0.06267  0.42425  0.64152  1.0000
  H   H1425     1.0  0.05500  0.41889  0.65809  1.0000
  H   H1426     1.0  0.09398  0.41292  0.64248  1.0000
  H   H1427     1.0  0.08905  0.40280  0.65888  1.0000
  H   H1428     1.0  0.01529  0.11298  0.67353  1.0000
  H   H1429     1.0  0.08482  0.40674  0.62670  1.0000
  H   H1430     1.0  0.47386  0.22771  0.76372  1.0000
  C   C817      1.0  0.36105  0.00630  0.60359  1.0000
  H   H1431     1.0  0.07994  0.37115  0.66824  1.0000
  H   H1432     1.0  0.06953  0.39126  0.67418  1.0000
  H   H1433     1.0  0.06744  0.36414  0.69090  1.0000
  H   H1434     1.0  0.04559  0.37729  0.68881  1.0000
  C   C818      1.0  0.02905  0.41000  0.64666  1.0000
  H   H1435     1.0  0.09797  0.43112  0.65543  1.0000
  H   H1436     1.0  0.07984  0.44280  0.64745  1.0000
  H   H1437     1.0  0.07507  0.43250  0.66415  1.0000
  H   H1438     1.0  0.24496  0.40934  0.77945  1.0000
  C   C819      1.0  0.24165  0.23153  0.75768  1.0000
  H   H1439     1.0  0.10780  0.36895  0.62649  1.0000
  H   H1440     1.0  0.30904  0.05208  0.66223  1.0000
  C   C820      1.0  0.16813  0.99228  0.65296  1.0000
  H   H1441     1.0  0.34453  0.13477  0.59832  1.0000
  H   H1442     1.0  0.35222  0.99574  0.62376  1.0000
  C   C821      1.0  0.00356  0.25142  0.63212  1.0000
  H   H1443     1.0  0.30686  0.02218  0.66203  1.0000
  H   H1444     1.0  0.27643  0.24806  0.72345  1.0000
  C   C822      1.0  0.28088  0.00074  0.66926  1.0000
  C   C823      1.0  0.13362  0.15950  0.69905  1.0000
  H   H1445     1.0  0.37375  0.00442  0.59641  1.0000
  C   C824      1.0  0.02953  0.25822  0.68018  1.0000
  C   C825      1.0  0.04687  0.16174  0.69080  1.0000
  H   H1446     1.0  0.21868  0.30007  0.72130  1.0000
  H   H1447     1.0  0.19186  0.23342  0.65530  1.0000
  C   C826      1.0  0.08353  0.10609  0.67404  1.0000
  C   C827      1.0  0.39039  0.12468  0.76889  1.0000
  H   H1448     1.0  0.44657  0.22393  0.76769  1.0000
  S   S204      1.0  0.19903  0.32247  0.78299  1.0000
  N   N44       1.0  0.06744  0.13711  0.66262  1.0000
  H   H1449     1.0  0.18697  0.25325  0.75043  1.0000
  H   H1450     1.0  0.27178  0.19235  0.71184  1.0000
  C   C828      1.0  0.04906  0.15846  0.67762  1.0000
  C   C829      1.0  0.08220  0.12061  0.66176  1.0000
  H   H1451     1.0  0.37304  0.21474  0.77530  1.0000
  H   H1452     1.0  0.37689  0.17386  0.74939  1.0000
  C   C830      1.0  0.17774  0.38321  0.75898  1.0000
  H   H1453     1.0  0.38641  0.14173  0.73942  1.0000
  H   H1454     1.0  0.08137  0.11431  0.65428  1.0000
  C   C831      1.0  0.18874  0.39346  0.74688  1.0000
  H   H1455     1.0  0.18049  0.24626  0.66690  1.0000
  H   H1456     1.0  0.09246  0.13775  0.63832  1.0000
  C   C832      1.0  0.30941  0.00740  0.59461  1.0000
  H   H1457     1.0  0.17744  0.18571  0.69160  1.0000
  C   C833      1.0  0.30133  0.15254  0.60426  1.0000
  H   H1458     1.0  0.21951  0.12063  0.65317  1.0000
  H   H1459     1.0  0.37599  0.18099  0.76895  1.0000
  C   C834      1.0  0.24011  0.01343  0.60260  1.0000
  H   H1460     1.0  0.49003  0.20533  0.77850  1.0000
  H   H1461     1.0  0.32800  0.04504  0.67754  1.0000
  H   H1462     1.0  0.26885  0.22838  0.74601  1.0000
  Fe  Fe102     1.0  0.42713  0.28878  0.78077  1.0000
  H   H1463     1.0  0.19994  0.16646  0.66701  1.0000
  H   H1464     1.0  0.29583  0.22098  0.66763  1.0000
  C   C835      1.0  0.26121  0.13068  0.63690  1.0000
  H   H1465     1.0  0.28566  0.09436  0.66859  1.0000
  H   H1466     1.0  0.31906  0.37986  0.77379  1.0000
  C   C836      1.0  0.01572  0.19822  0.66472  1.0000
  C   C837      1.0  0.02273  0.25230  0.69469  1.0000
  H   H1467     1.0  0.28740  0.16288  0.64755  1.0000
  H   H1468     1.0  0.01237  0.27723  0.65026  1.0000
  C   C838      1.0  0.17277  0.19790  0.69546  1.0000
  C   C839      1.0  0.28992  0.13964  0.62741  1.0000
  H   H1469     1.0  0.26773  0.11841  0.63319  1.0000
  H   H1470     1.0  0.29729  0.16076  0.59538  1.0000
  H   H1471     1.0  0.31069  0.15866  0.60663  1.0000
  H   H1472     1.0  0.30769  0.08544  0.66028  1.0000
  C   C840      1.0  0.21729  0.24584  0.65891  1.0000
  H   H1473     1.0  0.12652  0.14885  0.70010  1.0000
  H   H1474     1.0  0.20902  0.25953  0.65787  1.0000
  H   H1475     1.0  0.21563  0.12416  0.70625  1.0000
  H   H1476     1.0  0.42954  0.21050  0.75881  1.0000
  H   H1477     1.0  0.15802  0.20197  0.69673  1.0000
  H   H1478     1.0  0.04008  0.23910  0.62581  1.0000
  C   C841      1.0  0.24865  0.26978  0.77848  1.0000
  H   H1479     1.0  0.05269  0.28933  0.67242  1.0000
  H   H1480     1.0  0.27563  0.14566  0.61194  1.0000
  H   H1481     1.0  0.31105  0.25231  0.70204  1.0000
  H   H1482     1.0  0.03578  0.30333  0.69687  1.0000
  C   C842      1.0  0.27363  0.02002  0.66247  1.0000
  H   H1483     1.0  0.28195  0.24247  0.66929  1.0000
  H   H1484     1.0  0.42996  0.21412  0.77968  1.0000
  H   H1485     1.0  0.24088  0.13677  0.65397  1.0000
  C   C843      1.0  0.28467  0.15141  0.61495  1.0000
  C   C844      1.0  0.24620  0.12607  0.64861  1.0000
  H   H1486     1.0  0.30108  0.14397  0.62911  1.0000
  C   C845      1.0  0.36658  0.13823  0.73122  1.0000
  H   H1487     1.0  0.25033  0.04953  0.70028  1.0000
  H   H1488     1.0  0.05494  0.48544  0.59319  1.0000
  H   H1489     1.0  0.24782  0.02231  0.60386  1.0000
  H   H1490     1.0  0.16083  0.10575  0.71677  1.0000
  H   H1491     1.0  0.20772  0.18753  0.67603  1.0000
  H   H1492     1.0  0.22274  0.16880  0.66051  1.0000
  C   C846      1.0  0.25545  0.07600  0.64787  1.0000
  H   H1493     1.0  0.15043  0.08832  0.70586  1.0000
  H   H1494     1.0  0.20193  0.13265  0.71990  1.0000
  C   C847      1.0  0.20847  0.17578  0.66092  1.0000
  H   H1495     1.0  0.19645  0.20827  0.68694  1.0000
  H   H1496     1.0  0.17603  0.19343  0.67108  1.0000
  C   C848      1.0  0.29393  0.23255  0.67187  1.0000
  C   C849      1.0  0.04326  0.28870  0.68176  1.0000
  N   N45       1.0  0.27493  0.13883  0.63903  1.0000
  C   C850      1.0  0.28260  0.12786  0.65036  1.0000
  H   H1497     1.0  0.26855  0.05536  0.63752  1.0000
  H   H1498     1.0  0.18651  0.21777  0.74770  1.0000
  H   H1499     1.0  0.26257  0.25291  0.71230  1.0000
  H   H1500     1.0  0.21388  0.38651  0.75329  1.0000
  H   H1501     1.0  0.27192  0.12711  0.65917  1.0000
  C   C851      1.0  0.20729  0.13628  0.70954  1.0000
  H   H1502     1.0  0.18981  0.11956  0.70000  1.0000
  H   H1503     1.0  0.12893  0.10383  0.70689  1.0000
  C   C852      1.0  0.18206  0.21290  0.68663  1.0000
  H   H1504     1.0  0.27306  0.24920  0.69215  1.0000
  H   H1505     1.0  0.28344  0.27490  0.69800  1.0000
  H   H1506     1.0  0.30598  0.23846  0.66783  1.0000
  H   H1507     1.0  0.29223  0.13428  0.65214  1.0000
  H   H1508     1.0  0.27772  0.16509  0.61597  1.0000
  C   C853      1.0  0.15155  0.15196  0.70351  1.0000
  H   H1509     1.0  0.10837  0.17815  0.70322  1.0000
  H   H1510     1.0  0.34460  0.24162  0.69567  1.0000
  H   H1511     1.0  0.35761  0.02019  0.60484  1.0000
  C   C854      1.0  0.16233  0.14447  0.67330  1.0000
  C   C855      1.0  0.14078  0.09793  0.71132  1.0000
  H   H1512     1.0  0.17581  0.12623  0.71398  1.0000
  H   H1513     1.0  0.21605  0.14583  0.70778  1.0000
  H   H1514     1.0  0.11046  0.09215  0.66638  1.0000
  C   C856      1.0  0.20479  0.19220  0.66642  1.0000
  H   H1515     1.0  0.17731  0.22465  0.69112  1.0000
  H   H1516     1.0  0.15172  0.21517  0.67859  1.0000
  H   H1517     1.0  0.20591  0.17952  0.65118  1.0000
  H   H1518     1.0  0.29534  0.25215  0.68674  1.0000
  H   H1519     1.0  0.26728  0.29798  0.71076  1.0000
  H   H1520     1.0  0.25258  0.28586  0.70869  1.0000
  C   C857      1.0  0.18052  0.13115  0.70366  1.0000
  C   C858      1.0  0.14973  0.11239  0.71170  1.0000
  C   C859      1.0  0.13386  0.24211  0.66275  1.0000
  H   H1521     1.0  0.15573  0.41883  0.75317  1.0000
  C   C860      1.0  0.18521  0.20282  0.66672  1.0000
  H   H1522     1.0  0.19936  0.28043  0.78091  1.0000
  C   C861      1.0  0.38612  0.16906  0.76669  1.0000
  H   H1523     1.0  0.04798  0.27607  0.68817  1.0000
  C   C862      1.0  0.40660  0.47411  0.77909  1.0000
  C   C863      1.0  0.28718  0.24238  0.69278  1.0000
  C   C864      1.0  0.26375  0.28478  0.71325  1.0000
  H   H1524     1.0  0.12772  0.32867  0.60272  1.0000
  C   C865      1.0  0.19193  0.14475  0.70254  1.0000
  H   H1525     1.0  0.16718  0.11240  0.69320  1.0000
  H   H1526     1.0  0.13959  0.12156  0.71724  1.0000
  N   N46       1.0  0.17941  0.21834  0.67316  1.0000
  H   H1527     1.0  0.21432  0.20049  0.66028  1.0000
  C   C866      1.0  0.29154  0.22642  0.68624  1.0000
  C   C867      1.0  0.28005  0.27111  0.70850  1.0000
  H   H1528     1.0  0.12484  0.42797  0.76537  1.0000
  H   H1529     1.0  0.17209  0.36048  0.78186  1.0000
  H   H1530     1.0  0.28826  0.07255  0.60697  1.0000
  H   H1531     1.0  0.14771  0.14972  0.67568  1.0000
  H   H1532     1.0  0.34254  0.35111  0.77547  1.0000
  H   H1533     1.0  0.14846  0.14695  0.71395  1.0000
  C   C868      1.0  0.15695  0.12234  0.69812  1.0000
  H   H1534     1.0  0.38112  0.14410  0.59496  1.0000
  C   C869      1.0  0.47611  0.23168  0.77179  1.0000
  H   H1535     1.0  0.19785  0.15010  0.69253  1.0000
  H   H1536     1.0  0.29134  0.27195  0.71227  1.0000
  H   H1537     1.0  0.13616  0.09062  0.72111  1.0000
  H   H1538     1.0  0.26023  0.22510  0.70747  1.0000
  H   H1539     1.0  0.25772  0.22511  0.72377  1.0000
  H   H1540     1.0  0.25932  0.28107  0.72371  1.0000
  C   C870      1.0  0.15955  0.22562  0.67373  1.0000
  H   H1541     1.0  0.15450  0.23604  0.67949  1.0000
  H   H1542     1.0  0.18390  0.20738  0.65667  1.0000
  H   H1543     1.0  0.21602  0.21974  0.67005  1.0000
  C   C871      1.0  0.26582  0.15711  0.64148  1.0000
  H   H1544     1.0  0.25683  0.16438  0.63478  1.0000
  H   H1545     1.0  0.28356  0.06118  0.65605  1.0000
  C   C872      1.0  0.02602  0.19000  0.65478  1.0000
  H   H1546     1.0  0.18613  0.13898  0.68014  1.0000
  H   H1547     1.0  0.18368  0.15599  0.70687  1.0000
  H   H1548     1.0  0.30385  0.21660  0.68817  1.0000
  H   H1549     1.0  0.28041  0.21922  0.68969  1.0000
  H   H1550     1.0  0.20377  0.23735  0.67804  1.0000
  H   H1551     1.0  0.12986  0.24753  0.65348  1.0000
  C   C873      1.0  0.27653  0.25201  0.71310  1.0000
  C   C874      1.0  0.26606  0.21858  0.71595  1.0000
  C   C875      1.0  0.04443  0.30374  0.68723  1.0000
  H   H1552     1.0  0.25690  0.15607  0.65107  1.0000
  H   H1553     1.0  0.34933  0.03552  0.58685  1.0000
  H   H1554     1.0  0.02775  0.22972  0.71009  1.0000
  H   H1555     1.0  0.37552  0.12354  0.74817  1.0000
  C   C876      1.0  0.19117  0.26914  0.76827  1.0000
  C   C877      1.0  0.29882  0.02449  0.62653  1.0000
  N   N47       1.0  0.16487  0.13797  0.69707  1.0000
  H   H1556     1.0  0.14569  0.12636  0.69315  1.0000
  H   H1557     1.0  0.24229  0.25445  0.74289  1.0000
  H   H1558     1.0  0.02943  0.42203  0.64958  1.0000
  H   H1559     1.0  0.25003  0.19853  0.72165  1.0000
  C   C878      1.0  0.18915  0.23305  0.66562  1.0000
  C   C879      1.0  0.15389  0.23365  0.66079  1.0000
  C   C880      1.0  0.20696  0.23298  0.66897  1.0000
  H   H1560     1.0  0.15636  0.22318  0.65540  1.0000
  H   H1561     1.0  0.08352  0.38461  0.59961  1.0000
  H   H1562     1.0  0.29551  0.99669  0.66538  1.0000
  H   H1563     1.0  0.21290  0.21703  0.75594  1.0000
  H   H1564     1.0  0.37145  0.29314  0.77928  1.0000
  C   C881      1.0  0.23315  0.24492  0.74689  1.0000
  C   C882      1.0  0.29348  0.00736  0.58943  1.0000
  C   C883      1.0  0.34685  0.46033  0.77199  1.0000
  C   C884      1.0  0.31306  0.99614  0.63778  1.0000
  C   C885      1.0  0.37566  0.20486  0.78364  1.0000
  H   H1565     1.0  0.30972  0.28645  0.77921  1.0000
  H   H1566     1.0  0.33400  0.14349  0.77841  1.0000
  H   H1567     1.0  0.01361  0.13640  0.66709  1.0000
  C   C886      1.0  0.37339  0.13755  0.74289  1.0000
  C   C887      1.0  0.15795  0.36198  0.78129  1.0000
  H   H1568     1.0  0.05476  0.35727  0.68272  1.0000
  C   C888      1.0  0.18386  0.99245  0.66878  1.0000
  H   H1569     1.0  0.23454  0.23790  0.73926  1.0000
  H   H1570     1.0  0.26591  0.21159  0.76028  1.0000
  H   H1571     1.0  0.18496  0.20603  0.76398  1.0000
  C   C889      1.0  0.45730  0.19920  0.78067  1.0000
  C   C890      1.0  0.35561  0.14166  0.59297  1.0000
  H   H1572     1.0  0.00832  0.25177  0.69697  1.0000
  H   H1573     1.0  0.49563  0.24434  0.77443  1.0000
  H   H1574     1.0  0.40222  0.45125  0.77492  1.0000
  H   H1575     1.0  0.24406  0.38007  0.77643  1.0000
  C   C891      1.0  0.25411  0.38109  0.78092  1.0000
  H   H1576     1.0  0.01597  0.40378  0.63411  1.0000
  H   H1577     1.0  0.40234  0.20867  0.78105  1.0000
  C   C892      1.0  0.47892  0.21529  0.78272  1.0000
  Fe  Fe103     1.0  0.45453  0.30773  0.78350  1.0000
  H   H1578     1.0  0.39910  0.48519  0.78390  1.0000
  H   H1579     1.0  0.00362  0.42258  0.64097  1.0000
  H   H1580     1.0  0.00258  0.33688  0.59946  1.0000
  C   C893      1.0  0.33777  0.03107  0.58579  1.0000
  H   H1581     1.0  0.29604  0.99543  0.58549  1.0000
  Fe  Fe104     1.0  0.05380  0.45846  0.92581  1.0000
  S   S205      1.0  0.02883  0.46881  0.91805  1.0000
  H   H1582     1.0  0.49500  0.17977  0.79192  1.0000
  Fe  Fe105     1.0  0.03386  0.44223  0.95178  1.0000
  H   H1583     1.0  0.30582  0.16347  0.78645  1.0000
  S   S206      1.0  0.03531  0.42663  0.97160  1.0000
  Fe  Fe106     1.0  0.02186  0.44256  0.92824  1.0000
  S   S207      1.0  0.01381  0.42546  0.91872  1.0000
  C   C894      1.0  0.32130  0.48584  0.81222  1.0000
  S   S208      1.0  0.04819  0.43132  0.93448  1.0000
  H   H1584     1.0  0.28168  0.48523  0.83411  1.0000
  Fe  Fe107     1.0  0.44452  0.07904  0.91962  1.0000
  S   S209      1.0  0.42777  0.09823  0.93173  1.0000
  S   S210      1.0  0.47177  0.08061  0.90713  1.0000
  Fe  Fe108     1.0  0.41786  0.05480  0.92856  1.0000
  S   S211      1.0  0.39830  0.07259  0.94082  1.0000
  S   S212      1.0  0.41721  0.02598  0.93186  1.0000
  Fe  Fe109     1.0  0.40518  0.09489  0.92457  1.0000
  S   S213      1.0  0.38533  0.12006  0.91884  1.0000
  Fe  Fe110     1.0  0.42225  0.07448  0.94695  1.0000
  S   S214      1.0  0.42272  0.06639  0.96777  1.0000
  S   S215      1.0  0.42241  0.07692  0.91156  1.0000
  S   S216      1.0  0.44148  0.05564  0.93554  1.0000
  H   H1585     1.0  0.45581  0.08159  0.97431  1.0000
  Fe  Fe111     1.0  0.39778  0.16335  0.84992  1.0000
  S   S217      1.0  0.42462  0.15870  0.83663  1.0000
  S   S218      1.0  0.38562  0.13973  0.86028  1.0000
  Fe  Fe112     1.0  0.39531  0.20323  0.84471  1.0000
  Fe  Fe113     1.0  0.43137  0.17741  0.84542  1.0000
  S   S219      1.0  0.45617  0.17038  0.85360  1.0000
  S   S220      1.0  0.38512  0.18640  0.83638  1.0000
  S   S221      1.0  0.40526  0.18039  0.85957  1.0000
  Fe  Fe114     1.0  0.17738  0.43574  0.85502  1.0000
  H   H1586     1.0  0.43853  0.05653  0.89064  1.0000
  Fe  Fe115     1.0  0.13817  0.43980  0.85517  1.0000
  H   H1587     1.0  0.12193  0.34198  0.83891  1.0000
  S   S222      1.0  0.11329  0.42995  0.86656  1.0000
  H   H1588     1.0  0.21520  0.43725  0.84287  1.0000
  S   S223      1.0  0.16291  0.41978  0.84932  1.0000
  S   S224      1.0  0.15242  0.45417  0.86255  1.0000
  C   C895      1.0  0.22465  0.43170  0.84895  1.0000
  C   C896      1.0  0.24268  0.43301  0.84423  1.0000
  H   H1589     1.0  0.38313  0.25518  0.86078  1.0000
  C   C897      1.0  0.41013  0.01528  0.92296  1.0000
  C   C898      1.0  0.40887  0.99760  0.92810  1.0000
  H   H1590     1.0  0.30213  0.47550  0.86596  1.0000
  H   H1591     1.0  0.15876  0.33351  0.78701  1.0000
  N   N48       1.0  0.34534  0.33083  0.80196  1.0000
  C   C899      1.0  0.40607  0.02355  0.91109  1.0000
  H   H1592     1.0  0.29522  0.25356  0.80142  1.0000
  H   H1593     1.0  0.35078  0.03624  0.98228  1.0000
  H   H1594     1.0  0.13182  0.44921  0.81163  1.0000
  H   H1595     1.0  0.40692  0.03726  0.90711  1.0000
  C   C900      1.0  0.41995  0.08177  0.97705  1.0000
  H   H1596     1.0  0.09575  0.43637  0.96587  1.0000
  C   C901      1.0  0.47183  0.04803  0.97931  1.0000
  H   H1597     1.0  0.46013  0.19551  0.82971  1.0000
  H   H1598     1.0  0.47319  0.19773  0.80656  1.0000
  S   S225      1.0  0.18272  0.45346  0.83583  1.0000
  H   H1599     1.0  0.41695  0.10483  0.96195  1.0000
  Fe  Fe116     1.0  0.41255  0.18318  0.82380  1.0000
  H   H1600     1.0  0.41753  0.13492  0.92236  1.0000
  H   H1601     1.0  0.24705  0.43965  0.83453  1.0000
  C   C902      1.0  0.38414  0.12532  0.90278  1.0000
  C   C903      1.0  0.38757  0.11200  0.89605  1.0000
  C   C904      1.0  0.38766  0.11652  0.88304  1.0000
  C   C905      1.0  0.38473  0.13435  0.87667  1.0000
  C   C906      1.0  0.38098  0.14768  0.88345  1.0000
  C   C907      1.0  0.38038  0.14316  0.89652  1.0000
  H   H1602     1.0  0.39016  0.09823  0.90085  1.0000
  H   H1603     1.0  0.39038  0.10619  0.87784  1.0000
  H   H1604     1.0  0.37822  0.16145  0.87866  1.0000
  H   H1605     1.0  0.37736  0.15350  0.90174  1.0000
  H   H1606     1.0  0.03791  0.39773  0.93381  1.0000
  H   H1607     1.0  0.19614  0.36746  0.86537  1.0000
  Fe  Fe117     1.0  0.16617  0.43891  0.83062  1.0000
  S   S226      1.0  0.37825  0.22880  0.84991  1.0000
  H   H1608     1.0  0.20820  0.42306  0.82004  1.0000
  N   N49       1.0  0.46274  0.20731  0.78941  1.0000
  N   N50       1.0  0.47192  0.01212  0.90932  1.0000
  H   H1609     1.0  0.20437  0.39647  0.83367  1.0000
  S   S227      1.0  0.04178  0.46851  0.94370  1.0000
  C   C908      1.0  0.05369  0.42822  0.97694  1.0000
  C   C909      1.0  0.44332  0.16198  0.90105  1.0000
  C   C910      1.0  0.21901  0.42322  0.86154  1.0000
  C   C911      1.0  0.36959  0.43657  0.82129  1.0000
  C   C912      1.0  0.08363  0.43383  0.97255  1.0000
  C   C913      1.0  0.06946  0.43146  0.96831  1.0000
  C   C914      1.0  0.45953  0.02590  0.90164  1.0000
  C   C915      1.0  0.19648  0.37880  0.85710  1.0000
  H   H1610     1.0  0.07056  0.43242  0.95836  1.0000
  C   C916      1.0  0.08783  0.45609  0.90052  1.0000
  C   C917      1.0  0.08322  0.44058  0.90021  1.0000
  C   C918      1.0  0.09079  0.43271  0.88966  1.0000
  C   C919      1.0  0.10288  0.44041  0.87938  1.0000
  C   C920      1.0  0.41705  0.11172  0.97926  1.0000
  C   C921      1.0  0.46551  0.99485  0.91366  1.0000
  H   H1611     1.0  0.07406  0.43447  0.90818  1.0000
  H   H1612     1.0  0.08742  0.42056  0.88953  1.0000
  H   H1613     1.0  0.05357  0.38209  0.94266  1.0000
  H   H1614     1.0  0.21228  0.36627  0.82808  1.0000
  H   H1615     1.0  0.39280  0.24449  0.82384  1.0000
  H   H1616     1.0  0.45503  0.07017  0.88521  1.0000
  C   C922      1.0  0.47109  0.10923  0.91603  1.0000
  C   C923      1.0  0.38796  0.25870  0.85063  1.0000
  H   H1617     1.0  0.45738  0.11377  0.91490  1.0000
  H   H1618     1.0  0.38477  0.17101  0.81446  1.0000
  C   C924      1.0  0.48144  0.09354  0.91247  1.0000
  S   S228      1.0  0.14007  0.45782  0.83594  1.0000
  C   C925      1.0  0.23139  0.41604  0.86937  1.0000
  C   C926      1.0  0.25599  0.48613  0.82992  1.0000
  H   H1619     1.0  0.43903  0.29102  0.84265  1.0000
  C   C927      1.0  0.17762  0.40883  0.81104  1.0000
  H   H1620     1.0  0.45462  0.17396  0.88123  1.0000
  H   H1621     1.0  0.35048  0.35023  0.81831  1.0000
  H   H1622     1.0  0.30901  0.99468  0.91345  1.0000
  H   H1623     1.0  0.22434  0.44662  0.81858  1.0000
  C   C928      1.0  0.35414  0.44091  0.83234  1.0000
  H   H1624     1.0  0.11662  0.43918  0.80790  1.0000
  H   H1625     1.0  0.46046  0.32013  0.82965  1.0000
  H   H1626     1.0  0.40462  0.27194  0.81426  1.0000
  C   C929      1.0  0.14000  0.45560  0.89886  1.0000
  C   C930      1.0  0.45856  0.16290  0.88905  1.0000
  S   S229      1.0  0.19650  0.42197  0.86792  1.0000
  H   H1627     1.0  0.20746  0.46184  0.86055  1.0000
  H   H1628     1.0  0.48342  0.21330  0.81861  1.0000
  H   H1629     1.0  0.24847  0.36767  0.83682  1.0000
  C   C931      1.0  0.27617  0.47889  0.82877  1.0000
  H   H1630     1.0  0.45357  0.28984  0.81997  1.0000
  C   C932      1.0  0.40013  0.26818  0.82441  1.0000
  C   C933      1.0  0.39526  0.27386  0.84528  1.0000
  C   C934      1.0  0.48456  0.20414  0.82755  1.0000
  H   H1631     1.0  0.45832  0.04802  0.96445  1.0000
  H   H1632     1.0  0.49574  0.28037  0.83258  1.0000
  H   H1633     1.0  0.46618  0.25725  0.81397  1.0000
  C   C935      1.0  0.20428  0.49030  0.81918  1.0000
  H   H1634     1.0  0.44483  0.26223  0.84581  1.0000
  C   C936      1.0  0.10435  0.46449  0.94330  1.0000
  H   H1635     1.0  0.18461  0.41411  0.79066  1.0000
  C   C937      1.0  0.44788  0.31512  0.83365  1.0000
  S   S230      1.0  0.29663  0.40593  0.81686  1.0000
  S   S231      1.0  0.42200  0.20167  0.83122  1.0000
  H   H1636     1.0  0.38543  0.25109  0.80133  1.0000
  H   H1637     1.0  0.39397  0.05254  0.96712  1.0000
  S   S232      1.0  0.44440  0.28341  0.79496  1.0000
  H   H1638     1.0  0.12700  0.46199  0.90425  1.0000
  H   H1639     1.0  0.37138  0.31622  0.83300  1.0000
  N   N51       1.0  0.33874  0.23243  0.81990  1.0000
  C   C938      1.0  0.32119  0.24029  0.81563  1.0000
  C   C939      1.0  0.33878  0.24106  0.83032  1.0000
  C   C940      1.0  0.35397  0.23566  0.80871  1.0000
  C   C941      1.0  0.34099  0.21272  0.82500  1.0000
  C   C942      1.0  0.32519  0.20654  0.83537  1.0000
  C   C943      1.0  0.31803  0.23211  0.80558  1.0000
  C   C944      1.0  0.37304  0.22860  0.81160  1.0000
  C   C945      1.0  0.34179  0.26034  0.82601  1.0000
  C   C946      1.0  0.33916  0.26857  0.83734  1.0000
  C   C947      1.0  0.32971  0.18647  0.84035  1.0000
  H   H1640     1.0  0.45544  0.18802  0.80654  1.0000
  C   C948      1.0  0.38706  0.23697  0.80113  1.0000
  H   H1641     1.0  0.32009  0.25469  0.81143  1.0000
  H   H1642     1.0  0.30965  0.23955  0.82390  1.0000
  H   H1643     1.0  0.32587  0.24127  0.83743  1.0000
  H   H1644     1.0  0.34914  0.23308  0.83585  1.0000
  H   H1645     1.0  0.35219  0.24998  0.80413  1.0000
  H   H1646     1.0  0.35393  0.22904  0.80120  1.0000
  H   H1647     1.0  0.34371  0.20561  0.81723  1.0000
  H   H1648     1.0  0.35311  0.20755  0.82916  1.0000
  H   H1649     1.0  0.31288  0.20971  0.83155  1.0000
  H   H1650     1.0  0.32225  0.21297  0.84351  1.0000
  H   H1651     1.0  0.00482  0.38916  0.94683  1.0000
  H   H1652     1.0  0.32034  0.21746  0.80836  1.0000
  H   H1653     1.0  0.37686  0.21406  0.81238  1.0000
  H   H1654     1.0  0.37370  0.23097  0.82068  1.0000
  H   H1655     1.0  0.35571  0.26057  0.82049  1.0000
  H   H1656     1.0  0.33232  0.26892  0.82004  1.0000
  H   H1657     1.0  0.34220  0.28202  0.83399  1.0000
  H   H1658     1.0  0.32508  0.26971  0.84284  1.0000
  H   H1659     1.0  0.34837  0.26037  0.84366  1.0000
  H   H1660     1.0  0.34163  0.18260  0.84473  1.0000
  H   H1661     1.0  0.31818  0.18225  0.84767  1.0000
  H   H1662     1.0  0.33254  0.17939  0.83254  1.0000
  N   N52       1.0  0.37680  0.43909  0.79692  1.0000
  H   H1663     1.0  0.11358  0.47292  0.93682  1.0000
  H   H1664     1.0  0.41998  0.02753  0.97014  1.0000
  H   H1665     1.0  0.30953  0.35438  0.80696  1.0000
  H   H1666     1.0  0.49961  0.26577  0.85465  1.0000
  H   H1667     1.0  0.28304  0.48175  0.81868  1.0000
  N   N53       1.0  0.14152  0.42401  0.91316  1.0000
  C   C949      1.0  0.15365  0.40992  0.92092  1.0000
  C   C950      1.0  0.13946  0.41660  0.90277  1.0000
  C   C951      1.0  0.14994  0.44001  0.90783  1.0000
  C   C952      1.0  0.12316  0.42940  0.92115  1.0000
  C   C953      1.0  0.11276  0.41430  0.92762  1.0000
  C   C954      1.0  0.15370  0.41329  0.93389  1.0000
  S   S233      1.0  0.34168  0.19954  0.78693  1.0000
  C   C955      1.0  0.15665  0.41287  0.89244  1.0000
  C   C956      1.0  0.15377  0.40296  0.88358  1.0000
  C   C957      1.0  0.09655  0.42005  0.93776  1.0000
  C   C958      1.0  0.16762  0.39903  0.94028  1.0000
  H   H1668     1.0  0.35571  0.17614  0.80812  1.0000
  H   H1669     1.0  0.16782  0.40822  0.91550  1.0000
  H   H1670     1.0  0.15033  0.39670  0.92272  1.0000
  H   H1671     1.0  0.13488  0.40387  0.90686  1.0000
  H   H1672     1.0  0.12859  0.42545  0.89801  1.0000
  H   H1673     1.0  0.16410  0.43613  0.90273  1.0000
  H   H1674     1.0  0.24936  0.40927  0.81333  1.0000
  H   H1675     1.0  0.12403  0.43601  0.92841  1.0000
  H   H1676     1.0  0.11433  0.43957  0.91531  1.0000
  H   H1677     1.0  0.12123  0.40216  0.93223  1.0000
  H   H1678     1.0  0.10772  0.41083  0.92047  1.0000
  H   H1679     1.0  0.15692  0.42632  0.93279  1.0000
  H   H1680     1.0  0.14043  0.41299  0.94046  1.0000
  Fe  Fe118     1.0  0.42186  0.30212  0.80466  1.0000
  H   H1681     1.0  0.13738  0.45110  0.89118  1.0000
  H   H1682     1.0  0.16035  0.42546  0.88663  1.0000
  H   H1683     1.0  0.16819  0.40463  0.89662  1.0000
  H   H1684     1.0  0.14281  0.41101  0.87871  1.0000
  H   H1685     1.0  0.16628  0.40041  0.87634  1.0000
  H   H1686     1.0  0.15036  0.39002  0.88888  1.0000
  H   H1687     1.0  0.08755  0.43226  0.93366  1.0000
  H   H1688     1.0  0.08879  0.40942  0.94179  1.0000
  H   H1689     1.0  0.10102  0.42258  0.94555  1.0000
  H   H1690     1.0  0.18136  0.39913  0.93437  1.0000
  H   H1691     1.0  0.16720  0.40163  0.94960  1.0000
  H   H1692     1.0  0.16469  0.38570  0.94191  1.0000
  H   H1693     1.0  0.32854  0.31587  0.81732  1.0000
  H   H1694     1.0  0.22708  0.40954  0.87912  1.0000
  H   H1695     1.0  0.21921  0.39202  0.81284  1.0000
  N   N54       1.0  0.11738  0.39576  0.83868  1.0000
  C   C959      1.0  0.11466  0.37880  0.83675  1.0000
  C   C960      1.0  0.09986  0.40631  0.84499  1.0000
  C   C961      1.0  0.12347  0.40677  0.82570  1.0000
  C   C962      1.0  0.13168  0.39237  0.84611  1.0000
  C   C963      1.0  0.12876  0.38022  0.85945  1.0000
  C   C964      1.0  0.13171  0.36648  0.83059  1.0000
  C   C965      1.0  0.12595  0.42547  0.82533  1.0000
  C   C966      1.0  0.08657  0.39578  0.85502  1.0000
  C   C967      1.0  0.07169  0.40800  0.86250  1.0000
  C   C968      1.0  0.14589  0.37459  0.86464  1.0000
  C   C969      1.0  0.31343  0.34319  0.81468  1.0000
  S   S234      1.0  0.17487  0.43114  0.81164  1.0000
  H   H1696     1.0  0.10447  0.38200  0.83083  1.0000
  H   H1697     1.0  0.10892  0.37054  0.84581  1.0000
  H   H1698     1.0  0.10257  0.41578  0.84952  1.0000
  H   H1699     1.0  0.09200  0.41477  0.83780  1.0000
  H   H1700     1.0  0.11385  0.40840  0.81961  1.0000
  H   H1701     1.0  0.13671  0.40002  0.82081  1.0000
  H   H1702     1.0  0.14498  0.38692  0.84059  1.0000
  H   H1703     1.0  0.13304  0.40507  0.84758  1.0000
  H   H1704     1.0  0.12489  0.36794  0.85947  1.0000
  H   H1705     1.0  0.11819  0.38759  0.86607  1.0000
  H   H1706     1.0  0.20761  0.44588  0.88239  1.0000
  H   H1707     1.0  0.14206  0.36229  0.83640  1.0000
  H   H1708     1.0  0.13798  0.42424  0.82905  1.0000
  C   C970      1.0  0.18229  0.40411  0.79925  1.0000
  H   H1709     1.0  0.08011  0.38953  0.85022  1.0000
  H   H1710     1.0  0.09325  0.38517  0.86190  1.0000
  H   H1711     1.0  0.06211  0.40026  0.86938  1.0000
  H   H1712     1.0  0.07747  0.41406  0.86788  1.0000
  H   H1713     1.0  0.06418  0.41872  0.85606  1.0000
  H   H1714     1.0  0.14323  0.36664  0.87447  1.0000
  H   H1715     1.0  0.15672  0.36637  0.85872  1.0000
  H   H1716     1.0  0.15049  0.38640  0.86479  1.0000
  H   H1717     1.0  0.46268  0.23105  0.84507  1.0000
  H   H1718     1.0  0.33371  0.48855  0.82633  1.0000
  H   H1719     1.0  0.30934  0.47675  0.87966  1.0000
  C   C971      1.0  0.47141  0.19416  0.83380  1.0000
  H   H1720     1.0  0.23746  0.44294  0.80325  1.0000
  C   C972      1.0  0.36246  0.19568  0.79118  1.0000
  H   H1721     1.0  0.46242  0.15026  0.88584  1.0000
  C   C973      1.0  0.49733  0.05706  0.96210  1.0000
  C   C974      1.0  0.24573  0.48113  0.84375  1.0000
  C   C975      1.0  0.38230  0.18042  0.80584  1.0000
  C   C976      1.0  0.30889  0.99397  0.90376  1.0000
  C   C977      1.0  0.48212  0.10926  0.86995  1.0000
  N   N55       1.0  0.42562  0.16013  0.89949  1.0000
  C   C978      1.0  0.41889  0.17414  0.88878  1.0000
  Fe  Fe119     1.0  0.28707  0.42496  0.80007  1.0000
  C   C979      1.0  0.41188  0.16252  0.91157  1.0000
  H   H1722     1.0  0.39649  0.41973  0.80659  1.0000
  H   H1723     1.0  0.43646  0.25000  0.81497  1.0000
  C   C980      1.0  0.41647  0.19371  0.88963  1.0000
  C   C981      1.0  0.41562  0.14851  0.92370  1.0000
  N   N56       1.0  0.48132  0.06295  0.97212  1.0000
  C   C982      1.0  0.47081  0.01872  0.92097  1.0000
  Fe  Fe120     1.0  0.20289  0.34098  0.79344  1.0000
  C   C983      1.0  0.41174  0.20664  0.87763  1.0000
  C   C984      1.0  0.39994  0.15095  0.93498  1.0000
  H   H1724     1.0  0.40570  0.17239  0.88809  1.0000
  H   H1725     1.0  0.42799  0.17258  0.87952  1.0000
  H   H1726     1.0  0.41987  0.14597  0.87929  1.0000
  H   H1727     1.0  0.41419  0.13731  0.90206  1.0000
  H   H1728     1.0  0.39832  0.16245  0.91043  1.0000
  H   H1729     1.0  0.41075  0.17556  0.91372  1.0000
  C   C985      1.0  0.49586  0.11253  0.92335  1.0000
  H   H1730     1.0  0.35324  0.45306  0.80822  1.0000
  C   C986      1.0  0.00717  0.39696  0.95284  1.0000
  H   H1731     1.0  0.28248  0.37146  0.83977  1.0000
  H   H1732     1.0  0.40538  0.19711  0.89764  1.0000
  H   H1733     1.0  0.42897  0.19614  0.89086  1.0000
  H   H1734     1.0  0.26239  0.40085  0.83451  1.0000
  C   C987      1.0  0.03936  0.38593  0.94168  1.0000
  C   C988      1.0  0.17613  0.37831  0.82137  1.0000
  H   H1735     1.0  0.32220  0.47178  0.81575  1.0000
  H   H1736     1.0  0.47936  0.09896  0.87870  1.0000
  H   H1737     1.0  0.21510  0.40526  0.84164  1.0000
  H   H1738     1.0  0.49395  0.13187  0.86322  1.0000
  C   C989      1.0  0.42705  0.14171  0.89762  1.0000
  C   C990      1.0  0.48199  0.17616  0.79713  1.0000
  C   C991      1.0  0.49129  0.00941  0.90225  1.0000
  H   H1739     1.0  0.42232  0.20386  0.86918  1.0000
  H   H1740     1.0  0.39861  0.20566  0.87637  1.0000
  H   H1741     1.0  0.41065  0.22045  0.87834  1.0000
  H   H1742     1.0  0.39753  0.16432  0.93699  1.0000
  H   H1743     1.0  0.38753  0.14918  0.93307  1.0000
  H   H1744     1.0  0.40306  0.14081  0.94350  1.0000
  H   H1745     1.0  0.49041  0.16808  0.81522  1.0000
  H   H1746     1.0  0.35425  0.43003  0.81061  1.0000
  H   H1747     1.0  0.15081  0.44565  0.91561  1.0000
  C   C992      1.0  0.32704  0.32754  0.80930  1.0000
  H   H1748     1.0  0.45930  0.02176  0.89305  1.0000
  C   C993      1.0  0.40152  0.27854  0.83217  1.0000
  H   H1749     1.0  0.42830  0.25265  0.80092  1.0000
  H   H1750     1.0  0.49694  0.02108  0.90142  1.0000
  C   C994      1.0  0.22605  0.36519  0.82207  1.0000
  C   C995      1.0  0.48542  0.31951  0.79888  1.0000
  C   C996      1.0  0.18055  0.37364  0.80959  1.0000
  H   H1751     1.0  0.21346  0.45096  0.80553  1.0000
  H   H1752     1.0  0.28659  0.34899  0.82620  1.0000
  S   S235      1.0  0.18133  0.35177  0.80897  1.0000
  C   C997      1.0  0.48775  0.06872  0.98159  1.0000
  C   C998      1.0  0.29875  0.23886  0.80366  1.0000
  H   H1753     1.0  0.47797  0.04453  0.89332  1.0000
  H   H1754     1.0  0.45650  0.02229  0.92591  1.0000
  C   C999      1.0  0.36013  0.28901  0.78687  1.0000
  C   C1000     1.0  0.46769  0.19272  0.80045  1.0000
  H   H1755     1.0  0.44654  0.11161  0.88784  1.0000
  C   C1001     1.0  0.49388  0.05874  0.94877  1.0000
  H   H1756     1.0  0.46021  0.29172  0.84551  1.0000
  Fe  Fe121     1.0  0.22606  0.30672  0.78617  1.0000
  H   H1757     1.0  0.28972  0.33273  0.81702  1.0000
  C   C1002     1.0  0.43529  0.23267  0.84519  1.0000
  C   C1003     1.0  0.21690  0.46431  0.86527  1.0000
  H   H1758     1.0  0.25884  0.41207  0.87084  1.0000
  H   H1759     1.0  0.14041  0.42925  0.80558  1.0000
  H   H1760     1.0  0.46501  0.01770  0.94681  1.0000
  C   C1004     1.0  0.24931  0.41752  0.86471  1.0000
  S   S236      1.0  0.30584  0.48295  0.79367  1.0000
  H   H1761     1.0  0.22191  0.41931  0.80487  1.0000
  H   H1762     1.0  0.47406  0.29190  0.82231  1.0000
  H   H1763     1.0  0.35367  0.02729  0.94748  1.0000
  H   H1764     1.0  0.36811  0.29432  0.80193  1.0000
  H   H1765     1.0  0.21976  0.34582  0.81500  1.0000
  N   N57       1.0  0.23319  0.39193  0.82705  1.0000
  H   H1766     1.0  0.21878  0.46112  0.88483  1.0000
  H   H1767     1.0  0.24720  0.46652  0.84578  1.0000
  H   H1768     1.0  0.11567  0.46261  0.87149  1.0000
  H   H1769     1.0  0.46251  0.07521  0.95965  1.0000
  C   C1005     1.0  0.39332  0.25269  0.82982  1.0000
  H   H1770     1.0  0.18711  0.37843  0.85142  1.0000
  H   H1771     1.0  0.48410  0.24462  0.84161  1.0000
  C   C1006     1.0  0.40103  0.01388  0.90434  1.0000
  H   H1772     1.0  0.37605  0.42237  0.82409  1.0000
  S   S237      1.0  0.41595  0.18675  0.80274  1.0000
  H   H1773     1.0  0.03179  0.40036  0.95648  1.0000
  C   C1007     1.0  0.38800  0.36124  0.79520  1.0000
  C   C1008     1.0  0.02708  0.39006  0.95408  1.0000
  H   H1774     1.0  0.43561  0.21421  0.79997  1.0000
  H   H1775     1.0  0.33941  0.35915  0.80128  1.0000
  H   H1776     1.0  0.13764  0.37304  0.82090  1.0000
  C   C1009     1.0  0.38735  0.24784  0.84295  1.0000
  C   C1010     1.0  0.46351  0.04476  0.89734  1.0000
  C   C1011     1.0  0.49789  0.26573  0.83557  1.0000
  H   H1777     1.0  0.47921  0.28204  0.80292  1.0000
  H   H1778     1.0  0.42941  0.23718  0.85425  1.0000
  H   H1779     1.0  0.06388  0.46556  0.97364  1.0000
  H   H1780     1.0  0.39799  0.02017  0.89512  1.0000
  H   H1781     1.0  0.10130  0.45654  0.93778  1.0000
  H   H1782     1.0  0.13978  0.34115  0.82502  1.0000
  H   H1783     1.0  0.44061  0.26492  0.83055  1.0000
  C   C1012     1.0  0.38950  0.42119  0.79890  1.0000
  C   C1013     1.0  0.05367  0.47745  0.97540  1.0000
  C   C1014     1.0  0.24997  0.38125  0.83167  1.0000
  C   C1015     1.0  0.47934  0.01408  0.94208  1.0000
  C   C1016     1.0  0.08680  0.47603  0.94890  1.0000
  C   C1017     1.0  0.36312  0.38550  0.80030  1.0000
  C   C1018     1.0  0.23648  0.41021  0.82045  1.0000
  C   C1019     1.0  0.25498  0.42590  0.85213  1.0000
  C   C1020     1.0  0.20939  0.45979  0.87953  1.0000
  H   H1784     1.0  0.44012  0.32142  0.84172  1.0000
  C   C1021     1.0  0.39558  0.18950  0.79819  1.0000
  C   C1022     1.0  0.36264  0.43987  0.80901  1.0000
  H   H1785     1.0  0.43969  0.31906  0.82630  1.0000
  H   H1786     1.0  0.23809  0.41699  0.82731  1.0000
  H   H1787     1.0  0.47274  0.26268  0.84893  1.0000
  C   C1023     1.0  0.09960  0.46396  0.89014  1.0000
  H   H1788     1.0  0.45795  0.23374  0.82978  1.0000
  H   H1789     1.0  0.39615  0.28193  0.85132  1.0000
  H   H1790     1.0  0.36047  0.31169  0.81517  1.0000
  S   S238      1.0  0.31371  0.43264  0.79078  1.0000
  H   H1791     1.0  0.27494  0.38283  0.85269  1.0000
  N   N58       1.0  0.46783  0.26578  0.83030  1.0000
  C   C1024     1.0  0.46230  0.28576  0.82703  1.0000
  C   C1025     1.0  0.47659  0.25875  0.81836  1.0000
  C   C1026     1.0  0.45092  0.25867  0.83643  1.0000
  C   C1027     1.0  0.48003  0.25933  0.83963  1.0000
  C   C1028     1.0  0.42631  0.00257  0.96438  1.0000
  C   C1029     1.0  0.45209  0.29497  0.83821  1.0000
  C   C1030     1.0  0.45314  0.23826  0.83882  1.0000
  C   C1031     1.0  0.48816  0.27018  0.80745  1.0000
  S   S239      1.0  0.27619  0.44796  0.80987  1.0000
  H   H1792     1.0  0.48718  0.32796  0.81513  1.0000
  H   H1793     1.0  0.39295  0.00401  0.97604  1.0000
  H   H1794     1.0  0.38175  0.41047  0.80210  1.0000
  C   C1032     1.0  0.36821  0.02111  0.94549  1.0000
  H   H1795     1.0  0.36162  0.04274  0.96111  1.0000
  H   H1796     1.0  0.36803  0.00803  0.96490  1.0000
  H   H1797     1.0  0.37000  0.00865  0.94232  1.0000
  C   C1033     1.0  0.41334  0.01996  0.96651  1.0000
  H   H1798     1.0  0.37541  0.03024  0.93770  1.0000
  Fe  Fe122     1.0  0.30355  0.45427  0.80194  1.0000
  H   H1799     1.0  0.48494  0.24519  0.82067  1.0000
  H   H1800     1.0  0.37194  0.32817  0.80483  1.0000
  C   C1034     1.0  0.37581  0.01689  0.95737  1.0000
  C   C1035     1.0  0.36586  0.18333  0.80224  1.0000
  H   H1801     1.0  0.41101  0.02791  0.95720  1.0000
  H   H1802     1.0  0.37730  0.36662  0.81389  1.0000
  S   S240      1.0  0.34823  0.39630  0.81193  1.0000
  H   H1803     1.0  0.32712  0.23579  0.79629  1.0000
  H   H1804     1.0  0.11114  0.45546  0.95084  1.0000
  C   C1036     1.0  0.49415  0.32528  0.80592  1.0000
  C   C1037     1.0  0.37516  0.03408  0.96149  1.0000
  H   H1805     1.0  0.28463  0.01463  0.90343  1.0000
  C   C1038     1.0  0.46164  0.10958  0.95314  1.0000
  C   C1039     1.0  0.47282  0.18251  0.84542  1.0000
  H   H1806     1.0  0.47605  0.03110  0.91830  1.0000
  H   H1807     1.0  0.23575  0.35566  0.82749  1.0000
  H   H1808     1.0  0.00440  0.37261  0.97772  1.0000
  H   H1809     1.0  0.38438  0.04141  0.95386  1.0000
  C   C1040     1.0  0.12885  0.43638  0.81176  1.0000
  H   H1810     1.0  0.03604  0.37481  0.93927  1.0000
  H   H1811     1.0  0.19197  0.39125  0.86063  1.0000
  H   H1812     1.0  0.42568  0.23828  0.83883  1.0000
  H   H1813     1.0  0.16354  0.48528  0.86223  1.0000
  H   H1814     1.0  0.45461  0.99522  0.92236  1.0000
  C   C1041     1.0  0.15103  0.46986  0.89261  1.0000
  S   S241      1.0  0.41158  0.29698  0.82578  1.0000
  H   H1815     1.0  0.15394  0.47512  0.89986  1.0000
  C   C1042     1.0  0.23057  0.38372  0.81726  1.0000
  H   H1816     1.0  0.24493  0.39446  0.84760  1.0000
  H   H1817     1.0  0.34420  0.43254  0.83416  1.0000
  H   H1818     1.0  0.44193  0.23133  0.78721  1.0000
  H   H1819     1.0  0.17392  0.36828  0.82995  1.0000
  H   H1820     1.0  0.38913  0.04630  0.98371  1.0000
  C   C1043     1.0  0.47456  0.09603  0.96077  1.0000
  C   C1044     1.0  0.29619  0.33749  0.82274  1.0000
  C   C1045     1.0  0.47528  0.16582  0.89184  1.0000
  H   H1821     1.0  0.44145  0.17387  0.90496  1.0000
  H   H1822     1.0  0.44846  0.11345  0.95942  1.0000
  C   C1046     1.0  0.41776  0.09992  0.97180  1.0000
  H   H1823     1.0  0.29909  0.32681  0.83105  1.0000
  H   H1824     1.0  0.32565  0.47265  0.86547  1.0000
  H   H1825     1.0  0.21975  0.36466  0.84632  1.0000
  H   H1826     1.0  0.34731  0.45511  0.83028  1.0000
  C   C1047     1.0  0.22166  0.42307  0.81375  1.0000
  H   H1827     1.0  0.38580  0.23612  0.79173  1.0000
  C   C1048     1.0  0.45077  0.23033  0.80377  1.0000
  H   H1828     1.0  0.38991  0.00946  0.95515  1.0000
  H   H1829     1.0  0.32014  0.32383  0.80326  1.0000
  N   N59       1.0  0.37937  0.03153  0.97431  1.0000
  H   H1830     1.0  0.46714  0.12169  0.94863  1.0000
  C   C1049     1.0  0.21921  0.48377  0.86085  1.0000
  C   C1050     1.0  0.49927  0.08771  0.91384  1.0000
  H   H1831     1.0  0.17155  0.39927  0.83119  1.0000
  C   C1051     1.0  0.17483  0.39583  0.82210  1.0000
  C   C1052     1.0  0.39562  0.01687  0.97610  1.0000
  H   H1832     1.0  0.02881  0.37784  0.96157  1.0000
  C   C1053     1.0  0.35347  0.33563  0.82161  1.0000
  H   H1833     1.0  0.43704  0.13179  0.90267  1.0000
  C   C1054     1.0  0.35619  0.29890  0.79754  1.0000
  H   H1834     1.0  0.48300  0.05236  0.94911  1.0000
  H   H1835     1.0  0.47763  0.03024  0.96634  1.0000
  H   H1836     1.0  0.44866  0.15059  0.90823  1.0000
  H   H1837     1.0  0.22440  0.37743  0.85531  1.0000
  C   C1055     1.0  0.21663  0.39359  0.83759  1.0000
  H   H1838     1.0  0.24271  0.38302  0.80940  1.0000
  H   H1839     1.0  0.45920  0.05119  0.90557  1.0000
  C   C1056     1.0  0.35850  0.32598  0.81054  1.0000
  S   S242      1.0  0.27739  0.42767  0.84666  1.0000
  H   H1840     1.0  0.16386  0.46436  0.88655  1.0000
  H   H1841     1.0  0.39768  0.44967  0.79949  1.0000
  C   C1057     1.0  0.21555  0.37760  0.84910  1.0000
  H   H1842     1.0  0.42284  0.11371  0.88966  1.0000
  H   H1843     1.0  0.49579  0.00222  0.92679  1.0000
  H   H1844     1.0  0.38327  0.08485  0.96746  1.0000
  C   C1058     1.0  0.39229  0.20149  0.78699  1.0000
  C   C1059     1.0  0.46783  0.07849  0.96673  1.0000
  H   H1845     1.0  0.45971  0.10409  0.94563  1.0000
  H   H1846     1.0  0.23002  0.45508  0.86328  1.0000
  H   H1847     1.0  0.38137  0.33383  0.82211  1.0000
  H   H1848     1.0  0.42139  0.39557  0.79878  1.0000
  H   H1849     1.0  0.37943  0.44481  0.82000  1.0000
  H   H1850     1.0  0.35943  0.43822  0.84103  1.0000
  H   H1851     1.0  0.47175  0.31784  0.80264  1.0000
  H   H1852     1.0  0.48505  0.02618  0.93875  1.0000
  C   C1060     1.0  0.37303  0.08103  0.97607  1.0000
  C   C1061     1.0  0.47840  0.11890  0.92127  1.0000
  Fe  Fe123     1.0  0.28816  0.42955  0.82581  1.0000
  S   S243      1.0  0.31459  0.43757  0.81868  1.0000
  C   C1062     1.0  0.36881  0.33063  0.82864  1.0000
  H   H1853     1.0  0.48437  0.21889  0.78963  1.0000
  C   C1063     1.0  0.45345  0.02627  0.97999  1.0000
  C   C1064     1.0  0.36334  0.02670  0.98428  1.0000
  C   C1065     1.0  0.25629  0.38950  0.84027  1.0000
  C   C1066     1.0  0.49539  0.00530  0.88894  1.0000
  C   C1067     1.0  0.46573  0.03856  0.97143  1.0000
  C   C1068     1.0  0.43368  0.24283  0.80879  1.0000
  Fe  Fe124     1.0  0.32245  0.41532  0.80843  1.0000
  H   H1854     1.0  0.44542  0.02720  0.90721  1.0000
  C   C1069     1.0  0.45312  0.05636  0.88727  1.0000
  H   H1855     1.0  0.41561  0.12576  0.97514  1.0000
  H   H1856     1.0  0.46108  0.23831  0.79874  1.0000
  H   H1857     1.0  0.43671  0.11755  0.87404  1.0000
  H   H1858     1.0  0.28919  0.23386  0.81233  1.0000
  C   C1070     1.0  0.44711  0.22070  0.79479  1.0000
  H   H1859     1.0  0.44075  0.03404  0.98476  1.0000
  H   H1860     1.0  0.20117  0.48592  0.84493  1.0000
  C   C1071     1.0  0.12732  0.34964  0.82943  1.0000
  H   H1861     1.0  0.30512  0.02267  0.89705  1.0000
  C   C1072     1.0  0.43460  0.11924  0.88387  1.0000
  H   H1862     1.0  0.19612  0.46863  0.88210  1.0000
  C   C1073     1.0  0.43139  0.13892  0.88389  1.0000
  H   H1863     1.0  0.47795  0.99358  0.97342  1.0000
  H   H1864     1.0  0.42015  0.99487  0.96048  1.0000
  H   H1865     1.0  0.32212  0.38213  0.78856  1.0000
  H   H1866     1.0  0.09460  0.47575  0.96604  1.0000
  C   C1074     1.0  0.40024  0.99598  0.90942  1.0000
  H   H1867     1.0  0.11738  0.35297  0.82335  1.0000
  H   H1868     1.0  0.47029  0.13092  0.92418  1.0000
  H   H1869     1.0  0.25156  0.48014  0.82376  1.0000
  Fe  Fe125     1.0  0.15638  0.47075  0.84283  1.0000
  C   C1075     1.0  0.35275  0.31927  0.79229  1.0000
  H   H1870     1.0  0.45511  0.22092  0.81213  1.0000
  H   H1871     1.0  0.24031  0.35287  0.80612  1.0000
  H   H1872     1.0  0.36520  0.33814  0.83628  1.0000
  H   H1873     1.0  0.36174  0.06777  0.96687  1.0000
  C   C1076     1.0  0.49913  0.20251  0.83288  1.0000
  H   H1874     1.0  0.07702  0.46751  0.95379  1.0000
  C   C1077     1.0  0.27056  0.37623  0.84687  1.0000
  C   C1078     1.0  0.22446  0.44206  0.81007  1.0000
  C   C1079     1.0  0.21529  0.48543  0.83948  1.0000
  H   H1875     1.0  0.11419  0.43312  0.83100  1.0000
  H   H1876     1.0  0.42781  0.14960  0.92625  1.0000
  H   H1877     1.0  0.26506  0.36478  0.85321  1.0000
  H   H1878     1.0  0.21877  0.36710  0.80422  1.0000
  H   H1879     1.0  0.21218  0.47713  0.81751  1.0000
  H   H1880     1.0  0.31897  0.34853  0.82055  1.0000
  C   C1080     1.0  0.10698  0.45622  0.87957  1.0000
  H   H1881     1.0  0.26140  0.37932  0.82343  1.0000
  H   H1882     1.0  0.42331  0.23525  0.81436  1.0000
  C   C1081     1.0  0.48760  0.18059  0.85066  1.0000
  H   H1883     1.0  0.14337  0.48101  0.88651  1.0000
  H   H1884     1.0  0.34168  0.33147  0.82862  1.0000
  C   C1082     1.0  0.31196  0.47999  0.86914  1.0000
  H   H1885     1.0  0.40075  0.22981  0.80251  1.0000
  H   H1886     1.0  0.35633  0.06202  0.98393  1.0000
  H   H1887     1.0  0.44341  0.14385  0.87798  1.0000
  H   H1888     1.0  0.07161  0.48554  0.98258  1.0000
  H   H1889     1.0  0.10298  0.47610  0.89026  1.0000
  H   H1890     1.0  0.43747  0.21799  0.84723  1.0000
  H   H1891     1.0  0.38844  0.10716  0.78763  1.0000
  H   H1892     1.0  0.29031  0.38521  0.79683  1.0000
  H   H1893     1.0  0.22070  0.47151  0.83823  1.0000
  H   H1894     1.0  0.29757  0.01166  0.88796  1.0000
  S   S244      1.0  0.07988  0.46538  0.91399  1.0000
  C   C1083     1.0  0.18381  0.38653  0.79851  1.0000
  Fe  Fe126     1.0  0.01617  0.47670  0.93666  1.0000
  C   C1084     1.0  0.22628  0.35735  0.81111  1.0000
  H   H1895     1.0  0.48027  0.15469  0.89929  1.0000
  H   H1896     1.0  0.49763  0.27497  0.81069  1.0000
  H   H1897     1.0  0.45810  0.05134  0.87838  1.0000
  C   C1085     1.0  0.37633  0.37082  0.80405  1.0000
  S   S245      1.0  0.43332  0.32618  0.79442  1.0000
  H   H1898     1.0  0.33411  0.00493  0.91306  1.0000
  C   C1086     1.0  0.49333  0.12086  0.87168  1.0000
  H   H1899     1.0  0.27914  0.46430  0.83235  1.0000
  S   S246      1.0  0.22847  0.32334  0.79836  1.0000
  C   C1087     1.0  0.34647  0.99443  0.91370  1.0000
  H   H1900     1.0  0.47276  0.15808  0.81471  1.0000
  H   H1901     1.0  0.47539  0.10211  0.96833  1.0000
  H   H1902     1.0  0.25324  0.48322  0.85011  1.0000
  H   H1903     1.0  0.48872  0.17156  0.85964  1.0000
  H   H1904     1.0  0.43868  0.00543  0.95744  1.0000
  H   H1905     1.0  0.29732  0.23399  0.79568  1.0000
  H   H1906     1.0  0.48911  0.10273  0.86187  1.0000
  C   C1088     1.0  0.48535  0.16245  0.80918  1.0000
  H   H1907     1.0  0.26503  0.24886  0.78968  1.0000
  H   H1908     1.0  0.28981  0.35594  0.79331  1.0000
  H   H1909     1.0  0.47225  0.17847  0.89502  1.0000
  H   H1910     1.0  0.48989  0.25536  0.79341  1.0000
  H   H1911     1.0  0.36563  0.32246  0.78611  1.0000
  H   H1912     1.0  0.36127  0.09233  0.97657  1.0000
  C   C1089     1.0  0.49901  0.25988  0.79724  1.0000
  H   H1913     1.0  0.01220  0.48789  0.95905  1.0000
  H   H1914     1.0  0.39768  0.34953  0.79829  1.0000
  C   C1090     1.0  0.36723  0.06460  0.97551  1.0000
  H   H1915     1.0  0.48645  0.01464  0.88287  1.0000
  C   C1091     1.0  0.27999  0.36759  0.79037  1.0000
  H   H1916     1.0  0.49013  0.07284  0.94399  1.0000
  C   C1092     1.0  0.38327  0.04844  0.97529  1.0000
  C   C1093     1.0  0.41533  0.39779  0.79048  1.0000
  H   H1917     1.0  0.19187  0.25990  0.78836  1.0000
  H   H1918     1.0  0.42997  0.99450  0.97337  1.0000
  H   H1919     1.0  0.45005  0.01891  0.97422  1.0000
  H   H1920     1.0  0.48603  0.16655  0.88311  1.0000
  H   H1921     1.0  0.34442  0.29499  0.80470  1.0000
  H   H1922     1.0  0.33941  0.45391  0.79229  1.0000
  H   H1923     1.0  0.46919  0.11768  0.86783  1.0000
  C   C1094     1.0  0.26794  0.39928  0.78813  1.0000
  C   C1095     1.0  0.48122  0.00571  0.93093  1.0000
  H   H1924     1.0  0.48809  0.09382  0.95450  1.0000
  H   H1925     1.0  0.48609  0.12650  0.88013  1.0000
  H   H1926     1.0  0.35854  0.35173  0.79026  1.0000
  H   H1927     1.0  0.13663  0.34736  0.79063  1.0000
  C   C1096     1.0  0.38656  0.45396  0.79428  1.0000
  S   S247      1.0  0.40385  0.30574  0.79145  1.0000
  C   C1097     1.0  0.49449  0.31579  0.78703  1.0000
  H   H1928     1.0  0.00289  0.47680  0.98141  1.0000
  H   H1929     1.0  0.44399  0.99874  0.90360  1.0000
  H   H1930     1.0  0.15286  0.34474  0.79991  1.0000
  C   C1098     1.0  0.08982  0.48601  0.95802  1.0000
  H   H1931     1.0  0.37749  0.46552  0.79808  1.0000
  H   H1932     1.0  0.47762  0.16966  0.79127  1.0000
  H   H1933     1.0  0.40650  0.38828  0.79250  1.0000
  S   S248      1.0  0.00698  0.45130  0.94627  1.0000
  H   H1934     1.0  0.48678  0.00452  0.94908  1.0000
  H   H1935     1.0  0.45124  0.18762  0.78620  1.0000
  H   H1936     1.0  0.49555  0.15066  0.80666  1.0000
  S   S249      1.0  0.26873  0.42051  0.78938  1.0000
  C   C1099     1.0  0.36219  0.39122  0.78753  1.0000
  H   H1937     1.0  0.47610  0.99331  0.93474  1.0000
  C   C1100     1.0  0.50081  0.19054  0.84437  1.0000
  C   C1101     1.0  0.29847  0.01183  0.89763  1.0000
  H   H1938     1.0  0.32420  0.16566  0.79213  1.0000
  H   H1939     1.0  0.01149  0.40071  0.97472  1.0000
  H   H1940     1.0  0.22826  0.48507  0.86646  1.0000
  C   C1102     1.0  0.15113  0.34591  0.79021  1.0000
  H   H1941     1.0  0.18718  0.38306  0.78938  1.0000
  H   H1942     1.0  0.49420  0.99152  0.88985  1.0000
  H   H1943     1.0  0.49554  0.07921  0.97665  1.0000
  C   C1103     1.0  0.35235  0.99423  0.92565  1.0000
  C   C1104     1.0  0.34470  0.34979  0.79480  1.0000
  H   H1944     1.0  0.28748  0.28596  0.78885  1.0000
  H   H1945     1.0  0.48055  0.03714  0.98482  1.0000
  H   H1946     1.0  0.00591  0.41083  0.94713  1.0000
  S   S250      1.0  0.23358  0.27707  0.79153  1.0000
  H   H1947     1.0  0.36407  0.27454  0.79053  1.0000
  H   H1948     1.0  0.08173  0.48514  0.94067  1.0000
  H   H1949     1.0  0.32176  0.35052  0.78677  1.0000
  H   H1950     1.0  0.37878  0.07849  0.98456  1.0000
  H   H1951     1.0  0.33413  0.00133  0.89269  1.0000
  H   H1952     1.0  0.49972  0.99816  0.90774  1.0000
  H   H1953     1.0  0.35494  0.00741  0.92501  1.0000
  H   H1954     1.0  0.04564  0.48139  0.96806  1.0000
  C   C1105     1.0  0.28030  0.38410  0.79235  1.0000
  H   H1955     1.0  0.36148  0.01358  0.98395  1.0000
  H   H1956     1.0  0.35703  0.99835  0.90544  1.0000
  H   H1957     1.0  0.19051  0.48916  0.82459  1.0000
  C   C1106     1.0  0.08156  0.43436  0.98526  1.0000
  H   H1958     1.0  0.34337  0.32210  0.78586  1.0000
  N   N60       1.0  0.22618  0.49014  0.84684  1.0000
  H   H1959     1.0  0.00267  0.47454  0.90194  1.0000
  H   H1960     1.0  0.36180  0.42831  0.78844  1.0000
  H   H1961     1.0  0.41146  0.99141  0.93743  1.0000
  H   H1962     1.0  0.34174  0.99124  0.93421  1.0000
  H   H1963     1.0  0.35446  0.46879  0.78606  1.0000
  C   C1107     1.0  0.40470  0.41686  0.78746  1.0000
  C   C1108     1.0  0.36736  0.44038  0.78658  1.0000
  H   H1964     1.0  0.00253  0.40019  0.91133  1.0000
  H   H1965     1.0  0.46589  0.99092  0.89472  1.0000
  H   H1966     1.0  0.25415  0.53197  0.11104  1.0000
  Fe  Fe127     1.0  0.08699  0.61003  0.05371  1.0000
  S   S251      1.0  0.06543  0.59442  0.06343  1.0000
  S   S252      1.0  0.09506  0.62031  0.06793  1.0000
  Fe  Fe128     1.0  0.08796  0.60351  0.02784  1.0000
  S   S253      1.0  0.06707  0.58715  0.03581  1.0000
  Fe  Fe129     1.0  0.05263  0.60816  0.04680  1.0000
  Fe  Fe130     1.0  0.08192  0.57510  0.05146  1.0000
  S   S254      1.0  0.08734  0.54585  0.05934  1.0000
  S   S255      1.0  0.07266  0.62561  0.03791  1.0000
  S   S256      1.0  0.10429  0.58955  0.04272  1.0000
  S   S257      1.0  0.09435  0.50955  0.01428  1.0000
  S   S258      1.0  0.46394  0.94360  0.01565  1.0000
  H   H1967     1.0  0.31568  0.69121  0.10472  1.0000
  S   S259      1.0  0.41601  0.93947  0.01507  1.0000
  C   C1109     1.0  0.38201  0.63647  0.08427  1.0000
  Fe  Fe131     1.0  0.42764  0.85807  0.08821  1.0000
  S   S260      1.0  0.42027  0.87584  0.10200  1.0000
  S   S261      1.0  0.42127  0.86488  0.06893  1.0000
  Fe  Fe132     1.0  0.44754  0.82706  0.10528  1.0000
  S   S262      1.0  0.44204  0.84241  0.12043  1.0000
  S   S263      1.0  0.46434  0.79916  0.10770  1.0000
  Fe  Fe133     1.0  0.41419  0.85158  0.11669  1.0000
  S   S264      1.0  0.39049  0.85271  0.13329  1.0000
  Fe  Fe134     1.0  0.44868  0.86497  0.10441  1.0000
  S   S265      1.0  0.46715  0.88228  0.10376  1.0000
  S   S266      1.0  0.41923  0.83476  0.10260  1.0000
  S   S267      1.0  0.45655  0.84890  0.08952  1.0000
  Fe  Fe135     1.0  0.17922  0.62621  0.11496  1.0000
  S   S268      1.0  0.19599  0.63366  0.09544  1.0000
  S   S269      1.0  0.16338  0.64487  0.12786  1.0000
  Fe  Fe136     1.0  0.18464  0.58795  0.11326  1.0000
  S   S270      1.0  0.20217  0.59211  0.09391  1.0000
  S   S271      1.0  0.17797  0.56140  0.12297  1.0000
  Fe  Fe137     1.0  0.21470  0.60788  0.10142  1.0000
  S   S272      1.0  0.24482  0.60173  0.09774  1.0000
  Fe  Fe138     1.0  0.18164  0.61711  0.08981  1.0000
  S   S273      1.0  0.17294  0.62361  0.07114  1.0000
  S   S274      1.0  0.19893  0.60153  0.12128  1.0000
  S   S275      1.0  0.16327  0.61194  0.10881  1.0000
  C   C1110     1.0  0.00578  0.57317  0.01266  1.0000
  C   C1111     1.0  0.48086  0.91709  0.04797  1.0000
  C   C1112     1.0  0.35720  0.98575  0.05982  1.0000
  H   H1968     1.0  0.16940  0.49641  0.03671  1.0000
  H   H1969     1.0  0.41661  0.78957  0.18284  1.0000
  S   S276      1.0  0.16739  0.52255  0.08435  1.0000
  H   H1970     1.0  0.39349  0.63895  0.09914  1.0000
  Fe  Fe139     1.0  0.20715  0.69863  0.15694  1.0000
  H   H1971     1.0  0.36423  0.93959  0.09966  1.0000
  S   S277      1.0  0.19734  0.69983  0.13953  1.0000
  Fe  Fe140     1.0  0.23852  0.70911  0.16192  1.0000
  H   H1972     1.0  0.37098  0.83697  0.17210  1.0000
  S   S278      1.0  0.25980  0.72485  0.15122  1.0000
  H   H1973     1.0  0.39888  0.62373  0.11928  1.0000
  C   C1113     1.0  0.31838  0.55654  0.15818  1.0000
  C   C1114     1.0  0.39766  0.76982  0.14905  1.0000
  S   S279      1.0  0.23572  0.68494  0.15680  1.0000
  S   S280      1.0  0.21042  0.72363  0.16059  1.0000
  Fe  Fe141     1.0  0.43320  0.67472  0.14577  1.0000
  S   S281      1.0  0.45197  0.67108  0.15859  1.0000
  S   S282      1.0  0.42065  0.65163  0.14752  1.0000
  Fe  Fe142     1.0  0.43219  0.71402  0.13730  1.0000
  S   S283      1.0  0.44993  0.71398  0.14980  1.0000
  S   S284      1.0  0.41958  0.73900  0.12527  1.0000
  Fe  Fe143     1.0  0.46659  0.68966  0.14294  1.0000
  C   C1115     1.0  0.42099  0.79228  0.15058  1.0000
  Fe  Fe144     1.0  0.43422  0.69565  0.16441  1.0000
  H   H1974     1.0  0.12804  0.65345  0.11584  1.0000
  S   S285      1.0  0.44971  0.69075  0.12931  1.0000
  S   S286      1.0  0.41450  0.69819  0.15271  1.0000
  Fe  Fe145     1.0  0.31959  0.61654  0.14432  1.0000
  S   S287      1.0  0.31600  0.64487  0.13378  1.0000
  S   S288      1.0  0.31050  0.60597  0.16511  1.0000
  Fe  Fe146     1.0  0.33707  0.60204  0.12074  1.0000
  S   S289      1.0  0.33525  0.62914  0.10788  1.0000
  S   S290      1.0  0.34985  0.57553  0.11537  1.0000
  Fe  Fe147     1.0  0.34396  0.63686  0.12283  1.0000
  S   S291      1.0  0.36214  0.65654  0.11697  1.0000
  Fe  Fe148     1.0  0.30748  0.63527  0.11978  1.0000
  S   S292      1.0  0.28256  0.65083  0.11270  1.0000
  S   S293      1.0  0.34843  0.60917  0.13456  1.0000
  S   S294      1.0  0.30855  0.60764  0.13132  1.0000
  H   H1975     1.0  0.30110  0.52814  0.16641  1.0000
  H   H1976     1.0  0.02498  0.54290  0.99794  1.0000
  H   H1977     1.0  0.04786  0.51610  0.00198  1.0000
  H   H1978     1.0  0.37321  0.99059  0.04026  1.0000
  H   H1979     1.0  0.36618  0.66067  0.07498  1.0000
  H   H1980     1.0  0.23674  0.50843  0.12316  1.0000
  H   H1981     1.0  0.21989  0.56038  0.11696  1.0000
  H   H1982     1.0  0.32665  0.85321  0.11210  1.0000
  H   H1983     1.0  0.38721  0.58025  0.10213  1.0000
  Fe  Fe149     1.0  0.22632  0.67557  0.17765  1.0000
  H   H1984     1.0  0.12972  0.69915  0.08108  1.0000
  H   H1985     1.0  0.17544  0.52630  0.14664  1.0000
  S   S295      1.0  0.29578  0.53066  0.11397  1.0000
  C   C1116     1.0  0.05479  0.60754  0.98709  1.0000
  C   C1117     1.0  0.33512  0.56308  0.11446  1.0000
  C   C1118     1.0  0.31780  0.57136  0.11257  1.0000
  C   C1119     1.0  0.30622  0.56125  0.11194  1.0000
  C   C1120     1.0  0.31164  0.54276  0.11351  1.0000
  C   C1121     1.0  0.32901  0.53444  0.11531  1.0000
  C   C1122     1.0  0.34077  0.54462  0.11569  1.0000
  H   H1986     1.0  0.31339  0.58559  0.11143  1.0000
  H   H1987     1.0  0.29291  0.56779  0.11035  1.0000
  H   H1988     1.0  0.33330  0.52018  0.11653  1.0000
  H   H1989     1.0  0.35418  0.53814  0.11712  1.0000
  H   H1990     1.0  0.35363  0.85399  0.07553  1.0000
  H   H1991     1.0  0.13937  0.49679  0.03230  1.0000
  C   C1123     1.0  0.05494  0.54788  0.00294  1.0000
  H   H1992     1.0  0.38971  0.97020  0.05743  1.0000
  H   H1993     1.0  0.32146  0.85363  0.09735  1.0000
  H   H1994     1.0  0.31215  0.55790  0.14013  1.0000
  H   H1995     1.0  0.40566  0.72454  0.17008  1.0000
  H   H1996     1.0  0.36365  0.72021  0.18000  1.0000
  C   C1124     1.0  0.23017  0.50034  0.11998  1.0000
  C   C1125     1.0  0.47185  0.71528  0.17384  1.0000
  C   C1126     1.0  0.40360  0.65404  0.13942  1.0000
  C   C1127     1.0  0.39113  0.64302  0.14436  1.0000
  C   C1128     1.0  0.37804  0.64390  0.13773  1.0000
  C   C1129     1.0  0.37763  0.65556  0.12598  1.0000
  C   C1130     1.0  0.39005  0.66661  0.12107  1.0000
  C   C1131     1.0  0.40288  0.66600  0.12782  1.0000
  H   H1997     1.0  0.39172  0.63363  0.15329  1.0000
  H   H1998     1.0  0.36854  0.63530  0.14159  1.0000
  H   H1999     1.0  0.38998  0.67541  0.11188  1.0000
  H   H2000     1.0  0.41262  0.67434  0.12387  1.0000
  C   C1132     1.0  0.27428  0.72564  0.16034  1.0000
  C   C1133     1.0  0.28250  0.74015  0.15716  1.0000
  C   C1134     1.0  0.29410  0.74098  0.16438  1.0000
  H   H2001     1.0  0.48830  0.80042  0.13426  1.0000
  H   H2002     1.0  0.37320  0.98419  0.08562  1.0000
  C   C1135     1.0  0.01374  0.58731  0.05682  1.0000
  H   H2003     1.0  0.27965  0.75089  0.14925  1.0000
  H   H2004     1.0  0.30022  0.75229  0.16206  1.0000
  C   C1136     1.0  0.02629  0.56917  0.00708  1.0000
  C   C1137     1.0  0.45947  0.91505  0.99334  1.0000
  H   H2005     1.0  0.18482  0.69321  0.09650  1.0000
  H   H2006     1.0  0.13995  0.64348  0.09461  1.0000
  C   C1138     1.0  0.28957  0.61799  0.17167  1.0000
  C   C1139     1.0  0.28345  0.63577  0.16623  1.0000
  C   C1140     1.0  0.26651  0.64506  0.17147  1.0000
  H   H2007     1.0  0.22707  0.61958  0.17706  1.0000
  H   H2008     1.0  0.46924  0.90624  0.03128  1.0000
  H   H2009     1.0  0.29188  0.64245  0.15811  1.0000
  H   H2010     1.0  0.26206  0.65884  0.16735  1.0000
  H   H2011     1.0  0.44630  0.74506  0.16534  1.0000
  H   H2012     1.0  0.27685  0.57716  0.08637  1.0000
  H   H2013     1.0  0.48399  0.89715  0.07255  1.0000
  H   H2014     1.0  0.03647  0.61732  0.00299  1.0000
  Fe  Fe150     1.0  0.43497  0.95566  0.01526  1.0000
  C   C1141     1.0  0.25002  0.55706  0.09707  1.0000
  H   H2015     1.0  0.37581  0.81913  0.08428  1.0000
  H   H2016     1.0  0.37297  0.60129  0.09723  1.0000
  H   H2017     1.0  0.40046  0.91417  0.03620  1.0000
  H   H2018     1.0  0.23401  0.53636  0.10510  1.0000
  H   H2019     1.0  0.43136  0.91274  0.99924  1.0000
  N   N61       1.0  0.46847  0.90633  0.05788  1.0000
  C   C1142     1.0  0.34732  0.98720  0.03983  1.0000
  H   H2020     1.0  0.25234  0.59407  0.12797  1.0000
  H   H2021     1.0  0.36364  0.70022  0.11691  1.0000
  H   H2022     1.0  0.48421  0.72331  0.13642  1.0000
  H   H2023     1.0  0.04293  0.56098  0.04890  1.0000
  H   H2024     1.0  0.10755  0.66513  0.11034  1.0000
  H   H2025     1.0  0.11319  0.49367  0.08682  1.0000
  C   C1143     1.0  0.17375  0.65836  0.13238  1.0000
  C   C1144     1.0  0.16276  0.67152  0.13876  1.0000
  C   C1145     1.0  0.17019  0.68356  0.14165  1.0000
  C   C1146     1.0  0.18876  0.68232  0.13844  1.0000
  C   C1147     1.0  0.19990  0.66877  0.13242  1.0000
  C   C1148     1.0  0.19242  0.65678  0.12938  1.0000
  H   H2026     1.0  0.14834  0.67283  0.14109  1.0000
  H   H2027     1.0  0.16147  0.69422  0.14601  1.0000
  H   H2028     1.0  0.21425  0.66787  0.12981  1.0000
  H   H2029     1.0  0.20101  0.64667  0.12442  1.0000
  C   C1149     1.0  0.25490  0.61527  0.10234  1.0000
  C   C1150     1.0  0.24475  0.63060  0.10657  1.0000
  C   C1151     1.0  0.25331  0.64145  0.10982  1.0000
  C   C1152     1.0  0.27192  0.63688  0.10901  1.0000
  C   C1153     1.0  0.28193  0.62126  0.10518  1.0000
  C   C1154     1.0  0.27345  0.61057  0.10173  1.0000
  H   H2030     1.0  0.23041  0.63422  0.10714  1.0000
  H   H2031     1.0  0.24553  0.65330  0.11306  1.0000
  H   H2032     1.0  0.29629  0.61766  0.10453  1.0000
  H   H2033     1.0  0.28133  0.59870  0.09849  1.0000
  C   C1155     1.0  0.17441  0.55104  0.11219  1.0000
  C   C1156     1.0  0.17405  0.55991  0.09965  1.0000
  C   C1157     1.0  0.17166  0.55118  0.09114  1.0000
  C   C1158     1.0  0.16990  0.53349  0.09511  1.0000
  C   C1159     1.0  0.16989  0.52475  0.10771  1.0000
  C   C1160     1.0  0.17188  0.53363  0.11625  1.0000
  H   H2034     1.0  0.17524  0.57358  0.09651  1.0000
  H   H2035     1.0  0.17129  0.55811  0.08146  1.0000
  H   H2036     1.0  0.16818  0.51119  0.11090  1.0000
  H   H2037     1.0  0.17147  0.52707  0.12599  1.0000
  C   C1161     1.0  0.37560  0.83856  0.13613  1.0000
  H   H2038     1.0  0.35500  0.85477  0.11292  1.0000
  H   H2039     1.0  0.34451  0.56092  0.15759  1.0000
  C   C1162     1.0  0.35201  0.81548  0.14149  1.0000
  C   C1163     1.0  0.34989  0.82671  0.14962  1.0000
  C   C1164     1.0  0.36146  0.83846  0.14681  1.0000
  H   H2040     1.0  0.32313  0.49698  0.14541  1.0000
  H   H2041     1.0  0.35954  0.84737  0.15299  1.0000
  C   C1165     1.0  0.45194  0.78240  0.11256  1.0000
  C   C1166     1.0  0.45985  0.76509  0.11797  1.0000
  C   C1167     1.0  0.45005  0.75162  0.12186  1.0000
  C   C1168     1.0  0.43233  0.75542  0.12031  1.0000
  C   C1169     1.0  0.42453  0.77265  0.11480  1.0000
  C   C1170     1.0  0.43429  0.78608  0.11096  1.0000
  H   H2042     1.0  0.47356  0.76208  0.11912  1.0000
  H   H2043     1.0  0.45633  0.73825  0.12579  1.0000
  H   H2044     1.0  0.41091  0.77561  0.11346  1.0000
  H   H2045     1.0  0.42827  0.79911  0.10646  1.0000
  H   H2046     1.0  0.11705  0.68823  0.11011  1.0000
  H   H2047     1.0  0.02809  0.57306  0.99656  1.0000
  C   C1171     1.0  0.27647  0.55977  0.16583  1.0000
  C   C1172     1.0  0.48871  0.86877  0.10325  1.0000
  H   H2048     1.0  0.18388  0.67061  0.10435  1.0000
  H   H2049     1.0  0.50177  0.91423  0.05846  1.0000
  H   H2050     1.0  0.38191  0.83737  0.07169  1.0000
  H   H2051     1.0  0.47903  0.84454  0.10904  1.0000
  H   H2052     1.0  0.05476  0.54107  0.04350  1.0000
  H   H2053     1.0  0.03111  0.54378  0.05075  1.0000
  C   C1173     1.0  0.39242  0.92130  0.05438  1.0000
  C   C1174     1.0  0.39244  0.91533  0.06732  1.0000
  C   C1175     1.0  0.40148  0.89807  0.07189  1.0000
  C   C1176     1.0  0.41005  0.88662  0.06359  1.0000
  C   C1177     1.0  0.40944  0.89241  0.05076  1.0000
  C   C1178     1.0  0.40091  0.90982  0.04612  1.0000
  H   H2054     1.0  0.38576  0.92412  0.07375  1.0000
  H   H2055     1.0  0.40180  0.89367  0.08180  1.0000
  H   H2056     1.0  0.41563  0.88343  0.04438  1.0000
  C   C1179     1.0  0.49462  0.98759  0.00695  1.0000
  C   C1180     1.0  0.44495  0.90417  0.99933  1.0000
  C   C1181     1.0  0.46632  0.97813  0.01222  1.0000
  C   C1182     1.0  0.47560  0.96054  0.01251  1.0000
  H   H2057     1.0  0.00406  0.59975  0.01500  1.0000
  H   H2058     1.0  0.38632  0.60067  0.13659  1.0000
  H   H2059     1.0  0.43145  0.96874  0.06790  1.0000
  H   H2060     1.0  0.45181  0.98141  0.01415  1.0000
  H   H2061     1.0  0.40227  0.60695  0.07919  1.0000
  H   H2062     1.0  0.19566  0.51488  0.05942  1.0000
  C   C1183     1.0  0.09028  0.53533  0.04692  1.0000
  C   C1184     1.0  0.08623  0.51864  0.04952  1.0000
  C   C1185     1.0  0.08763  0.51057  0.03957  1.0000
  C   C1186     1.0  0.09362  0.51885  0.02701  1.0000
  C   C1187     1.0  0.09848  0.53520  0.02450  1.0000
  C   C1188     1.0  0.09644  0.54361  0.03441  1.0000
  H   H2063     1.0  0.08129  0.51232  0.05918  1.0000
  H   H2064     1.0  0.28217  0.52648  0.16167  1.0000
  H   H2065     1.0  0.10344  0.54161  0.01487  1.0000
  H   H2066     1.0  0.09961  0.55653  0.03233  1.0000
  C   C1189     1.0  0.11739  0.61924  0.06865  1.0000
  C   C1190     1.0  0.13106  0.62086  0.05776  1.0000
  C   C1191     1.0  0.14821  0.62175  0.05866  1.0000
  C   C1192     1.0  0.15198  0.62038  0.07047  1.0000
  C   C1193     1.0  0.13855  0.61781  0.08139  1.0000
  C   C1194     1.0  0.12120  0.61786  0.08044  1.0000
  H   H2067     1.0  0.12823  0.62212  0.04862  1.0000
  H   H2068     1.0  0.15852  0.62375  0.05015  1.0000
  H   H2069     1.0  0.14134  0.61632  0.09054  1.0000
  H   H2070     1.0  0.11067  0.61690  0.08889  1.0000
  H   H2071     1.0  0.17231  0.53858  0.16537  1.0000
  C   C1195     1.0  0.15731  0.49628  0.04456  1.0000
  C   C1196     1.0  0.03597  0.51831  0.00981  1.0000
  H   H2072     1.0  0.15708  0.66187  0.17612  1.0000
  H   H2073     1.0  0.33181  0.57804  0.14738  1.0000
  H   H2074     1.0  0.37864  0.79690  0.18336  1.0000
  H   H2075     1.0  0.39549  0.70432  0.11086  1.0000
  H   H2076     1.0  0.31913  0.52883  0.14340  1.0000
  H   H2077     1.0  0.48547  0.73750  0.16803  1.0000
  C   C1197     1.0  0.15249  0.67008  0.09743  1.0000
  H   H2078     1.0  0.43444  0.80326  0.16088  1.0000
  C   C1198     1.0  0.31394  0.50329  0.15314  1.0000
  H   H2079     1.0  0.22380  0.49521  0.14491  1.0000
  C   C1199     1.0  0.02669  0.53831  0.00794  1.0000
  H   H2080     1.0  0.42082  0.60927  0.11813  1.0000
  C   C1200     1.0  0.18114  0.52128  0.04421  1.0000
  H   H2081     1.0  0.01291  0.53906  0.01397  1.0000
  C   C1201     1.0  0.32834  0.84524  0.10502  1.0000
  H   H2082     1.0  0.14603  0.67193  0.10719  1.0000
  C   C1202     1.0  0.00311  0.57508  0.05840  1.0000
  H   H2083     1.0  0.10436  0.49924  0.07267  1.0000
  C   C1203     1.0  0.42697  0.62620  0.07887  1.0000
  C   C1204     1.0  0.14869  0.67005  0.07657  1.0000
  H   H2084     1.0  0.47364  0.82219  0.15441  1.0000
  C   C1205     1.0  0.21189  0.49887  0.12874  1.0000
  H   H2085     1.0  0.37924  0.89036  0.11026  1.0000
  H   H2086     1.0  0.12515  0.68007  0.06760  1.0000
  H   H2087     1.0  0.37343  0.62827  0.08325  1.0000
  C   C1206     1.0  0.17191  0.66015  0.17413  1.0000
  H   H2088     1.0  0.36692  0.80756  0.17067  1.0000
  S   S296      1.0  0.19725  0.68754  0.17754  1.0000
  H   H2089     1.0  0.13145  0.70307  0.10134  1.0000
  H   H2090     1.0  0.45785  0.92465  0.99925  1.0000
  C   C1207     1.0  0.44666  0.62766  0.07539  1.0000
  H   H2091     1.0  0.27282  0.52594  0.09332  1.0000
  C   C1208     1.0  0.38400  0.82937  0.08114  1.0000
  H   H2092     1.0  0.49486  0.80951  0.08631  1.0000
  C   C1209     1.0  0.06395  0.61250  0.00465  1.0000
  C   C1210     1.0  0.30542  0.51917  0.07684  1.0000
  H   H2093     1.0  0.06037  0.61668  0.01356  1.0000
  H   H2094     1.0  0.13983  0.66901  0.04785  1.0000
  C   C1211     1.0  0.25541  0.63641  0.18191  1.0000
  C   C1212     1.0  0.36744  0.88535  0.11030  1.0000
  S   S297      1.0  0.49701  0.68522  0.13913  1.0000
  H   H2095     1.0  0.41274  0.82902  0.07605  1.0000
  H   H2096     1.0  0.21586  0.53358  0.08024  1.0000
  H   H2097     1.0  0.36450  0.68894  0.16860  1.0000
  H   H2098     1.0  0.31353  0.51462  0.06811  1.0000
  Fe  Fe151     1.0  0.30182  0.50090  0.11548  1.0000
  N   N62       1.0  0.24846  0.71299  0.11463  1.0000
  C   C1213     1.0  0.24146  0.69794  0.11335  1.0000
  C   C1214     1.0  0.25851  0.70707  0.12532  1.0000
  C   C1215     1.0  0.23237  0.72739  0.11813  1.0000
  C   C1216     1.0  0.26010  0.72076  0.10240  1.0000
  C   C1217     1.0  0.27401  0.70746  0.09493  1.0000
  C   C1218     1.0  0.22928  0.70297  0.10356  1.0000
  C   C1219     1.0  0.23662  0.74380  0.12061  1.0000
  C   C1220     1.0  0.26908  0.68761  0.12792  1.0000
  C   C1221     1.0  0.27995  0.68431  0.13804  1.0000
  C   C1222     1.0  0.28494  0.71716  0.08291  1.0000
  C   C1223     1.0  0.22797  0.68682  0.09941  1.0000
  C   C1224     1.0  0.21934  0.75692  0.12476  1.0000
  H   H2099     1.0  0.23348  0.69221  0.12267  1.0000
  H   H2100     1.0  0.25269  0.68676  0.11094  1.0000
  H   H2101     1.0  0.26791  0.71582  0.12410  1.0000
  H   H2102     1.0  0.24898  0.70862  0.13447  1.0000
  H   H2103     1.0  0.22300  0.72182  0.12677  1.0000
  H   H2104     1.0  0.22449  0.73258  0.11057  1.0000
  H   H2105     1.0  0.25163  0.72981  0.09578  1.0000
  H   H2106     1.0  0.26764  0.72941  0.10416  1.0000
  H   H2107     1.0  0.26735  0.69921  0.09195  1.0000
  H   H2108     1.0  0.28363  0.69866  0.10062  1.0000
  H   H2109     1.0  0.21545  0.70937  0.10784  1.0000
  H   H2110     1.0  0.23433  0.71234  0.09490  1.0000
  H   H2111     1.0  0.24457  0.75083  0.11190  1.0000
  H   H2112     1.0  0.24430  0.73998  0.12821  1.0000
  H   H2113     1.0  0.25962  0.67850  0.13142  1.0000
  H   H2114     1.0  0.27854  0.68397  0.11939  1.0000
  H   H2115     1.0  0.27165  0.68926  0.14654  1.0000
  H   H2116     1.0  0.28497  0.66989  0.14111  1.0000
  H   H2117     1.0  0.29150  0.69090  0.13424  1.0000
  H   H2118     1.0  0.29482  0.70732  0.07779  1.0000
  H   H2119     1.0  0.27601  0.72586  0.07653  1.0000
  H   H2120     1.0  0.29240  0.72529  0.08530  1.0000
  H   H2121     1.0  0.24149  0.67983  0.09510  1.0000
  H   H2122     1.0  0.22162  0.67755  0.10755  1.0000
  H   H2123     1.0  0.21952  0.69113  0.09222  1.0000
  H   H2124     1.0  0.22270  0.76847  0.12656  1.0000
  H   H2125     1.0  0.21133  0.76174  0.11729  1.0000
  H   H2126     1.0  0.21110  0.75055  0.13366  1.0000
  N   N63       1.0  0.10799  0.56161  0.09353  1.0000
  C   C1225     1.0  0.11213  0.55516  0.10659  1.0000
  C   C1226     1.0  0.10012  0.54808  0.09096  1.0000
  C   C1227     1.0  0.12566  0.56245  0.08412  1.0000
  C   C1228     1.0  0.09568  0.57974  0.09175  1.0000
  C   C1229     1.0  0.08135  0.58475  0.10349  1.0000
  C   C1230     1.0  0.12321  0.56593  0.10989  1.0000
  C   C1231     1.0  0.12487  0.56762  0.06990  1.0000
  C   C1232     1.0  0.08161  0.54532  0.09935  1.0000
  C   C1233     1.0  0.07633  0.52956  0.09721  1.0000
  C   C1234     1.0  0.06819  0.60212  0.09970  1.0000
  C   C1235     1.0  0.12305  0.56134  0.12404  1.0000
  C   C1236     1.0  0.14281  0.57141  0.06161  1.0000
  H   H2127     1.0  0.11993  0.54116  0.10773  1.0000
  H   H2128     1.0  0.09970  0.55475  0.11404  1.0000
  H   H2129     1.0  0.09800  0.55185  0.08111  1.0000
  H   H2130     1.0  0.10980  0.53501  0.09174  1.0000
  H   H2131     1.0  0.13532  0.54949  0.08567  1.0000
  H   H2132     1.0  0.13194  0.57242  0.08554  1.0000
  H   H2133     1.0  0.10363  0.59020  0.08846  1.0000
  H   H2134     1.0  0.08867  0.58156  0.08396  1.0000
  H   H2135     1.0  0.08782  0.58668  0.11048  1.0000
  H   H2136     1.0  0.07346  0.57447  0.10839  1.0000
  H   H2137     1.0  0.13741  0.56265  0.10493  1.0000
  H   H2138     1.0  0.11828  0.58043  0.10692  1.0000
  H   H2139     1.0  0.11432  0.57969  0.06793  1.0000
  H   H2140     1.0  0.12211  0.55667  0.06693  1.0000
  H   H2141     1.0  0.08147  0.54277  0.10957  1.0000
  H   H2142     1.0  0.07108  0.55720  0.09682  1.0000
  C   C1237     1.0  0.49673  0.71956  0.13956  1.0000
  H   H2143     1.0  0.07575  0.53153  0.08714  1.0000
  H   H2144     1.0  0.05805  0.60543  0.10820  1.0000
  H   H2145     1.0  0.07542  0.61313  0.09539  1.0000
  H   H2146     1.0  0.06109  0.60092  0.09278  1.0000
  H   H2147     1.0  0.13175  0.56874  0.12590  1.0000
  H   H2148     1.0  0.10921  0.56507  0.12959  1.0000
  H   H2149     1.0  0.12845  0.54693  0.12717  1.0000
  H   H2150     1.0  0.14616  0.58253  0.06399  1.0000
  H   H2151     1.0  0.15376  0.55948  0.06299  1.0000
  H   H2152     1.0  0.14191  0.57524  0.05149  1.0000
  C   C1238     1.0  0.32855  0.69851  0.11674  1.0000
  H   H2153     1.0  0.19180  0.58007  0.16423  1.0000
  H   H2154     1.0  0.25930  0.56168  0.10072  1.0000
  H   H2155     1.0  0.39328  0.81850  0.15683  1.0000
  H   H2156     1.0  0.38622  0.79781  0.14815  1.0000
  C   C1239     1.0  0.22820  0.55518  0.07961  1.0000
  H   H2157     1.0  0.33993  0.87014  0.08404  1.0000
  H   H2158     1.0  0.31936  0.82176  0.10502  1.0000
  H   H2159     1.0  0.34567  0.70321  0.17574  1.0000
  H   H2160     1.0  0.41741  0.79750  0.14108  1.0000
  H   H2161     1.0  0.47476  0.94709  0.98746  1.0000
  H   H2162     1.0  0.37958  0.87063  0.07135  1.0000
  H   H2163     1.0  0.32273  0.54210  0.16168  1.0000
  C   C1240     1.0  0.35400  0.86264  0.08168  1.0000
  C   C1241     1.0  0.17568  0.68386  0.10102  1.0000
  H   H2164     1.0  0.15212  0.68339  0.05019  1.0000
  H   H2165     1.0  0.49931  0.79640  0.11265  1.0000
  H   H2166     1.0  0.25373  0.54198  0.07021  1.0000
  C   C1242     1.0  0.33530  0.56353  0.15108  1.0000
  C   C1243     1.0  0.28776  0.53149  0.07425  1.0000
  H   H2167     1.0  0.38395  0.77915  0.13334  1.0000
  H   H2168     1.0  0.34852  0.83034  0.09260  1.0000
  H   H2169     1.0  0.08357  0.49823  0.04166  1.0000
  H   H2170     1.0  0.46595  0.74232  0.15277  1.0000
  C   C1244     1.0  0.47855  0.68437  0.18499  1.0000
  H   H2171     1.0  0.15513  0.68156  0.07182  1.0000
  S   S298      1.0  0.33111  0.79768  0.18229  1.0000
  H   H2172     1.0  0.38884  0.85051  0.08710  1.0000
  H   H2173     1.0  0.36997  0.57809  0.08766  1.0000
  H   H2174     1.0  0.16572  0.50858  0.06140  1.0000
  H   H2175     1.0  0.34535  0.87364  0.10242  1.0000
  H   H2176     1.0  0.27075  0.77579  0.17022  1.0000
  C   C1245     1.0  0.10382  0.71309  0.10025  1.0000
  H   H2177     1.0  0.37879  0.78356  0.16275  1.0000
  C   C1246     1.0  0.35754  0.86279  0.10304  1.0000
  C   C1247     1.0  0.39575  0.80761  0.16518  1.0000
  H   H2178     1.0  0.36148  0.87974  0.12028  1.0000
  H   H2179     1.0  0.18638  0.53826  0.05449  1.0000
  H   H2180     1.0  0.35404  0.82803  0.10738  1.0000
  H   H2181     1.0  0.37570  0.95458  0.07768  1.0000
  S   S299      1.0  0.42779  0.69649  0.18502  1.0000
  H   H2182     1.0  0.42350  0.62459  0.09851  1.0000
  C   C1248     1.0  0.25059  0.79171  0.18300  1.0000
  H   H2183     1.0  0.45567  0.61429  0.07603  1.0000
  H   H2184     1.0  0.41483  0.76272  0.16831  1.0000
  H   H2185     1.0  0.47596  0.65406  0.17883  1.0000
  H   H2186     1.0  0.06076  0.57343  0.00286  1.0000
  C   C1249     1.0  0.11293  0.50292  0.07747  1.0000
  H   H2187     1.0  0.30030  0.57557  0.14758  1.0000
  C   C1250     1.0  0.39095  0.78613  0.15536  1.0000
  C   C1251     1.0  0.37933  0.84146  0.09079  1.0000
  H   H2188     1.0  0.20605  0.52744  0.04464  1.0000
  N   N64       1.0  0.13873  0.67157  0.08992  1.0000
  C   C1252     1.0  0.37003  0.72216  0.16008  1.0000
  H   H2189     1.0  0.37020  0.77036  0.14820  1.0000
  C   C1253     1.0  0.38390  0.76874  0.14215  1.0000
  H   H2190     1.0  0.41049  0.77035  0.14202  1.0000
  C   C1254     1.0  0.48575  0.82125  0.15795  1.0000
  C   C1255     1.0  0.37010  0.71105  0.17345  1.0000
  C   C1256     1.0  0.36505  0.87659  0.07356  1.0000
  H   H2191     1.0  0.36708  0.89541  0.05552  1.0000
  C   C1257     1.0  0.08644  0.60184  0.98743  1.0000
  H   H2192     1.0  0.17591  0.67799  0.08349  1.0000
  N   N65       1.0  0.36942  0.99001  0.06636  1.0000
  H   H2193     1.0  0.12336  0.62515  0.11341  1.0000
  H   H2194     1.0  0.35853  0.65515  0.09188  1.0000
  C   C1258     1.0  0.27791  0.71182  0.17060  1.0000
  H   H2195     1.0  0.42532  0.98395  0.05390  1.0000
  H   H2196     1.0  0.36277  0.88744  0.07856  1.0000
  H   H2197     1.0  0.25245  0.81352  0.15857  1.0000
  H   H2198     1.0  0.15944  0.50154  0.16263  1.0000
  H   H2199     1.0  0.41396  0.58866  0.08869  1.0000
  H   H2200     1.0  0.27172  0.70052  0.17303  1.0000
  H   H2201     1.0  0.37574  0.71361  0.15306  1.0000
  H   H2202     1.0  0.35615  0.72926  0.15923  1.0000
  H   H2203     1.0  0.37839  0.73212  0.15803  1.0000
  C   C1259     1.0  0.06714  0.55917  0.00418  1.0000
  H   H2204     1.0  0.38732  0.75568  0.13953  1.0000
  H   H2205     1.0  0.35055  0.98918  0.08439  1.0000
  C   C1260     1.0  0.24283  0.54247  0.10797  1.0000
  C   C1261     1.0  0.23178  0.55016  0.11946  1.0000
  H   H2206     1.0  0.23866  0.56863  0.09577  1.0000
  C   C1262     1.0  0.05040  0.61295  0.99862  1.0000
  C   C1263     1.0  0.36490  0.95379  0.09755  1.0000
  C   C1264     1.0  0.49354  0.87788  0.06043  1.0000
  H   H2207     1.0  0.24009  0.55622  0.12290  1.0000
  H   H2208     1.0  0.40642  0.81089  0.08872  1.0000
  H   H2209     1.0  0.26236  0.62963  0.13761  1.0000
  C   C1265     1.0  0.27835  0.55673  0.14438  1.0000
  C   C1266     1.0  0.19298  0.52575  0.05113  1.0000
  H   H2210     1.0  0.27423  0.80759  0.16264  1.0000
  N   N66       1.0  0.34123  0.71202  0.13016  1.0000
  C   C1267     1.0  0.32740  0.71445  0.12249  1.0000
  C   C1268     1.0  0.33581  0.72693  0.13714  1.0000
  C   C1269     1.0  0.34232  0.69462  0.13971  1.0000
  C   C1270     1.0  0.32460  0.69195  0.14941  1.0000
  C   C1271     1.0  0.33706  0.74566  0.12877  1.0000
  C   C1272     1.0  0.33120  0.75970  0.13680  1.0000
  C   C1273     1.0  0.32637  0.67281  0.15694  1.0000
  H   H2211     1.0  0.31351  0.71774  0.12819  1.0000
  H   H2212     1.0  0.32168  0.72786  0.14260  1.0000
  H   H2213     1.0  0.34387  0.72410  0.14443  1.0000
  H   H2214     1.0  0.34753  0.68328  0.13483  1.0000
  H   H2215     1.0  0.35232  0.69314  0.14543  1.0000
  H   H2216     1.0  0.31310  0.69496  0.14479  1.0000
  H   H2217     1.0  0.32130  0.70073  0.15623  1.0000
  H   H2218     1.0  0.37827  0.69903  0.13388  1.0000
  H   H2219     1.0  0.37178  0.72272  0.13222  1.0000
  H   H2220     1.0  0.35100  0.74619  0.12348  1.0000
  H   H2221     1.0  0.32827  0.74951  0.12185  1.0000
  H   H2222     1.0  0.33323  0.77276  0.13069  1.0000
  H   H2223     1.0  0.31675  0.76106  0.14137  1.0000
  H   H2224     1.0  0.33925  0.75627  0.14418  1.0000
  H   H2225     1.0  0.33766  0.66908  0.16191  1.0000
  H   H2226     1.0  0.31373  0.67135  0.16408  1.0000
  H   H2227     1.0  0.32878  0.66359  0.15055  1.0000
  C   C1274     1.0  0.40199  0.60118  0.11061  1.0000
  H   H2228     1.0  0.20575  0.50746  0.16114  1.0000
  C   C1275     1.0  0.40620  0.60973  0.12005  1.0000
  H   H2229     1.0  0.17991  0.55321  0.15072  1.0000
  C   C1276     1.0  0.40103  0.59976  0.13372  1.0000
  H   H2230     1.0  0.15850  0.69643  0.08770  1.0000
  H   H2231     1.0  0.41110  0.58781  0.11096  1.0000
  H   H2232     1.0  0.38815  0.59872  0.11462  1.0000
  H   H2233     1.0  0.37684  0.62624  0.10431  1.0000
  C   C1277     1.0  0.42141  0.77715  0.17926  1.0000
  Fe  Fe152     1.0  0.40651  0.98982  0.01501  1.0000
  H   H2234     1.0  0.49307  0.80717  0.15954  1.0000
  C   C1278     1.0  0.28989  0.71244  0.17760  1.0000
  H   H2235     1.0  0.49591  0.85856  0.07814  1.0000
  C   C1279     1.0  0.30481  0.56092  0.14953  1.0000
  H   H2236     1.0  0.35146  0.97257  0.04093  1.0000
  H   H2237     1.0  0.39300  0.63711  0.07577  1.0000
  C   C1280     1.0  0.45804  0.89902  0.05168  1.0000
  C   C1281     1.0  0.45506  0.91879  0.06566  1.0000
  C   C1282     1.0  0.44043  0.91054  0.07614  1.0000
  C   C1283     1.0  0.45641  0.88466  0.03454  1.0000
  C   C1284     1.0  0.42514  0.92488  0.08118  1.0000
  H   H2238     1.0  0.47283  0.92827  0.04204  1.0000
  H   H2239     1.0  0.45349  0.88708  0.05820  1.0000
  H   H2240     1.0  0.44543  0.90878  0.04991  1.0000
  H   H2241     1.0  0.44819  0.93038  0.05930  1.0000
  H   H2242     1.0  0.46185  0.92428  0.07071  1.0000
  C   C1285     1.0  0.49294  0.92491  0.05291  1.0000
  H   H2243     1.0  0.44637  0.90207  0.08423  1.0000
  H   H2244     1.0  0.43450  0.90223  0.07270  1.0000
  S   S300      1.0  0.30333  0.78077  0.17399  1.0000
  C   C1286     1.0  0.27099  0.57682  0.13944  1.0000
  N   N67       1.0  0.40432  0.79035  0.16089  1.0000
  H   H2245     1.0  0.41538  0.91853  0.08903  1.0000
  H   H2246     1.0  0.43039  0.93357  0.08485  1.0000
  H   H2247     1.0  0.41796  0.93297  0.07358  1.0000
  N   N68       1.0  0.14976  0.51459  0.04732  1.0000
  C   C1287     1.0  0.14693  0.52757  0.03511  1.0000
  H   H2248     1.0  0.26690  0.54983  0.14766  1.0000
  C   C1288     1.0  0.13198  0.51535  0.05661  1.0000
  C   C1289     1.0  0.16271  0.51910  0.05303  1.0000
  H   H2249     1.0  0.15988  0.65809  0.07676  1.0000
  C   C1290     1.0  0.14141  0.54749  0.03570  1.0000
  H   H2250     1.0  0.49778  0.77523  0.12321  1.0000
  H   H2251     1.0  0.01128  0.50837  0.01752  1.0000
  C   C1291     1.0  0.12972  0.65598  0.09545  1.0000
  C   C1292     1.0  0.35930  0.88509  0.06094  1.0000
  C   C1293     1.0  0.14030  0.55922  0.02256  1.0000
  H   H2252     1.0  0.38076  0.74921  0.17613  1.0000
  H   H2253     1.0  0.13614  0.52498  0.03168  1.0000
  H   H2254     1.0  0.15917  0.52566  0.02746  1.0000
  C   C1294     1.0  0.19336  0.50701  0.15847  1.0000
  H   H2255     1.0  0.16613  0.68861  0.10930  1.0000
  H   H2256     1.0  0.12167  0.51360  0.05230  1.0000
  H   H2257     1.0  0.12685  0.52870  0.05892  1.0000
  H   H2258     1.0  0.15649  0.53129  0.05689  1.0000
  C   C1295     1.0  0.13198  0.50192  0.06948  1.0000
  H   H2259     1.0  0.17957  0.53210  0.03574  1.0000
  H   H2260     1.0  0.26217  0.56020  0.16608  1.0000
  H   H2261     1.0  0.12803  0.55045  0.04202  1.0000
  H   H2262     1.0  0.15124  0.55146  0.03918  1.0000
  H   H2263     1.0  0.41879  0.63994  0.07773  1.0000
  C   C1296     1.0  0.26435  0.80260  0.15988  1.0000
  H   H2264     1.0  0.27719  0.57382  0.16475  1.0000
  H   H2265     1.0  0.10298  0.63697  0.10793  1.0000
  H   H2266     1.0  0.48481  0.93442  0.05891  1.0000
  H   H2267     1.0  0.45355  0.87268  0.04183  1.0000
  H   H2268     1.0  0.37871  0.59543  0.07559  1.0000
  H   H2269     1.0  0.18311  0.50593  0.16750  1.0000
  H   H2270     1.0  0.17525  0.64362  0.16119  1.0000
  H   H2271     1.0  0.35956  0.97119  0.06072  1.0000
  H   H2272     1.0  0.13041  0.55606  0.01859  1.0000
  H   H2273     1.0  0.13593  0.57339  0.02322  1.0000
  H   H2274     1.0  0.15364  0.55740  0.01599  1.0000
  H   H2275     1.0  0.01909  0.51108  0.00047  1.0000
  H   H2276     1.0  0.10648  0.72327  0.09142  1.0000
  C   C1297     1.0  0.12504  0.68893  0.08939  1.0000
  N   N69       1.0  0.03611  0.55025  0.01095  1.0000
  C   C1298     1.0  0.40266  0.97747  0.06912  1.0000
  H   H2277     1.0  0.27068  0.79852  0.15070  1.0000
  C   C1299     1.0  0.01078  0.60372  0.04845  1.0000
  C   C1300     1.0  0.03642  0.54477  0.02489  1.0000
  C   C1301     1.0  0.03719  0.55920  0.03146  1.0000
  C   C1302     1.0  0.49068  0.85039  0.10603  1.0000
  H   H2278     1.0  0.38301  0.83302  0.09975  1.0000
  H   H2279     1.0  0.18843  0.50882  0.04101  1.0000
  H   H2280     1.0  0.47251  0.90554  0.99363  1.0000
  C   C1303     1.0  0.04173  0.55070  0.04446  1.0000
  H   H2281     1.0  0.10700  0.51658  0.07892  1.0000
  H   H2282     1.0  0.08607  0.51706  0.09993  1.0000
  H   H2283     1.0  0.40495  0.60575  0.14014  1.0000
  H   H2284     1.0  0.24868  0.78274  0.16669  1.0000
  H   H2285     1.0  0.39079  0.67121  0.17057  1.0000
  C   C1304     1.0  0.37338  0.87113  0.10242  1.0000
  H   H2286     1.0  0.06282  0.52826  0.10312  1.0000
  H   H2287     1.0  0.39356  0.57438  0.08040  1.0000
  H   H2288     1.0  0.02428  0.53954  0.03049  1.0000
  H   H2289     1.0  0.04802  0.53348  0.02649  1.0000
  H   H2290     1.0  0.02401  0.56859  0.03287  1.0000
  H   H2291     1.0  0.04723  0.56716  0.02594  1.0000
  C   C1305     1.0  0.29795  0.72704  0.17452  1.0000
  H   H2292     1.0  0.38425  0.70541  0.17417  1.0000
  C   C1306     1.0  0.27882  0.60958  0.18246  1.0000
  H   H2293     1.0  0.39603  0.77265  0.17854  1.0000
  H   H2294     1.0  0.24773  0.65143  0.13504  1.0000
  H   H2295     1.0  0.07057  0.55452  0.01363  1.0000
  H   H2296     1.0  0.16081  0.65636  0.09882  1.0000
  H   H2297     1.0  0.32844  0.72612  0.11446  1.0000
  N   N70       1.0  0.40352  0.61170  0.09709  1.0000
  H   H2298     1.0  0.35850  0.72359  0.11308  1.0000
  H   H2299     1.0  0.28465  0.54283  0.09052  1.0000
  H   H2300     1.0  0.21930  0.59925  0.14414  1.0000
  H   H2301     1.0  0.30424  0.83553  0.11546  1.0000
  H   H2302     1.0  0.28673  0.55167  0.13592  1.0000
  C   C1307     1.0  0.46754  0.89405  0.03869  1.0000
  H   H2303     1.0  0.44355  0.89382  0.03290  1.0000
  H   H2304     1.0  0.43505  0.77684  0.17322  1.0000
  C   C1308     1.0  0.37502  0.71182  0.12715  1.0000
  C   C1309     1.0  0.48931  0.65758  0.17477  1.0000
  H   H2305     1.0  0.20557  0.57384  0.14979  1.0000
  H   H2306     1.0  0.48754  0.86943  0.05710  1.0000
  C   C1310     1.0  0.19832  0.58525  0.15431  1.0000
  H   H2307     1.0  0.14625  0.50790  0.14372  1.0000
  H   H2308     1.0  0.47920  0.68403  0.16546  1.0000
  C   C1311     1.0  0.35933  0.71204  0.12123  1.0000
  H   H2309     1.0  0.32527  0.68694  0.12430  1.0000
  C   C1312     1.0  0.08202  0.60690  0.99911  1.0000
  H   H2310     1.0  0.09180  0.70828  0.10049  1.0000
  S   S301      1.0  0.33787  0.80053  0.14484  1.0000
  Fe  Fe153     1.0  0.40557  0.96294  0.00065  1.0000
  C   C1313     1.0  0.21152  0.59626  0.15404  1.0000
  H   H2311     1.0  0.32462  0.82160  0.11979  1.0000
  H   H2312     1.0  0.44573  0.89784  0.00931  1.0000
  H   H2313     1.0  0.22092  0.58789  0.16011  1.0000
  H   H2314     1.0  0.18772  0.59338  0.14909  1.0000
  H   H2315     1.0  0.37935  0.87722  0.09268  1.0000
  H   H2316     1.0  0.24637  0.53047  0.08579  1.0000
  H   H2317     1.0  0.36202  0.87500  0.05518  1.0000
  C   C1314     1.0  0.31534  0.70320  0.10801  1.0000
  H   H2318     1.0  0.23657  0.61383  0.14899  1.0000
  C   C1315     1.0  0.25488  0.64119  0.14192  1.0000
  S   S302      1.0  0.31313  0.72733  0.18325  1.0000
  C   C1316     1.0  0.13726  0.66914  0.06757  1.0000
  H   H2319     1.0  0.38879  0.82688  0.12002  1.0000
  H   H2320     1.0  0.48135  0.82568  0.16707  1.0000
  H   H2321     1.0  0.30145  0.70799  0.11309  1.0000
  H   H2322     1.0  0.46899  0.88384  0.07377  1.0000
  H   H2323     1.0  0.22328  0.63455  0.14294  1.0000
  C   C1317     1.0  0.48756  0.67757  0.17261  1.0000
  C   C1318     1.0  0.08476  0.55729  0.99436  1.0000
  C   C1319     1.0  0.39202  0.71407  0.11697  1.0000
  H   H2324     1.0  0.39025  0.72769  0.11099  1.0000
  C   C1320     1.0  0.25721  0.57964  0.13143  1.0000
  H   H2325     1.0  0.40490  0.81163  0.16927  1.0000
  C   C1321     1.0  0.18369  0.54018  0.15711  1.0000
  Fe  Fe154     1.0  0.39732  0.95447  0.02954  1.0000
  H   H2326     1.0  0.16033  0.65955  0.05350  1.0000
  S   S303      1.0  0.38175  0.94309  0.04863  1.0000
  H   H2327     1.0  0.26720  0.60344  0.06999  1.0000
  H   H2328     1.0  0.19583  0.62290  0.15019  1.0000
  C   C1322     1.0  0.24159  0.63552  0.15407  1.0000
  S   S304      1.0  0.09906  0.60586  0.00684  1.0000
  H   H2329     1.0  0.34215  0.69438  0.11105  1.0000
  H   H2330     1.0  0.31910  0.71362  0.09960  1.0000
  H   H2331     1.0  0.21439  0.74935  0.18398  1.0000
  C   C1323     1.0  0.37775  0.82724  0.12806  1.0000
  H   H2332     1.0  0.40345  0.71191  0.12157  1.0000
  H   H2333     1.0  0.39978  0.75734  0.15624  1.0000
  C   C1324     1.0  0.27881  0.57553  0.07657  1.0000
  H   H2334     1.0  0.29104  0.59843  0.06901  1.0000
  C   C1325     1.0  0.36571  0.81607  0.13056  1.0000
  C   C1326     1.0  0.20155  0.61390  0.15832  1.0000
  S   S305      1.0  0.42628  0.97779  0.99968  1.0000
  C   C1327     1.0  0.27989  0.59361  0.06772  1.0000
  H   H2335     1.0  0.25128  0.57914  0.07524  1.0000
  H   H2336     1.0  0.29202  0.56646  0.07431  1.0000
  C   C1328     1.0  0.22827  0.62644  0.15159  1.0000
  H   H2337     1.0  0.18974  0.61108  0.16589  1.0000
  Fe  Fe155     1.0  0.20333  0.71124  0.18128  1.0000
  H   H2338     1.0  0.31331  0.52607  0.08000  1.0000
  H   H2339     1.0  0.23857  0.80234  0.18148  1.0000
  S   S306      1.0  0.34560  0.76028  0.17191  1.0000
  H   H2340     1.0  0.09360  0.56483  0.99585  1.0000
  N   N71       1.0  0.25926  0.55176  0.08460  1.0000
  C   C1329     1.0  0.26346  0.56818  0.07498  1.0000
  H   H2341     1.0  0.36747  0.80733  0.12428  1.0000
  H   H2342     1.0  0.19571  0.54023  0.16038  1.0000
  H   H2343     1.0  0.44984  0.63533  0.06551  1.0000
  H   H2344     1.0  0.20341  0.51239  0.12786  1.0000
  C   C1330     1.0  0.38518  0.59157  0.09398  1.0000
  S   S307      1.0  0.41714  0.96906  0.03063  1.0000
  H   H2345     1.0  0.28241  0.59263  0.05769  1.0000
  H   H2346     1.0  0.44931  0.63464  0.08178  1.0000
  C   C1331     1.0  0.47842  0.89162  0.06671  1.0000
  H   H2347     1.0  0.03210  0.57861  0.00953  1.0000
  H   H2348     1.0  0.23038  0.60028  0.17141  1.0000
  N   N72       1.0  0.36007  0.85152  0.09357  1.0000
  C   C1332     1.0  0.38173  0.58446  0.08372  1.0000
  H   H2349     1.0  0.44881  0.80376  0.13258  1.0000
  N   N73       1.0  0.21259  0.62314  0.16245  1.0000
  C   C1333     1.0  0.42182  0.97254  0.06154  1.0000
  H   H2350     1.0  0.13292  0.65633  0.07040  1.0000
  Fe  Fe156     1.0  0.33026  0.78786  0.16555  1.0000
  H   H2351     1.0  0.26332  0.57349  0.12308  1.0000
  H   H2352     1.0  0.11969  0.65645  0.09002  1.0000
  H   H2353     1.0  0.23455  0.64738  0.15808  1.0000
  S   S308      1.0  0.02315  0.61960  0.04704  1.0000
  H   H2354     1.0  0.34242  0.55687  0.14307  1.0000
  H   H2355     1.0  0.40805  0.58559  0.13487  1.0000
  H   H2356     1.0  0.49019  0.90916  0.04123  1.0000
  C   C1334     1.0  0.12011  0.69768  0.10101  1.0000
  C   C1335     1.0  0.21992  0.61196  0.17386  1.0000
  C   C1336     1.0  0.14733  0.49465  0.15025  1.0000
  H   H2357     1.0  0.24957  0.62605  0.16079  1.0000
  H   H2358     1.0  0.23311  0.73772  0.17398  1.0000
  H   H2359     1.0  0.34479  0.89150  0.06251  1.0000
  H   H2360     1.0  0.37854  0.66411  0.08513  1.0000
  H   H2361     1.0  0.20465  0.55533  0.07321  1.0000
  H   H2362     1.0  0.26693  0.56591  0.06517  1.0000
  H   H2363     1.0  0.26477  0.64690  0.14404  1.0000
  C   C1337     1.0  0.14811  0.67040  0.05395  1.0000
  C   C1338     1.0  0.30715  0.52295  0.14780  1.0000
  H   H2364     1.0  0.44681  0.89363  0.99411  1.0000
  H   H2365     1.0  0.10091  0.71938  0.10848  1.0000
  H   H2366     1.0  0.02408  0.58414  0.06220  1.0000
  S   S309      1.0  0.38504  0.97644  0.01517  1.0000
  C   C1339     1.0  0.16565  0.68286  0.09146  1.0000
  H   H2367     1.0  0.42499  0.81901  0.14841  1.0000
  C   C1340     1.0  0.40858  0.77521  0.17174  1.0000
  H   H2368     1.0  0.20376  0.65185  0.15671  1.0000
  H   H2369     1.0  0.19859  0.59705  0.18364  1.0000
  C   C1341     1.0  0.22768  0.75012  0.17758  1.0000
  H   H2370     1.0  0.35745  0.89667  0.10629  1.0000
  H   H2371     1.0  0.04045  0.51334  0.01893  1.0000
  H   H2372     1.0  0.22839  0.50664  0.11016  1.0000
  C   C1342     1.0  0.35965  0.69625  0.17642  1.0000
  H   H2373     1.0  0.47945  0.71162  0.16472  1.0000
  H   H2374     1.0  0.22694  0.53948  0.12721  1.0000
  C   C1343     1.0  0.21798  0.54656  0.07402  1.0000
  C   C1344     1.0  0.45047  0.80247  0.14230  1.0000
  C   C1345     1.0  0.29434  0.53235  0.15831  1.0000
  C   C1346     1.0  0.47158  0.73524  0.17174  1.0000
  C   C1347     1.0  0.20165  0.64097  0.16520  1.0000
  C   C1348     1.0  0.27931  0.54974  0.17930  1.0000
  C   C1349     1.0  0.11938  0.65401  0.10941  1.0000
  H   H2375     1.0  0.45751  0.81279  0.14212  1.0000
  C   C1350     1.0  0.38897  0.62846  0.09676  1.0000
  H   H2376     1.0  0.22035  0.55639  0.08926  1.0000
  C   C1351     1.0  0.38785  0.74030  0.18313  1.0000
  C   C1352     1.0  0.43216  0.80505  0.15128  1.0000
  H   H2377     1.0  0.43242  0.60360  0.09419  1.0000
  H   H2378     1.0  0.45883  0.78919  0.14535  1.0000
  H   H2379     1.0  0.00534  0.56247  0.06499  1.0000
  C   C1353     1.0  0.34847  0.83795  0.09954  1.0000
  H   H2380     1.0  0.20639  0.64465  0.17244  1.0000
  H   H2381     1.0  0.28062  0.52384  0.07110  1.0000
  H   H2382     1.0  0.10460  0.63593  0.12385  1.0000
  C   C1354     1.0  0.40197  0.72639  0.17971  1.0000
  H   H2383     1.0  0.22858  0.56867  0.07369  1.0000
  H   H2384     1.0  0.17695  0.63198  0.17708  1.0000
  C   C1355     1.0  0.11216  0.63697  0.11387  1.0000
  H   H2385     1.0  0.22537  0.54457  0.06441  1.0000
  C   C1356     1.0  0.24745  0.54398  0.08001  1.0000
  C   C1357     1.0  0.27614  0.53799  0.08633  1.0000
  H   H2386     1.0  0.29104  0.54265  0.06634  1.0000
  C   C1358     1.0  0.40202  0.59987  0.08917  1.0000
  H   H2387     1.0  0.25329  0.75397  0.17738  1.0000
  H   H2388     1.0  0.42508  0.61956  0.07201  1.0000
  N   N74       1.0  0.28881  0.55232  0.15468  1.0000
  H   H2389     1.0  0.33917  0.82655  0.15799  1.0000
  C   C1359     1.0  0.31860  0.83006  0.11170  1.0000
  H   H2390     1.0  0.38413  0.86069  0.10631  1.0000
  C   C1360     1.0  0.42195  0.61603  0.09272  1.0000
  H   H2391     1.0  0.06242  0.53394  0.00530  1.0000
  H   H2392     1.0  0.40673  0.81103  0.07258  1.0000
  C   C1361     1.0  0.46050  0.74642  0.16198  1.0000
  H   H2393     1.0  0.30266  0.50732  0.08427  1.0000
  H   H2394     1.0  0.45787  0.71383  0.17493  1.0000
  H   H2395     1.0  0.43008  0.77905  0.15006  1.0000
  C   C1362     1.0  0.40367  0.81951  0.07957  1.0000
  C   C1363     1.0  0.02330  0.50701  0.00969  1.0000
  H   H2396     1.0  0.46392  0.88050  0.02555  1.0000
  H   H2397     1.0  0.48948  0.97609  0.04857  1.0000
  H   H2398     1.0  0.30007  0.52371  0.14033  1.0000
  C   C1364     1.0  0.18090  0.64308  0.16938  1.0000
  C   C1365     1.0  0.49772  0.83292  0.14820  1.0000
  H   H2399     1.0  0.48095  0.88528  0.03890  1.0000
  H   H2400     1.0  0.22589  0.76137  0.16937  1.0000
  H   H2401     1.0  0.31232  0.56311  0.16633  1.0000
  H   H2402     1.0  0.26438  0.58391  0.14725  1.0000
  H   H2403     1.0  0.38377  0.65167  0.18096  1.0000
  C   C1366     1.0  0.18772  0.52536  0.14994  1.0000
  H   H2404     1.0  0.17886  0.50208  0.13966  1.0000
  C   C1367     1.0  0.37065  0.65525  0.08409  1.0000
  H   H2405     1.0  0.42325  0.96112  0.05728  1.0000
  C   C1368     1.0  0.25877  0.78675  0.16992  1.0000
  H   H2406     1.0  0.28215  0.58318  0.13337  1.0000
  H   H2407     1.0  0.19878  0.52804  0.14168  1.0000
  H   H2408     1.0  0.11238  0.68726  0.08773  1.0000
  C   C1369     1.0  0.49436  0.95650  0.00990  1.0000
  H   H2409     1.0  0.46099  0.76056  0.16041  1.0000
  Fe  Fe157     1.0  0.31879  0.75398  0.18170  1.0000
  H   H2410     1.0  0.24551  0.57386  0.13711  1.0000
  H   H2411     1.0  0.27602  0.53644  0.18160  1.0000
  H   H2412     1.0  0.17566  0.67181  0.16688  1.0000
  S   S310      1.0  0.23178  0.69841  0.18291  1.0000
  H   H2413     1.0  0.05439  0.55053  0.99277  1.0000
  C   C1370     1.0  0.37769  0.80807  0.17506  1.0000
  C   C1371     1.0  0.24077  0.75249  0.18449  1.0000
  H   H2414     1.0  0.46563  0.74033  0.18053  1.0000
  H   H2415     1.0  0.30254  0.49644  0.15721  1.0000
  H   H2416     1.0  0.09189  0.54319  0.99533  1.0000
  H   H2417     1.0  0.48942  0.84657  0.14628  1.0000
  H   H2418     1.0  0.29333  0.54793  0.18015  1.0000
  H   H2419     1.0  0.14011  0.50494  0.07498  1.0000
  C   C1372     1.0  0.37182  0.82517  0.18002  1.0000
  H   H2420     1.0  0.40024  0.96577  0.07680  1.0000
  H   H2421     1.0  0.35165  0.96007  0.08206  1.0000
  N   N75       1.0  0.47975  0.70298  0.18472  1.0000
  C   C1373     1.0  0.49939  0.98363  0.04194  1.0000
  H   H2422     1.0  0.49690  0.94637  0.03636  1.0000
  H   H2423     1.0  0.37766  0.95457  0.09950  1.0000
  C   C1374     1.0  0.38870  0.98250  0.06061  1.0000
  C   C1375     1.0  0.49931  0.70339  0.18287  1.0000
  H   H2424     1.0  0.13439  0.49433  0.15723  1.0000
  H   H2425     1.0  0.35336  0.96070  0.10388  1.0000
  H   H2426     1.0  0.17590  0.65957  0.18301  1.0000
  H   H2427     1.0  0.00267  0.56763  0.02301  1.0000
  C   C1376     1.0  0.36418  0.96202  0.08367  1.0000
  C   C1377     1.0  0.36425  0.98213  0.08031  1.0000
  H   H2428     1.0  0.49485  0.65340  0.16557  1.0000
  H   H2429     1.0  0.49667  0.74624  0.14012  1.0000
  H   H2430     1.0  0.50153  0.94296  0.00992  1.0000
  H   H2431     1.0  0.40724  0.92833  0.98800  1.0000
  S   S311      1.0  0.27894  0.49276  0.11192  1.0000
  H   H2432     1.0  0.32153  0.50158  0.16054  1.0000
  H   H2433     1.0  0.41646  0.64669  0.17526  1.0000
  H   H2434     1.0  0.40207  0.98832  0.07361  1.0000
  H   H2435     1.0  0.34285  0.98994  0.06450  1.0000
  H   H2436     1.0  0.49856  0.65028  0.18125  1.0000
  H   H2437     1.0  0.33296  0.99078  0.04452  1.0000
  H   H2438     1.0  0.26003  0.79804  0.18518  1.0000
  C   C1378     1.0  0.40902  0.65501  0.18227  1.0000
  H   H2439     1.0  0.35520  0.66309  0.18190  1.0000
  H   H2440     1.0  0.41625  0.66571  0.18090  1.0000
  H   H2441     1.0  0.32718  0.68532  0.18074  1.0000
  C   C1379     1.0  0.38984  0.66291  0.18030  1.0000
  H   H2442     1.0  0.46200  0.98422  0.98660  1.0000
  H   H2443     1.0  0.32611  0.65317  0.18546  1.0000
  N   N76       1.0  0.19659  0.49102  0.15287  1.0000
  H   H2444     1.0  0.50179  0.82800  0.13933  1.0000
  Fe  Fe158     1.0  0.17292  0.49302  0.09164  1.0000
  H   H2445     1.0  0.50117  0.68041  0.16868  1.0000
  H   H2446     1.0  0.03025  0.49282  0.01105  1.0000
  C   C1380     1.0  0.16258  0.49107  0.15716  1.0000
  H   H2447     1.0  0.38146  0.82571  0.18543  1.0000
  H   H2448     1.0  0.48487  0.67468  0.19256  1.0000
  C   C1381     1.0  0.20537  0.90869  0.30453  1.0000
  H   H2449     1.0  0.00472  0.69037  0.35600  1.0000
  N   N77       1.0  0.24564  0.77688  0.19396  1.0000
  Fe  Fe159     1.0  0.06595  0.67628  0.36008  1.0000
  S   S312      1.0  0.07822  0.67760  0.33937  1.0000
  H   H2450     1.0  0.18256  0.85156  0.29754  1.0000
  Fe  Fe160     1.0  0.06230  0.71601  0.35768  1.0000
  S   S313      1.0  0.07404  0.72096  0.33687  1.0000
  S   S314      1.0  0.05101  0.73567  0.37026  1.0000
  Fe  Fe161     1.0  0.05741  0.70271  0.33621  1.0000
  S   S315      1.0  0.03891  0.71002  0.32282  1.0000
  Fe  Fe162     1.0  0.09389  0.69559  0.34186  1.0000
  S   S316      1.0  0.12319  0.69495  0.33359  1.0000
  S   S317      1.0  0.04390  0.70011  0.35653  1.0000
  S   S318      1.0  0.08346  0.69200  0.36294  1.0000
  Fe  Fe163     1.0  0.15645  0.74861  0.27036  1.0000
  S   S319      1.0  0.15934  0.76845  0.25187  1.0000
  S   S320      1.0  0.13504  0.73277  0.27576  1.0000
  Fe  Fe164     1.0  0.18568  0.75825  0.27852  1.0000
  S   S321      1.0  0.19087  0.77893  0.26086  1.0000
  S   S322      1.0  0.19993  0.75165  0.29453  1.0000
  Fe  Fe165     1.0  0.16086  0.78643  0.26362  1.0000
  S   S323      1.0  0.14448  0.81397  0.26387  1.0000
  Fe  Fe166     1.0  0.18902  0.75883  0.25092  1.0000
  S   S324      1.0  0.21069  0.75170  0.23419  1.0000
  S   S325      1.0  0.15583  0.76725  0.28213  1.0000
  S   S326      1.0  0.18595  0.73738  0.26853  1.0000
  Fe  Fe167     1.0  0.02110  0.85118  0.31229  1.0000
  S   S327      1.0  0.03451  0.85887  0.32461  1.0000
  C   C1382     1.0  0.01111  0.89184  0.25313  1.0000
  Fe  Fe168     1.0  0.05425  0.82509  0.30325  1.0000
  S   S328      1.0  0.07079  0.83037  0.31465  1.0000
  S   S329      1.0  0.06550  0.80517  0.29097  1.0000
  Fe  Fe169     1.0  0.04594  0.82973  0.32993  1.0000
  S   S330      1.0  0.04764  0.81792  0.35014  1.0000
  Fe  Fe170     1.0  0.05819  0.85894  0.30833  1.0000
  S   S331      1.0  0.07303  0.88133  0.30140  1.0000
  S   S332      1.0  0.03033  0.82192  0.31915  1.0000
  S   S333      1.0  0.04383  0.85377  0.29540  1.0000
  Fe  Fe171     1.0  0.13167  0.91202  0.33242  1.0000
  S   S334      1.0  0.12724  0.93917  0.31988  1.0000
  S   S335      1.0  0.11226  0.89352  0.33948  1.0000
  Fe  Fe172     1.0  0.17016  0.91235  0.33223  1.0000
  S   S336      1.0  0.16908  0.93920  0.31937  1.0000
  Fe  Fe173     1.0  0.14195  0.94650  0.33171  1.0000
  S   S337      1.0  0.13242  0.97220  0.33874  1.0000
  Fe  Fe174     1.0  0.15477  0.92957  0.30871  1.0000
  S   S338      1.0  0.16115  0.93618  0.28737  1.0000
  S   S339      1.0  0.15820  0.90197  0.32049  1.0000
  Fe  Fe175     1.0  0.24405  0.82924  0.28764  1.0000
  S   S340      1.0  0.24290  0.83150  0.26757  1.0000
  S   S341      1.0  0.23568  0.80742  0.30377  1.0000
  Fe  Fe176     1.0  0.26011  0.86191  0.28156  1.0000
  S   S342      1.0  0.26082  0.86651  0.26078  1.0000
  S   S343      1.0  0.26618  0.88378  0.28791  1.0000
  Fe  Fe177     1.0  0.23330  0.86058  0.26717  1.0000
  S   S344      1.0  0.21115  0.87791  0.25770  1.0000
  Fe  Fe178     1.0  0.27047  0.83703  0.26303  1.0000
  S   S345      1.0  0.29379  0.82295  0.25011  1.0000
  S   S346      1.0  0.23185  0.85788  0.28774  1.0000
  S   S347      1.0  0.27240  0.83285  0.28332  1.0000
  H   H2451     1.0  0.09206  0.55151  0.38089  1.0000
  H   H2452     1.0  0.46630  0.68267  0.21062  1.0000
  S   S348      1.0  0.31870  0.76083  0.19972  1.0000
  H   H2453     1.0  0.44905  0.70720  0.22171  1.0000
  S   S349      1.0  0.28062  0.80298  0.20287  1.0000
  H   H2454     1.0  0.18719  0.98758  0.27181  1.0000
  Fe  Fe179     1.0  0.26685  0.93502  0.34830  1.0000
  S   S350      1.0  0.28339  0.93197  0.32911  1.0000
  S   S351      1.0  0.19593  0.89711  0.33840  1.0000
  H   H2455     1.0  0.25876  0.75503  0.21739  1.0000
  S   S352      1.0  0.31849  0.91659  0.34273  1.0000
  Fe  Fe180     1.0  0.30320  0.94303  0.33397  1.0000
  S   S353      1.0  0.31659  0.96454  0.32077  1.0000
  Fe  Fe181     1.0  0.29675  0.90580  0.33962  1.0000
  S   S354      1.0  0.29999  0.87998  0.33363  1.0000
  S   S355      1.0  0.28503  0.94899  0.35215  1.0000
  S   S356      1.0  0.27936  0.90855  0.35869  1.0000
  C   C1383     1.0  0.31971  0.97661  0.33061  1.0000
  C   C1384     1.0  0.32034  0.96843  0.34321  1.0000
  H   H2456     1.0  0.34119  0.91731  0.36266  1.0000
  H   H2457     1.0  0.00543  0.83474  0.29868  1.0000
  S   S357      1.0  0.18346  0.72708  0.19495  1.0000
  C   C1385     1.0  0.27591  0.73357  0.20909  1.0000
  H   H2458     1.0  0.32063  0.95440  0.34653  1.0000
  H   H2459     1.0  0.25086  0.92621  0.28363  1.0000
  H   H2460     1.0  0.21501  0.78037  0.34848  1.0000
  C   C1386     1.0  0.16544  0.98140  0.32911  1.0000
  C   C1387     1.0  0.22066  0.91377  0.29328  1.0000
  C   C1388     1.0  0.29003  0.81831  0.23666  1.0000
  C   C1389     1.0  0.30405  0.80797  0.22937  1.0000
  C   C1390     1.0  0.30135  0.80352  0.21885  1.0000
  C   C1391     1.0  0.28453  0.80927  0.21561  1.0000
  C   C1392     1.0  0.27050  0.81972  0.22284  1.0000
  C   C1393     1.0  0.27328  0.82435  0.23329  1.0000
  H   H2461     1.0  0.31705  0.80332  0.23190  1.0000
  H   H2462     1.0  0.31226  0.79549  0.21333  1.0000
  H   H2463     1.0  0.25749  0.82429  0.22034  1.0000
  H   H2464     1.0  0.26246  0.83254  0.23875  1.0000
  C   C1394     1.0  0.27229  0.88104  0.30241  1.0000
  C   C1395     1.0  0.26887  0.89604  0.30751  1.0000
  C   C1396     1.0  0.27632  0.89543  0.31765  1.0000
  C   C1397     1.0  0.28778  0.88000  0.32254  1.0000
  C   C1398     1.0  0.29044  0.86465  0.31792  1.0000
  C   C1399     1.0  0.28261  0.86512  0.30792  1.0000
  H   H2465     1.0  0.26092  0.90838  0.30334  1.0000
  H   H2466     1.0  0.27368  0.90714  0.32133  1.0000
  H   H2467     1.0  0.29916  0.85258  0.32174  1.0000
  H   H2468     1.0  0.28543  0.85348  0.30400  1.0000
  H   H2469     1.0  0.22171  0.81254  0.32815  1.0000
  C   C1400     1.0  0.18735  0.83119  0.31434  1.0000
  C   C1401     1.0  0.25731  0.93179  0.25775  1.0000
  C   C1402     1.0  0.23261  0.76834  0.19128  1.0000
  H   H2470     1.0  0.02021  0.63918  0.38459  1.0000
  C   C1403     1.0  0.46380  0.70250  0.22086  1.0000
  Fe  Fe182     1.0  0.29949  0.92212  0.36083  1.0000
  C   C1404     1.0  0.41106  0.71472  0.18882  1.0000
  H   H2471     1.0  0.17064  0.96807  0.32769  1.0000
  C   C1405     1.0  0.17531  0.91975  0.27942  1.0000
  C   C1406     1.0  0.17937  0.90201  0.28572  1.0000
  C   C1407     1.0  0.19087  0.88921  0.27914  1.0000
  C   C1408     1.0  0.19806  0.89405  0.26619  1.0000
  C   C1409     1.0  0.19389  0.91174  0.25986  1.0000
  C   C1410     1.0  0.18260  0.92458  0.26648  1.0000
  H   H2472     1.0  0.17358  0.89812  0.29563  1.0000
  H   H2473     1.0  0.19389  0.87551  0.28398  1.0000
  H   H2474     1.0  0.19930  0.91550  0.24981  1.0000
  H   H2475     1.0  0.17941  0.93826  0.26153  1.0000
  C   C1411     1.0  0.23546  0.91759  0.34168  1.0000
  C   C1412     1.0  0.22628  0.90718  0.33856  1.0000
  H   H2476     1.0  0.24986  0.91363  0.34078  1.0000
  H   H2477     1.0  0.23370  0.89531  0.33517  1.0000
  C   C1413     1.0  0.08546  0.88371  0.31145  1.0000
  C   C1414     1.0  0.08809  0.87086  0.32241  1.0000
  C   C1415     1.0  0.09710  0.87363  0.33068  1.0000
  C   C1416     1.0  0.10351  0.88921  0.32804  1.0000
  C   C1417     1.0  0.10155  0.90170  0.31679  1.0000
  C   C1418     1.0  0.09254  0.89894  0.30852  1.0000
  H   H2478     1.0  0.08288  0.85897  0.32465  1.0000
  H   H2479     1.0  0.09879  0.86381  0.33928  1.0000
  H   H2480     1.0  0.10651  0.91373  0.31465  1.0000
  H   H2481     1.0  0.09068  0.90886  0.29999  1.0000
  C   C1419     1.0  0.20900  0.76800  0.29684  1.0000
  C   C1420     1.0  0.21658  0.76416  0.30743  1.0000
  C   C1421     1.0  0.22440  0.77653  0.30951  1.0000
  C   C1422     1.0  0.22497  0.79276  0.30093  1.0000
  C   C1423     1.0  0.21718  0.79680  0.29038  1.0000
  C   C1424     1.0  0.20911  0.78444  0.28836  1.0000
  H   H2482     1.0  0.21651  0.75150  0.31401  1.0000
  H   H2483     1.0  0.23036  0.77334  0.31768  1.0000
  H   H2484     1.0  0.21736  0.80940  0.28378  1.0000
  H   H2485     1.0  0.20314  0.78758  0.28023  1.0000
  C   C1425     1.0  0.20321  0.74502  0.22319  1.0000
  C   C1426     1.0  0.21449  0.73188  0.21686  1.0000
  C   C1427     1.0  0.20862  0.72629  0.20814  1.0000
  C   C1428     1.0  0.19156  0.73406  0.20553  1.0000
  C   C1429     1.0  0.18047  0.74746  0.21167  1.0000
  C   C1430     1.0  0.18620  0.75283  0.22056  1.0000
  H   H2486     1.0  0.22761  0.72568  0.21892  1.0000
  H   H2487     1.0  0.19466  0.85486  0.31551  1.0000
  H   H2488     1.0  0.16744  0.75377  0.20948  1.0000
  H   H2489     1.0  0.17756  0.76323  0.22520  1.0000
  C   C1431     1.0  0.08699  0.80814  0.28261  1.0000
  C   C1432     1.0  0.09887  0.79499  0.27661  1.0000
  C   C1433     1.0  0.11653  0.79682  0.27077  1.0000
  C   C1434     1.0  0.12220  0.81195  0.27069  1.0000
  C   C1435     1.0  0.11018  0.82523  0.27647  1.0000
  C   C1436     1.0  0.09258  0.82333  0.28241  1.0000
  H   H2490     1.0  0.09460  0.78325  0.27668  1.0000
  H   H2491     1.0  0.12572  0.78649  0.26633  1.0000
  H   H2492     1.0  0.11465  0.83664  0.27675  1.0000
  H   H2493     1.0  0.08345  0.83348  0.28705  1.0000
  C   C1437     1.0  0.12699  0.70425  0.31731  1.0000
  C   C1438     1.0  0.11401  0.70634  0.31038  1.0000
  C   C1439     1.0  0.11689  0.71455  0.29748  1.0000
  C   C1440     1.0  0.13242  0.72123  0.29160  1.0000
  C   C1441     1.0  0.14551  0.71894  0.29847  1.0000
  C   C1442     1.0  0.14290  0.71019  0.31127  1.0000
  H   H2494     1.0  0.10176  0.70165  0.31498  1.0000
  H   H2495     1.0  0.10681  0.71622  0.29218  1.0000
  H   H2496     1.0  0.15764  0.72388  0.29395  1.0000
  H   H2497     1.0  0.15305  0.70827  0.31659  1.0000
  C   C1443     1.0  0.05094  0.75828  0.36399  1.0000
  C   C1444     1.0  0.05502  0.76535  0.35093  1.0000
  C   C1445     1.0  0.05389  0.78376  0.34645  1.0000
  C   C1446     1.0  0.04911  0.79492  0.35508  1.0000
  C   C1447     1.0  0.04554  0.78769  0.36807  1.0000
  C   C1448     1.0  0.04626  0.76951  0.37250  1.0000
  H   H2498     1.0  0.05883  0.75668  0.34434  1.0000
  H   H2499     1.0  0.05682  0.78930  0.33638  1.0000
  H   H2500     1.0  0.35430  0.98576  0.35371  1.0000
  H   H2501     1.0  0.04989  0.84186  0.26600  1.0000
  H   H2502     1.0  0.03706  0.76380  0.33111  1.0000
  C   C1449     1.0  0.26005  0.74943  0.20907  1.0000
  C   C1450     1.0  0.02887  0.67805  0.33406  1.0000
  H   H2503     1.0  0.32043  0.65309  0.20221  1.0000
  H   H2504     1.0  0.25511  0.85186  0.32762  1.0000
  H   H2505     1.0  0.48684  0.68956  0.20873  1.0000
  H   H2506     1.0  0.17537  0.97114  0.28242  1.0000
  H   H2507     1.0  0.04200  0.67322  0.33636  1.0000
  H   H2508     1.0  0.41373  0.70852  0.20822  1.0000
  H   H2509     1.0  0.00654  0.75681  0.28127  1.0000
  C   C1451     1.0  0.01117  0.90721  0.32050  1.0000
  H   H2510     1.0  0.21723  0.71587  0.20356  1.0000
  C   C1452     1.0  0.22339  0.93787  0.30171  1.0000
  H   H2511     1.0  0.02682  0.70575  0.38173  1.0000
  C   C1453     1.0  0.32062  0.97832  0.35163  1.0000
  H   H2512     1.0  0.21813  0.96248  0.31654  1.0000
  C   C1454     1.0  0.20755  0.91179  0.34022  1.0000
  H   H2513     1.0  0.02581  0.78147  0.32030  1.0000
  H   H2514     1.0  0.19332  0.94266  0.29302  1.0000
  H   H2515     1.0  0.02201  0.89992  0.31397  1.0000
  H   H2516     1.0  0.20325  0.93871  0.27773  1.0000
  H   H2517     1.0  0.34416  0.68431  0.20815  1.0000
  H   H2518     1.0  0.04344  0.90338  0.32484  1.0000
  H   H2519     1.0  0.20205  0.83414  0.29466  1.0000
  H   H2520     1.0  0.01218  0.66204  0.36509  1.0000
  H   H2521     1.0  0.37040  0.96573  0.35624  1.0000
  H   H2522     1.0  0.02157  0.61304  0.37638  1.0000
  H   H2523     1.0  0.21844  0.90975  0.28518  1.0000
  H   H2524     1.0  0.09329  0.64340  0.37408  1.0000
  C   C1455     1.0  0.35985  0.92709  0.38342  1.0000
  H   H2525     1.0  0.11311  0.54397  0.38526  1.0000
  S   S358      1.0  0.14393  0.92000  0.34541  1.0000
  N   N78       1.0  0.16661  0.70129  0.24350  1.0000
  C   C1456     1.0  0.17191  0.68487  0.23803  1.0000
  C   C1457     1.0  0.15542  0.69785  0.25685  1.0000
  C   C1458     1.0  0.15513  0.71548  0.23533  1.0000
  C   C1459     1.0  0.18274  0.70806  0.24327  1.0000
  C   C1460     1.0  0.19652  0.69516  0.25084  1.0000
  C   C1461     1.0  0.18326  0.68664  0.22424  1.0000
  C   C1462     1.0  0.14648  0.73306  0.24000  1.0000
  C   C1463     1.0  0.15948  0.67895  0.26521  1.0000
  C   C1464     1.0  0.14967  0.67867  0.27900  1.0000
  C   C1465     1.0  0.21370  0.70202  0.24806  1.0000
  C   C1466     1.0  0.18869  0.66895  0.22008  1.0000
  C   C1467     1.0  0.13307  0.74517  0.23212  1.0000
  H   H2526     1.0  0.15961  0.68046  0.23824  1.0000
  H   H2527     1.0  0.17968  0.67356  0.24389  1.0000
  H   H2528     1.0  0.15643  0.70735  0.26212  1.0000
  H   H2529     1.0  0.14088  0.70042  0.25674  1.0000
  H   H2530     1.0  0.14409  0.71021  0.23423  1.0000
  H   H2531     1.0  0.16308  0.71938  0.22561  1.0000
  H   H2532     1.0  0.18979  0.71245  0.23337  1.0000
  H   H2533     1.0  0.17849  0.72023  0.24722  1.0000
  H   H2534     1.0  0.20051  0.68188  0.24853  1.0000
  H   H2535     1.0  0.19071  0.69390  0.26114  1.0000
  H   H2536     1.0  0.17553  0.69624  0.21744  1.0000
  H   H2537     1.0  0.19581  0.69094  0.22335  1.0000
  H   H2538     1.0  0.15692  0.74036  0.23919  1.0000
  H   H2539     1.0  0.13906  0.73074  0.24997  1.0000
  H   H2540     1.0  0.15478  0.66959  0.26177  1.0000
  H   H2541     1.0  0.17398  0.67388  0.26507  1.0000
  H   H2542     1.0  0.15462  0.68715  0.28308  1.0000
  H   H2543     1.0  0.13496  0.68356  0.27972  1.0000
  H   H2544     1.0  0.15213  0.66492  0.28472  1.0000
  H   H2545     1.0  0.22281  0.69310  0.25423  1.0000
  H   H2546     1.0  0.22077  0.70236  0.23804  1.0000
  H   H2547     1.0  0.21061  0.71552  0.24996  1.0000
  H   H2548     1.0  0.19716  0.65882  0.22622  1.0000
  H   H2549     1.0  0.17662  0.66415  0.22043  1.0000
  H   H2550     1.0  0.19663  0.67070  0.21017  1.0000
  H   H2551     1.0  0.13953  0.74779  0.22190  1.0000
  H   H2552     1.0  0.12149  0.73902  0.23350  1.0000
  H   H2553     1.0  0.12796  0.75803  0.23517  1.0000
  N   N79       1.0  0.32540  0.89557  0.28042  1.0000
  C   C1468     1.0  0.33968  0.88337  0.28726  1.0000
  C   C1469     1.0  0.33391  0.90654  0.26810  1.0000
  C   C1470     1.0  0.31384  0.90810  0.28883  1.0000
  C   C1471     1.0  0.31342  0.88555  0.27809  1.0000
  C   C1472     1.0  0.33291  0.87172  0.30031  1.0000
  C   C1473     1.0  0.29926  0.92308  0.28311  1.0000
  C   C1474     1.0  0.35255  0.89781  0.26095  1.0000
  C   C1475     1.0  0.35781  0.90906  0.24771  1.0000
  C   C1476     1.0  0.34859  0.85936  0.30590  1.0000
  C   C1477     1.0  0.29049  0.93640  0.29167  1.0000
  H   H2554     1.0  0.34817  0.89133  0.28880  1.0000
  H   H2555     1.0  0.34902  0.87410  0.28146  1.0000
  H   H2556     1.0  0.32460  0.91120  0.26141  1.0000
  H   H2557     1.0  0.33611  0.91882  0.26976  1.0000
  H   H2558     1.0  0.32249  0.91442  0.29185  1.0000
  H   H2559     1.0  0.30641  0.90079  0.29769  1.0000
  H   H2560     1.0  0.30567  0.87929  0.28720  1.0000
  H   H2561     1.0  0.30307  0.89480  0.27304  1.0000
  H   H2562     1.0  0.32512  0.88001  0.30725  1.0000
  H   H2563     1.0  0.32445  0.86330  0.29944  1.0000
  H   H2564     1.0  0.28846  0.91745  0.28212  1.0000
  H   H2565     1.0  0.30491  0.93061  0.27368  1.0000
  H   H2566     1.0  0.36302  0.89660  0.26621  1.0000
  H   H2567     1.0  0.35290  0.88440  0.25989  1.0000
  H   H2568     1.0  0.34814  0.91007  0.24185  1.0000
  H   H2569     1.0  0.35815  0.92258  0.24828  1.0000
  H   H2570     1.0  0.37139  0.90277  0.24297  1.0000
  H   H2571     1.0  0.35662  0.85009  0.29965  1.0000
  H   H2572     1.0  0.35738  0.86713  0.30722  1.0000
  H   H2573     1.0  0.34329  0.85144  0.31530  1.0000
  H   H2574     1.0  0.28354  0.92982  0.30105  1.0000
  H   H2575     1.0  0.30070  0.94245  0.29307  1.0000
  H   H2576     1.0  0.28048  0.94717  0.28724  1.0000
  C   C1478     1.0  0.21955  0.79962  0.20452  1.0000
  C   C1479     1.0  0.05357  0.77711  0.27113  1.0000
  C   C1480     1.0  0.01305  0.90154  0.27803  1.0000
  H   H2577     1.0  0.34174  0.70682  0.22150  1.0000
  H   H2578     1.0  0.20987  0.79558  0.20089  1.0000
  C   C1481     1.0  0.08625  0.63490  0.38197  1.0000
  C   C1482     1.0  0.23676  0.78483  0.20550  1.0000
  H   H2579     1.0  0.01531  0.75321  0.35368  1.0000
  C   C1483     1.0  0.00695  0.70173  0.32467  1.0000
  H   H2580     1.0  0.46983  0.71379  0.22024  1.0000
  H   H2581     1.0  0.04192  0.79623  0.37476  1.0000
  H   H2582     1.0  0.40898  0.64657  0.19192  1.0000
  C   C1484     1.0  0.21009  0.80397  0.21746  1.0000
  C   C1485     1.0  0.19898  0.87997  0.37428  1.0000
  H   H2583     1.0  0.18795  0.96768  0.26692  1.0000
  H   H2584     1.0  0.00302  0.70605  0.36529  1.0000
  C   C1486     1.0  0.01684  0.62665  0.37107  1.0000
  S   S359      1.0  0.30616  0.91928  0.37986  1.0000
  H   H2585     1.0  0.22471  0.58275  0.19389  1.0000
  H   H2586     1.0  0.24772  0.74458  0.21039  1.0000
  H   H2587     1.0  0.01822  0.91105  0.26948  1.0000
  H   H2588     1.0  0.35836  0.82560  0.18645  1.0000
  H   H2589     1.0  0.46631  0.69237  0.22952  1.0000
  H   H2590     1.0  0.00416  0.90997  0.33976  1.0000
  C   C1487     1.0  0.28005  0.98563  0.30607  1.0000
  C   C1488     1.0  0.22332  0.98846  0.33335  1.0000
  H   H2591     1.0  0.00383  0.90598  0.25149  1.0000
  H   H2592     1.0  0.05169  0.87709  0.36617  1.0000
  H   H2593     1.0  0.35095  0.65928  0.19873  1.0000
  H   H2594     1.0  0.27001  0.75735  0.18877  1.0000
  H   H2595     1.0  0.22819  0.98432  0.35187  1.0000
  H   H2596     1.0  0.25266  0.56054  0.18948  1.0000
  H   H2597     1.0  0.26362  0.85823  0.37381  1.0000
  H   H2598     1.0  0.42824  0.96479  0.36700  1.0000
  H   H2599     1.0  0.04607  0.84839  0.36457  1.0000
  H   H2600     1.0  0.02076  0.65300  0.34228  1.0000
  H   H2601     1.0  0.20961  0.96886  0.36582  1.0000
  H   H2602     1.0  0.23330  0.86185  0.36600  1.0000
  H   H2603     1.0  0.21929  0.80831  0.22133  1.0000
  H   H2604     1.0  0.19807  0.81485  0.21650  1.0000
  N   N80       1.0  0.11944  0.77178  0.31716  1.0000
  C   C1489     1.0  0.12778  0.78784  0.31165  1.0000
  C   C1490     1.0  0.13394  0.75489  0.31804  1.0000
  C   C1491     1.0  0.10851  0.77126  0.30816  1.0000
  C   C1492     1.0  0.10688  0.77276  0.32985  1.0000
  C   C1493     1.0  0.11487  0.77512  0.34026  1.0000
  C   C1494     1.0  0.11464  0.80615  0.31047  1.0000
  C   C1495     1.0  0.09959  0.75503  0.31178  1.0000
  C   C1496     1.0  0.15204  0.75582  0.32048  1.0000
  C   C1497     1.0  0.16455  0.73754  0.32238  1.0000
  C   C1498     1.0  0.10013  0.77841  0.35193  1.0000
  C   C1499     1.0  0.12478  0.82123  0.30486  1.0000
  C   C1500     1.0  0.09113  0.75455  0.30123  1.0000
  H   H2605     1.0  0.13624  0.78694  0.30204  1.0000
  H   H2606     1.0  0.13704  0.78835  0.31732  1.0000
  H   H2607     1.0  0.12875  0.74393  0.32542  1.0000
  H   H2608     1.0  0.13778  0.75011  0.30902  1.0000
  H   H2609     1.0  0.11703  0.77170  0.29841  1.0000
  H   H2610     1.0  0.09728  0.78306  0.30738  1.0000
  H   H2611     1.0  0.09474  0.78355  0.32874  1.0000
  H   H2612     1.0  0.10162  0.76040  0.33391  1.0000
  H   H2613     1.0  0.12159  0.78651  0.33700  1.0000
  H   H2614     1.0  0.12462  0.76284  0.34330  1.0000
  H   H2615     1.0  0.10563  0.80745  0.30414  1.0000
  H   H2616     1.0  0.10642  0.80814  0.31989  1.0000
  H   H2617     1.0  0.08869  0.75575  0.32037  1.0000
  H   H2618     1.0  0.10940  0.74233  0.31362  1.0000
  H   H2619     1.0  0.15920  0.76434  0.31217  1.0000
  H   H2620     1.0  0.15004  0.76128  0.32893  1.0000
  H   H2621     1.0  0.17717  0.73862  0.32438  1.0000
  H   H2622     1.0  0.15813  0.72813  0.33043  1.0000
  H   H2623     1.0  0.16816  0.73229  0.31362  1.0000
  H   H2624     1.0  0.10614  0.77950  0.35947  1.0000
  H   H2625     1.0  0.09025  0.79096  0.34954  1.0000
  H   H2626     1.0  0.09293  0.76730  0.35570  1.0000
  H   H2627     1.0  0.11499  0.83414  0.30381  1.0000
  H   H2628     1.0  0.13344  0.82125  0.31116  1.0000
  H   H2629     1.0  0.13324  0.81986  0.29535  1.0000
  H   H2630     1.0  0.08075  0.76679  0.29936  1.0000
  H   H2631     1.0  0.10149  0.75338  0.29240  1.0000
  H   H2632     1.0  0.08476  0.74292  0.30414  1.0000
  H   H2633     1.0  0.02429  0.89070  0.28077  1.0000
  H   H2634     1.0  0.38978  0.73409  0.21395  1.0000
  C   C1501     1.0  0.19813  0.92750  0.34418  1.0000
  H   H2635     1.0  0.22342  0.77856  0.18567  1.0000
  C   C1502     1.0  0.20595  0.60556  0.18566  1.0000
  C   C1503     1.0  0.23999  0.92883  0.26736  1.0000
  H   H2636     1.0  0.19986  0.94977  0.35075  1.0000
  H   H2637     1.0  0.23622  0.78738  0.34304  1.0000
  C   C1504     1.0  0.40662  0.71747  0.20117  1.0000
  C   C1505     1.0  0.05526  0.92865  0.33847  1.0000
  C   C1506     1.0  0.22318  0.78861  0.35000  1.0000
  H   H2638     1.0  0.19208  0.81658  0.31632  1.0000
  H   H2639     1.0  0.19594  0.88528  0.31605  1.0000
  S   S360      1.0  0.23343  0.64718  0.18779  1.0000
  H   H2640     1.0  0.20461  0.87408  0.36578  1.0000
  C   C1507     1.0  0.39203  0.97466  0.36547  1.0000
  H   H2641     1.0  0.03475  0.83105  0.27913  1.0000
  H   H2642     1.0  0.20563  0.79220  0.22420  1.0000
  H   H2643     1.0  0.01649  0.91650  0.29035  1.0000
  C   C1508     1.0  0.03764  0.83628  0.26873  1.0000
  H   H2644     1.0  0.45376  0.70918  0.19709  1.0000
  H   H2645     1.0  0.22346  0.76325  0.20019  1.0000
  C   C1509     1.0  0.18773  0.97312  0.27509  1.0000
  H   H2646     1.0  0.06690  0.76791  0.27060  1.0000
  H   H2647     1.0  0.22003  0.88191  0.31090  1.0000
  H   H2648     1.0  0.03003  0.92245  0.33059  1.0000
  H   H2649     1.0  0.01240  0.86121  0.28160  1.0000
  C   C1510     1.0  0.01684  0.66661  0.33742  1.0000
  C   C1511     1.0  0.07207  0.93430  0.33882  1.0000
  C   C1512     1.0  0.32921  0.67682  0.19007  1.0000
  H   H2650     1.0  0.25324  0.61202  0.19565  1.0000
  H   H2651     1.0  0.23272  0.77437  0.21382  1.0000
  H   H2652     1.0  0.28865  0.73792  0.20756  1.0000
  H   H2653     1.0  0.20964  0.84463  0.34498  1.0000
  H   H2654     1.0  0.37663  0.95849  0.33531  1.0000
  H   H2655     1.0  0.41350  0.98200  0.34907  1.0000
  C   C1513     1.0  0.05206  0.78696  0.25762  1.0000
  C   C1514     1.0  0.35241  0.97577  0.37997  1.0000
  C   C1515     1.0  0.34191  0.92126  0.37095  1.0000
  H   H2656     1.0  0.26920  0.92381  0.26169  1.0000
  N   N81       1.0  0.26075  0.77487  0.25777  1.0000
  C   C1516     1.0  0.27192  0.77315  0.24479  1.0000
  C   C1517     1.0  0.24749  0.79243  0.25668  1.0000
  C   C1518     1.0  0.27319  0.77538  0.26574  1.0000
  C   C1519     1.0  0.25125  0.75970  0.26425  1.0000
  C   C1520     1.0  0.24592  0.75057  0.25564  1.0000
  C   C1521     1.0  0.28864  0.75765  0.24451  1.0000
  C   C1522     1.0  0.26402  0.77922  0.27908  1.0000
  C   C1523     1.0  0.23470  0.79627  0.24756  1.0000
  C   C1524     1.0  0.22226  0.81457  0.24755  1.0000
  C   C1525     1.0  0.23402  0.73760  0.26352  1.0000
  C   C1526     1.0  0.29570  0.75364  0.23131  1.0000
  C   C1527     1.0  0.27787  0.77674  0.28696  1.0000
  H   H2657     1.0  0.27695  0.78549  0.23997  1.0000
  H   H2658     1.0  0.26372  0.77202  0.23856  1.0000
  H   H2659     1.0  0.23864  0.79378  0.26605  1.0000
  H   H2660     1.0  0.25484  0.80342  0.25366  1.0000
  H   H2661     1.0  0.28138  0.78560  0.26068  1.0000
  H   H2662     1.0  0.28296  0.76250  0.26727  1.0000
  H   H2663     1.0  0.25970  0.74887  0.27006  1.0000
  H   H2664     1.0  0.23889  0.76411  0.27122  1.0000
  H   H2665     1.0  0.25802  0.74287  0.25028  1.0000
  H   H2666     1.0  0.23861  0.76012  0.24863  1.0000
  H   H2667     1.0  0.29959  0.76138  0.24702  1.0000
  H   H2668     1.0  0.28567  0.74539  0.25135  1.0000
  H   H2669     1.0  0.25461  0.77034  0.28433  1.0000
  H   H2670     1.0  0.25648  0.79317  0.27831  1.0000
  H   H2671     1.0  0.24217  0.79607  0.23768  1.0000
  H   H2672     1.0  0.22600  0.78656  0.25075  1.0000
  H   H2673     1.0  0.21451  0.81549  0.25729  1.0000
  H   H2674     1.0  0.23012  0.82515  0.24384  1.0000
  H   H2675     1.0  0.21254  0.81683  0.24147  1.0000
  H   H2676     1.0  0.22143  0.74473  0.26884  1.0000
  H   H2677     1.0  0.23044  0.73121  0.25718  1.0000
  H   H2678     1.0  0.24110  0.72712  0.27033  1.0000
  H   H2679     1.0  0.28576  0.74860  0.22869  1.0000
  H   H2680     1.0  0.29836  0.76589  0.22430  1.0000
  H   H2681     1.0  0.30843  0.74346  0.23106  1.0000
  H   H2682     1.0  0.27089  0.77991  0.29634  1.0000
  H   H2683     1.0  0.28559  0.76282  0.28848  1.0000
  H   H2684     1.0  0.28726  0.78582  0.28215  1.0000
  H   H2685     1.0  0.21290  0.83727  0.31242  1.0000
  C   C1528     1.0  0.42452  0.95805  0.36094  1.0000
  C   C1529     1.0  0.11063  0.57782  0.37116  1.0000
  H   H2686     1.0  0.24401  0.74003  0.19156  1.0000
  H   H2687     1.0  0.22996  0.92604  0.30807  1.0000
  N   N82       1.0  0.23020  0.88134  0.37709  1.0000
  H   H2688     1.0  0.37623  0.97617  0.32138  1.0000
  C   C1530     1.0  0.31980  0.66149  0.19262  1.0000
  H   H2689     1.0  0.06296  0.79446  0.25342  1.0000
  H   H2690     1.0  0.34669  0.97075  0.37398  1.0000
  H   H2691     1.0  0.22297  0.81207  0.19819  1.0000
  H   H2692     1.0  0.10204  0.57757  0.36488  1.0000
  H   H2693     1.0  0.11223  0.59166  0.36954  1.0000
  H   H2694     1.0  0.12411  0.56926  0.36867  1.0000
  H   H2695     1.0  0.24765  0.92728  0.37740  1.0000
  H   H2696     1.0  0.25788  0.94604  0.25518  1.0000
  H   H2697     1.0  0.24003  0.96782  0.31077  1.0000
  H   H2698     1.0  0.21941  0.91659  0.38393  1.0000
  C   C1531     1.0  0.23952  0.87271  0.36596  1.0000
  N   N83       1.0  0.13493  0.87846  0.27341  1.0000
  C   C1532     1.0  0.13880  0.88239  0.28471  1.0000
  C   C1533     1.0  0.13700  0.89374  0.26208  1.0000
  C   C1534     1.0  0.11552  0.87679  0.27676  1.0000
  C   C1535     1.0  0.14653  0.86121  0.27024  1.0000
  C   C1536     1.0  0.16710  0.85913  0.26813  1.0000
  C   C1537     1.0  0.13689  0.86797  0.29711  1.0000
  C   C1538     1.0  0.10794  0.87536  0.26572  1.0000
  C   C1539     1.0  0.15174  0.90402  0.26054  1.0000
  C   C1540     1.0  0.15414  0.91685  0.24765  1.0000
  C   C1541     1.0  0.17702  0.84018  0.26714  1.0000
  C   C1542     1.0  0.14326  0.87253  0.30731  1.0000
  C   C1543     1.0  0.08810  0.87449  0.27006  1.0000
  H   H2699     1.0  0.12974  0.89505  0.28684  1.0000
  H   H2700     1.0  0.15255  0.88478  0.28266  1.0000
  H   H2701     1.0  0.13926  0.88915  0.25315  1.0000
  H   H2702     1.0  0.12435  0.90416  0.26242  1.0000
  H   H2703     1.0  0.10667  0.88836  0.28065  1.0000
  H   H2704     1.0  0.11347  0.86489  0.28442  1.0000
  H   H2705     1.0  0.14253  0.84972  0.27764  1.0000
  H   H2706     1.0  0.14423  0.85920  0.26143  1.0000
  H   H2707     1.0  0.17094  0.86215  0.27596  1.0000
  H   H2708     1.0  0.17210  0.86791  0.25908  1.0000
  H   H2709     1.0  0.12265  0.86695  0.30089  1.0000
  H   H2710     1.0  0.14503  0.85481  0.29559  1.0000
  H   H2711     1.0  0.11531  0.86329  0.26203  1.0000
  H   H2712     1.0  0.10892  0.88697  0.25770  1.0000
  H   H2713     1.0  0.14786  0.91199  0.26795  1.0000
  H   H2714     1.0  0.16484  0.89505  0.26139  1.0000
  H   H2715     1.0  0.16412  0.92465  0.24698  1.0000
  H   H2716     1.0  0.15913  0.90942  0.23990  1.0000
  H   H2717     1.0  0.14125  0.92626  0.24638  1.0000
  H   H2718     1.0  0.19168  0.83914  0.26576  1.0000
  H   H2719     1.0  0.17263  0.83056  0.27591  1.0000
  H   H2720     1.0  0.17455  0.83664  0.25894  1.0000
  H   H2721     1.0  0.15789  0.87209  0.30456  1.0000
  H   H2722     1.0  0.13630  0.88605  0.30873  1.0000
  H   H2723     1.0  0.14038  0.86294  0.31643  1.0000
  H   H2724     1.0  0.08334  0.87222  0.26231  1.0000
  H   H2725     1.0  0.08603  0.86349  0.27841  1.0000
  H   H2726     1.0  0.07990  0.88714  0.27264  1.0000
  C   C1544     1.0  0.19927  0.84026  0.31842  1.0000
  H   H2727     1.0  0.03472  0.87477  0.34951  1.0000
  C   C1545     1.0  0.35146  0.71331  0.21372  1.0000
  N   N84       1.0  0.37630  0.98787  0.36086  1.0000
  C   C1546     1.0  0.02399  0.69557  0.32750  1.0000
  H   H2728     1.0  0.42090  0.94535  0.36666  1.0000
  H   H2729     1.0  0.23767  0.88236  0.35700  1.0000
  H   H2730     1.0  0.00638  0.62635  0.36628  1.0000
  C   C1547     1.0  0.21317  0.80800  0.34861  1.0000
  H   H2731     1.0  0.32079  0.97191  0.36143  1.0000
  H   H2732     1.0  0.31596  0.85057  0.26418  1.0000
  H   H2733     1.0  0.08392  0.92849  0.33213  1.0000
  C   C1548     1.0  0.23426  0.95218  0.29989  1.0000
  C   C1549     1.0  0.04647  0.88099  0.34708  1.0000
  H   H2734     1.0  0.36029  0.71765  0.21793  1.0000
  C   C1550     1.0  0.40888  0.96998  0.35513  1.0000
  S   S361      1.0  0.36695  0.76142  0.19959  1.0000
  C   C1551     1.0  0.30924  0.86063  0.27005  1.0000
  H   H2735     1.0  0.43640  0.95499  0.35330  1.0000
  H   H2736     1.0  0.20040  0.80721  0.33427  1.0000
  C   C1552     1.0  0.21094  0.84618  0.33463  1.0000
  N   N85       1.0  0.04085  0.90097  0.34486  1.0000
  C   C1553     1.0  0.42300  0.76178  0.19074  1.0000
  H   H2737     1.0  0.36210  0.96459  0.38435  1.0000
  H   H2738     1.0  0.23504  0.86908  0.32809  1.0000
  H   H2739     1.0  0.02449  0.85473  0.25433  1.0000
  H   H2740     1.0  0.27677  0.97268  0.31149  1.0000
  H   H2741     1.0  0.49823  0.93578  0.38294  1.0000
  H   H2742     1.0  0.18149  0.98810  0.37235  1.0000
  H   H2743     1.0  0.25779  0.92750  0.24903  1.0000
  C   C1554     1.0  0.05947  0.85185  0.36068  1.0000
  C   C1555     1.0  0.23895  0.93449  0.27976  1.0000
  H   H2744     1.0  0.00713  0.89192  0.35852  1.0000
  H   H2745     1.0  0.21630  0.96692  0.27304  1.0000
  H   H2746     1.0  0.20971  0.94217  0.30742  1.0000
  H   H2747     1.0  0.24647  0.79034  0.20810  1.0000
  H   H2748     1.0  0.39604  0.97916  0.37264  1.0000
  H   H2749     1.0  0.25402  0.88876  0.37816  1.0000
  C   C1556     1.0  0.03634  0.90411  0.23660  1.0000
  H   H2750     1.0  0.27305  0.99054  0.29804  1.0000
  C   C1557     1.0  0.37656  0.98433  0.33823  1.0000
  H   H2751     1.0  0.17990  0.83002  0.29739  1.0000
  C   C1558     1.0  0.46825  0.70781  0.19692  1.0000
  H   H2752     1.0  0.03738  0.75970  0.27078  1.0000
  H   H2753     1.0  0.03515  0.90888  0.36281  1.0000
  H   H2754     1.0  0.17654  0.86655  0.33923  1.0000
  C   C1559     1.0  0.36285  0.70052  0.20523  1.0000
  C   C1560     1.0  0.18177  0.83768  0.34064  1.0000
  H   H2755     1.0  0.23345  0.90514  0.29556  1.0000
  C   C1561     1.0  0.26747  0.85322  0.35522  1.0000
  Fe  Fe183     1.0  0.30536  0.78828  0.19137  1.0000
  H   H2756     1.0  0.40593  0.96250  0.34923  1.0000
  C   C1562     1.0  0.14734  0.98677  0.33463  1.0000
  H   H2757     1.0  0.01991  0.92096  0.35292  1.0000
  C   C1563     1.0  0.18802  0.83714  0.30012  1.0000
  H   H2758     1.0  0.15359  0.85350  0.35731  1.0000
  C   C1564     1.0  0.35854  0.92252  0.37253  1.0000
  H   H2759     1.0  0.20534  0.86046  0.33127  1.0000
  H   H2760     1.0  0.33984  0.70442  0.19695  1.0000
  H   H2761     1.0  0.24107  0.94825  0.27695  1.0000
  H   H2762     1.0  0.46923  0.72100  0.19765  1.0000
  H   H2763     1.0  0.00666  0.90866  0.38026  1.0000
  S   S362      1.0  0.23689  0.94488  0.35155  1.0000
  C   C1565     1.0  0.20706  0.88866  0.30806  1.0000
  H   H2764     1.0  0.03221  0.90064  0.22903  1.0000
  H   H2765     1.0  0.19211  0.91483  0.30205  1.0000
  C   C1566     1.0  0.22591  0.93275  0.34635  1.0000
  H   H2766     1.0  0.05308  0.78722  0.27635  1.0000
  H   H2767     1.0  0.37228  0.70765  0.19776  1.0000
  H   H2768     1.0  0.37851  0.66479  0.19986  1.0000
  H   H2769     1.0  0.24182  0.90418  0.36707  1.0000
  H   H2770     1.0  0.18366  0.93130  0.34533  1.0000
  H   H2771     1.0  0.27230  0.77112  0.19770  1.0000
  H   H2772     1.0  0.32771  0.87745  0.26026  1.0000
  H   H2773     1.0  0.14368  0.84987  0.34565  1.0000
  H   H2774     1.0  0.24875  0.94688  0.29641  1.0000
  H   H2775     1.0  0.23743  0.98182  0.32998  1.0000
  H   H2776     1.0  0.22170  0.81544  0.35055  1.0000
  H   H2777     1.0  0.01182  0.75573  0.30166  1.0000
  H   H2778     1.0  0.20340  0.97012  0.28859  1.0000
  C   C1567     1.0  0.00563  0.91151  0.28881  1.0000
  H   H2779     1.0  0.33900  0.88455  0.38270  1.0000
  H   H2780     1.0  0.29784  0.86957  0.26595  1.0000
  H   H2781     1.0  0.30389  0.85365  0.27980  1.0000
  H   H2782     1.0  0.16738  0.86046  0.32837  1.0000
  N   N86       1.0  0.03909  0.75517  0.29046  1.0000
  C   C1568     1.0  0.03804  0.76713  0.27758  1.0000
  C   C1569     1.0  0.02258  0.74716  0.29592  1.0000
  C   C1570     1.0  0.03953  0.76656  0.29907  1.0000
  C   C1571     1.0  0.05597  0.74079  0.28999  1.0000
  C   C1572     1.0  0.05861  0.72810  0.28114  1.0000
  C   C1573     1.0  0.03904  0.75729  0.31320  1.0000
  H   H2783     1.0  0.01510  0.60140  0.33074  1.0000
  N   N87       1.0  0.00393  0.88232  0.26641  1.0000
  C   C1574     1.0  0.07691  0.71530  0.28067  1.0000
  C   C1575     1.0  0.03792  0.77063  0.32101  1.0000
  H   H2784     1.0  0.33379  0.86155  0.27416  1.0000
  H   H2785     1.0  0.02573  0.73437  0.30272  1.0000
  C   C1576     1.0  0.21139  0.89103  0.37558  1.0000
  H   H2786     1.0  0.02813  0.77833  0.29871  1.0000
  H   H2787     1.0  0.05192  0.77194  0.29580  1.0000
  H   H2788     1.0  0.06808  0.74655  0.28750  1.0000
  H   H2789     1.0  0.05629  0.73210  0.29954  1.0000
  H   H2790     1.0  0.05799  0.73539  0.27130  1.0000
  H   H2791     1.0  0.04825  0.71995  0.28479  1.0000
  H   H2792     1.0  0.26716  0.87663  0.36084  1.0000
  H   H2793     1.0  0.05141  0.74695  0.31427  1.0000
  H   H2794     1.0  0.02735  0.75093  0.31740  1.0000
  H   H2795     1.0  0.07606  0.71063  0.38472  1.0000
  H   H2796     1.0  0.02298  0.73677  0.27938  1.0000
  H   H2797     1.0  0.50014  0.71343  0.19909  1.0000
  H   H2798     1.0  0.28375  0.59599  0.18687  1.0000
  C   C1577     1.0  0.24021  0.89519  0.37663  1.0000
  H   H2799     1.0  0.07827  0.70749  0.29032  1.0000
  H   H2800     1.0  0.07828  0.70591  0.27461  1.0000
  H   H2801     1.0  0.05008  0.77643  0.31771  1.0000
  H   H2802     1.0  0.03021  0.86955  0.27075  1.0000
  C   C1578     1.0  0.37106  0.97274  0.33177  1.0000
  H   H2803     1.0  0.27400  0.72405  0.21834  1.0000
  C   C1579     1.0  0.01330  0.74392  0.28644  1.0000
  C   C1580     1.0  0.02778  0.90740  0.35610  1.0000
  H   H2804     1.0  0.22852  0.93658  0.26291  1.0000
  H   H2805     1.0  0.23805  0.94569  0.31927  1.0000
  H   H2806     1.0  0.43312  0.76282  0.19554  1.0000
  C   C1581     1.0  0.38346  0.74315  0.19546  1.0000
  C   C1582     1.0  0.03318  0.90773  0.33307  1.0000
  H   H2807     1.0  0.17311  0.83449  0.31932  1.0000
  H   H2808     1.0  0.22591  0.78341  0.35968  1.0000
  S   S363      1.0  0.05483  0.65366  0.37403  1.0000
  H   H2809     1.0  0.07151  0.87440  0.35395  1.0000
  H   H2810     1.0  0.18148  0.90290  0.36480  1.0000
  H   H2811     1.0  0.38718  0.68323  0.19016  1.0000
  H   H2812     1.0  0.35623  0.97497  0.33360  1.0000
  C   C1583     1.0  0.23121  0.84310  0.32821  1.0000
  H   H2813     1.0  0.28222  0.84852  0.35437  1.0000
  H   H2814     1.0  0.49599  0.73061  0.18558  1.0000
  N   N88       1.0  0.22209  0.93296  0.28990  1.0000
  H   H2815     1.0  0.05460  0.87691  0.33815  1.0000
  H   H2816     1.0  0.34405  0.72527  0.20806  1.0000
  H   H2817     1.0  0.17415  0.82815  0.34017  1.0000
  C   C1584     1.0  0.20542  0.94391  0.28530  1.0000
  H   H2818     1.0  0.18282  0.83474  0.35071  1.0000
  C   C1585     1.0  0.01549  0.90252  0.33363  1.0000
  Fe  Fe184     1.0  0.34435  0.76940  0.18931  1.0000
  H   H2819     1.0  0.20477  0.59044  0.20499  1.0000
  C   C1586     1.0  0.20902  0.81547  0.33519  1.0000
  H   H2820     1.0  0.38809  0.96187  0.37061  1.0000
  C   C1587     1.0  0.34960  0.66984  0.19001  1.0000
  H   H2821     1.0  0.02962  0.91802  0.23729  1.0000
  C   C1588     1.0  0.32263  0.87116  0.27023  1.0000
  H   H2822     1.0  0.03648  0.89503  0.25637  1.0000
  C   C1589     1.0  0.05770  0.87193  0.35740  1.0000
  C   C1590     1.0  0.35086  0.69322  0.19981  1.0000
  H   H2823     1.0  0.42722  0.74882  0.18784  1.0000
  C   C1591     1.0  0.23245  0.95732  0.31240  1.0000
  C   C1592     1.0  0.20447  0.96405  0.28056  1.0000
  H   H2824     1.0  0.37053  0.91952  0.36538  1.0000
  H   H2825     1.0  0.00960  0.92169  0.31651  1.0000
  C   C1593     1.0  0.05762  0.90815  0.34221  1.0000
  H   H2826     1.0  0.02529  0.77739  0.27832  1.0000
  H   H2827     1.0  0.23825  0.82918  0.33115  1.0000
  H   H2828     1.0  0.20409  0.89718  0.38382  1.0000
  H   H2829     1.0  0.05313  0.93370  0.32863  1.0000
  H   H2830     1.0  0.02018  0.67990  0.37493  1.0000
  C   C1594     1.0  0.39303  0.73184  0.20443  1.0000
  H   H2831     1.0  0.20057  0.80855  0.35598  1.0000
  N   N89       1.0  0.20025  0.83490  0.33222  1.0000
  H   H2832     1.0  0.46425  0.68317  0.18741  1.0000
  H   H2833     1.0  0.23316  0.84636  0.31774  1.0000
  C   C1595     1.0  0.20729  0.93790  0.34732  1.0000
  H   H2834     1.0  0.30545  0.66683  0.19211  1.0000
  H   H2835     1.0  0.14447  0.87196  0.34605  1.0000
  H   H2836     1.0  0.19633  0.61708  0.18902  1.0000
  C   C1596     1.0  0.37889  0.67394  0.19039  1.0000
  H   H2837     1.0  0.23861  0.85244  0.34223  1.0000
  H   H2838     1.0  0.20565  0.91301  0.31299  1.0000
  C   C1597     1.0  0.01427  0.89564  0.36427  1.0000
  H   H2839     1.0  0.37097  0.68937  0.21103  1.0000
  C   C1598     1.0  0.15185  0.85793  0.34736  1.0000
  H   H2840     1.0  0.20620  0.88380  0.29998  1.0000
  H   H2841     1.0  0.22993  0.96437  0.29301  1.0000
  H   H2842     1.0  0.01607  0.88816  0.33730  1.0000
  C   C1599     1.0  0.06760  0.63715  0.38391  1.0000
  C   C1600     1.0  0.17000  0.85665  0.33806  1.0000
  H   H2843     1.0  0.03893  0.79651  0.25760  1.0000
  C   C1601     1.0  0.00923  0.63922  0.38023  1.0000
  C   C1602     1.0  0.26694  0.55968  0.18935  1.0000
  C   C1603     1.0  0.26009  0.86546  0.36459  1.0000
  H   H2844     1.0  0.06780  0.90276  0.33444  1.0000
  C   C1604     1.0  0.32648  0.92409  0.38044  1.0000
  H   H2845     1.0  0.03929  0.87791  0.24819  1.0000
  H   H2846     1.0  0.21480  0.97856  0.33570  1.0000
  H   H2847     1.0  0.24011  0.91450  0.26914  1.0000
  H   H2848     1.0  0.08791  0.72268  0.27659  1.0000
  C   C1605     1.0  0.24050  0.85486  0.33179  1.0000
  H   H2849     1.0  0.02132  0.88316  0.36966  1.0000
  H   H2850     1.0  0.19675  0.86944  0.38288  1.0000
  H   H2851     1.0  0.06386  0.90370  0.35062  1.0000
  H   H2852     1.0  0.26962  0.55252  0.19884  1.0000
  H   H2853     1.0  0.17205  0.88352  0.37138  1.0000
  H   H2854     1.0  0.21199  0.90221  0.36712  1.0000
  H   H2855     1.0  0.29478  0.98354  0.30227  1.0000
  C   C1606     1.0  0.03160  0.89142  0.24927  1.0000
  H   H2856     1.0  0.07011  0.94897  0.33600  1.0000
  C   C1607     1.0  0.02158  0.85032  0.26479  1.0000
  C   C1608     1.0  0.21506  0.59472  0.19657  1.0000
  C   C1609     1.0  0.10192  0.57166  0.38504  1.0000
  H   H2857     1.0  0.07486  0.92997  0.34850  1.0000
  H   H2858     1.0  0.04037  0.82505  0.26400  1.0000
  C   C1610     1.0  0.36897  0.98036  0.35276  1.0000
  H   H2859     1.0  0.00997  0.84377  0.26765  1.0000
  H   H2860     1.0  0.05109  0.90319  0.23392  1.0000
  H   H2861     1.0  0.26505  0.86056  0.34570  1.0000
  H   H2862     1.0  0.21931  0.84804  0.38541  1.0000
  H   H2863     1.0  0.04315  0.76411  0.38258  1.0000
  H   H2864     1.0  0.04373  0.93523  0.34495  1.0000
  H   H2865     1.0  0.02841  0.63094  0.36382  1.0000
  H   H2866     1.0  0.26117  0.84151  0.35843  1.0000
  H   H2867     1.0  0.05345  0.77746  0.25165  1.0000
  H   H2868     1.0  0.22229  0.60285  0.19920  1.0000
  C   C1611     1.0  0.26266  0.76392  0.19675  1.0000
  C   C1612     1.0  0.18041  0.89149  0.37297  1.0000
  H   H2869     1.0  0.19085  0.98907  0.32094  1.0000
  H   H2870     1.0  0.06783  0.84566  0.36788  1.0000
  H   H2871     1.0  0.27681  0.72666  0.20153  1.0000
  C   C1613     1.0  0.26165  0.61868  0.18745  1.0000
  C   C1614     1.0  0.01729  0.86620  0.27131  1.0000
  H   H2872     1.0  0.06605  0.84623  0.35211  1.0000
  C   C1615     1.0  0.01041  0.67631  0.38387  1.0000
  H   H2873     1.0  0.00829  0.88624  0.24597  1.0000
  H   H2874     1.0  0.40989  0.76228  0.19762  1.0000
  C   C1616     1.0  0.47219  0.69435  0.20922  1.0000
  H   H2875     1.0  0.32228  0.68469  0.19742  1.0000
  N   N90       1.0  0.35999  0.68359  0.18907  1.0000
  C   C1617     1.0  0.20790  0.97420  0.37431  1.0000
  H   H2876     1.0  0.00289  0.71538  0.31996  1.0000
  H   H2877     1.0  0.22094  0.97620  0.37488  1.0000
  H   H2878     1.0  0.00326  0.75776  0.33484  1.0000
  H   H2879     1.0  0.17350  0.89662  0.38169  1.0000
  H   H2880     1.0  0.24274  0.84209  0.38521  1.0000
  H   H2881     1.0  0.26932  0.57327  0.18747  1.0000
  H   H2882     1.0  0.00532  0.71932  0.29746  1.0000
  H   H2883     1.0  0.00337  0.58343  0.33640  1.0000
  H   H2884     1.0  0.00500  0.57603  0.38338  1.0000
  H   H2885     1.0  0.39137  0.98215  0.33574  1.0000
  H   H2886     1.0  0.29275  0.70167  0.18549  1.0000
  Fe  Fe185     1.0  0.40514  0.98189  0.51529  1.0000
  S   S364      1.0  0.41768  0.96233  0.53073  1.0000
  H   H2887     1.0  0.38252  0.98574  0.47815  1.0000
  Fe  Fe186     1.0  0.41189  0.95472  0.49923  1.0000
  S   S365      1.0  0.42476  0.93320  0.51341  1.0000
  S   S366      1.0  0.41650  0.94766  0.48035  1.0000
  Fe  Fe187     1.0  0.40232  0.94430  0.52807  1.0000
  C   C1618     1.0  0.07454  0.68082  0.41400  1.0000
  S   S367      1.0  0.38803  0.96452  0.51372  1.0000
  S   S368      1.0  0.42768  0.97392  0.49954  1.0000
  Fe  Fe188     1.0  0.06597  0.57987  0.55418  1.0000
  S   S369      1.0  0.06701  0.60688  0.54157  1.0000
  S   S370      1.0  0.08647  0.55413  0.55394  1.0000
  Fe  Fe189     1.0  0.02752  0.59087  0.56742  1.0000
  S   S371      1.0  0.02472  0.61868  0.55591  1.0000
  C   C1619     1.0  0.01135  0.69285  0.57800  1.0000
  Fe  Fe190     1.0  0.03984  0.60636  0.53930  1.0000
  S   S372      1.0  0.02987  0.61494  0.52108  1.0000
  Fe  Fe191     1.0  0.05198  0.61739  0.55917  1.0000
  S   S373      1.0  0.05637  0.64267  0.56249  1.0000
  S   S374      1.0  0.03990  0.57876  0.55060  1.0000
  S   S375      1.0  0.05361  0.59034  0.57198  1.0000
  H   H2888     1.0  0.04449  0.54279  0.48306  1.0000
  H   H2889     1.0  0.33654  0.88530  0.41165  1.0000
  H   H2890     1.0  0.08589  0.68331  0.57214  1.0000
  C   C1620     1.0  0.22956  0.84889  0.39009  1.0000
  H   H2891     1.0  0.06578  0.49570  0.49983  1.0000
  H   H2892     1.0  0.48940  0.96887  0.48744  1.0000
  H   H2893     1.0  0.11135  0.50930  0.40690  1.0000
  H   H2894     1.0  0.16859  0.67246  0.55683  1.0000
  H   H2895     1.0  0.21830  0.87332  0.39696  1.0000
  H   H2896     1.0  0.01626  0.60714  0.40286  1.0000
  H   H2897     1.0  0.03623  0.56983  0.41185  1.0000
  C   C1621     1.0  0.42463  0.96509  0.55990  1.0000
  Fe  Fe192     1.0  0.41938  0.93287  0.41285  1.0000
  S   S376      1.0  0.39582  0.91961  0.41942  1.0000
  S   S377      1.0  0.44660  0.91723  0.41642  1.0000
  Fe  Fe193     1.0  0.39637  0.96859  0.40337  1.0000
  S   S378      1.0  0.37092  0.95849  0.40953  1.0000
  H   H2898     1.0  0.04630  0.66426  0.52573  1.0000
  Fe  Fe194     1.0  0.38131  0.94395  0.42720  1.0000
  S   S379      1.0  0.36496  0.94391  0.44716  1.0000
  Fe  Fe195     1.0  0.38764  0.93538  0.40111  1.0000
  C   C1622     1.0  0.39929  0.87670  0.40723  1.0000
  S   S380      1.0  0.40529  0.95620  0.42167  1.0000
  S   S381      1.0  0.41266  0.94643  0.39397  1.0000
  Fe  Fe196     1.0  0.07316  0.58800  0.45808  1.0000
  S   S382      1.0  0.08881  0.56775  0.44660  1.0000
  S   S383      1.0  0.08520  0.59155  0.47294  1.0000
  Fe  Fe197     1.0  0.04209  0.59769  0.44498  1.0000
  S   S384      1.0  0.01530  0.61612  0.44444  1.0000
  Fe  Fe198     1.0  0.06263  0.55961  0.45027  1.0000
  S   S385      1.0  0.06321  0.53037  0.45708  1.0000
  S   S386      1.0  0.04755  0.57856  0.46290  1.0000
  S   S387      1.0  0.06646  0.60887  0.44122  1.0000
  H   H2899     1.0  0.10736  0.52919  0.47939  1.0000
  H   H2900     1.0  0.09271  0.51673  0.55440  1.0000
  H   H2901     1.0  0.35560  0.91049  0.43823  1.0000
  N   N91       1.0  0.36492  0.87900  0.41200  1.0000
  S   S388      1.0  0.09818  0.59380  0.41103  1.0000
  H   H2902     1.0  0.44858  0.94075  0.43507  1.0000
  H   H2903     1.0  0.50172  0.92558  0.46496  1.0000
  H   H2904     1.0  0.10569  0.52471  0.44149  1.0000
  C   C1623     1.0  0.04776  0.54310  0.58494  1.0000
  H   H2905     1.0  0.45853  0.95896  0.47193  1.0000
  H   H2906     1.0  0.12282  0.62598  0.40402  1.0000
  H   H2907     1.0  0.34499  0.85637  0.40680  1.0000
  H   H2908     1.0  0.03032  0.61016  0.41919  1.0000
  H   H2909     1.0  0.06138  0.68795  0.41876  1.0000
  C   C1624     1.0  0.45509  0.91032  0.57069  1.0000
  H   H2910     1.0  0.07240  0.49441  0.45402  1.0000
  H   H2911     1.0  0.46568  0.90099  0.46957  1.0000
  C   C1625     1.0  0.49609  0.91199  0.45303  1.0000
  H   H2912     1.0  0.37684  0.81698  0.42994  1.0000
  H   H2913     1.0  0.11184  0.70886  0.56108  1.0000
  H   H2914     1.0  0.34500  0.93480  0.40090  1.0000
  H   H2915     1.0  0.31577  0.93151  0.39853  1.0000
  C   C1626     1.0  0.49260  0.92882  0.45828  1.0000
  C   C1627     1.0  0.31750  0.97140  0.56534  1.0000
  H   H2916     1.0  0.04771  0.50661  0.48305  1.0000
  S   S389      1.0  0.46909  0.94441  0.51208  1.0000
  C   C1628     1.0  0.47338  0.91520  0.56335  1.0000
  H   H2917     1.0  0.01951  0.54114  0.46815  1.0000
  H   H2918     1.0  0.01383  0.50015  0.58047  1.0000
  C   C1629     1.0  0.00820  0.60877  0.41207  1.0000
  H   H2919     1.0  0.03623  0.55400  0.50854  1.0000
  C   C1630     1.0  0.03143  0.55307  0.50035  1.0000
  C   C1631     1.0  0.02283  0.69717  0.39112  1.0000
  C   C1632     1.0  0.09749  0.49477  0.40081  1.0000
  C   C1633     1.0  0.01145  0.50829  0.45736  1.0000
  H   H2920     1.0  0.03232  0.57790  0.39600  1.0000
  H   H2921     1.0  0.01952  0.53027  0.49092  1.0000
  H   H2922     1.0  0.00973  0.53531  0.54495  1.0000
  H   H2923     1.0  0.45960  0.92647  0.45428  1.0000
  S   S390      1.0  0.00663  0.57792  0.58209  1.0000
  H   H2924     1.0  0.09349  0.77252  0.57112  1.0000
  C   C1634     1.0  0.05316  0.49225  0.48630  1.0000
  C   C1635     1.0  0.10325  0.51196  0.39966  1.0000
  C   C1636     1.0  0.04515  0.60765  0.50793  1.0000
  C   C1637     1.0  0.03938  0.61022  0.49667  1.0000
  C   C1638     1.0  0.05149  0.60492  0.48596  1.0000
  C   C1639     1.0  0.06952  0.59737  0.48642  1.0000
  C   C1640     1.0  0.07524  0.59469  0.49770  1.0000
  C   C1641     1.0  0.06305  0.59967  0.50847  1.0000
  H   H2925     1.0  0.02557  0.61640  0.49619  1.0000
  H   H2926     1.0  0.04700  0.60709  0.47728  1.0000
  H   H2927     1.0  0.08913  0.58876  0.49812  1.0000
  H   H2928     1.0  0.06760  0.59758  0.51711  1.0000
  H   H2929     1.0  0.01016  0.52583  0.56699  1.0000
  H   H2930     1.0  0.11194  0.51511  0.39014  1.0000
  C   C1642     1.0  0.11510  0.50313  0.47379  1.0000
  H   H2931     1.0  0.01876  0.51847  0.45102  1.0000
  H   H2932     1.0  0.41775  0.85555  0.39847  1.0000
  C   C1643     1.0  0.36902  0.83007  0.43191  1.0000
  H   H2933     1.0  0.31084  0.91481  0.58264  1.0000
  C   C1644     1.0  0.47270  0.95307  0.46778  1.0000
  C   C1645     1.0  0.36310  0.89528  0.41700  1.0000
  H   H2934     1.0  0.05415  0.67425  0.57037  1.0000
  C   C1646     1.0  0.46050  0.93898  0.45627  1.0000
  C   C1647     1.0  0.05235  0.50502  0.42891  1.0000
  H   H2935     1.0  0.03084  0.50238  0.46896  1.0000
  H   H2936     1.0  0.42728  0.97349  0.45868  1.0000
  H   H2937     1.0  0.07750  0.52286  0.41064  1.0000
  H   H2938     1.0  0.00404  0.56133  0.46310  1.0000
  H   H2939     1.0  0.43221  0.97011  0.55028  1.0000
  H   H2940     1.0  0.11657  0.53577  0.40620  1.0000
  C   C1648     1.0  0.03649  0.53025  0.56627  1.0000
  H   H2941     1.0  0.14095  0.65846  0.56453  1.0000
  C   C1649     1.0  0.09949  0.68570  0.56717  1.0000
  C   C1650     1.0  0.40140  0.94501  0.47234  1.0000
  C   C1651     1.0  0.38274  0.94920  0.47656  1.0000
  C   C1652     1.0  0.37140  0.94838  0.46903  1.0000
  C   C1653     1.0  0.37878  0.94321  0.45737  1.0000
  C   C1654     1.0  0.39738  0.93796  0.45366  1.0000
  C   C1655     1.0  0.40861  0.93903  0.46102  1.0000
  H   H2942     1.0  0.37714  0.95326  0.48549  1.0000
  H   H2943     1.0  0.35698  0.95207  0.47210  1.0000
  H   H2944     1.0  0.40322  0.93290  0.44513  1.0000
  H   H2945     1.0  0.42297  0.93514  0.45787  1.0000
  C   C1656     1.0  0.07344  0.55209  0.53422  1.0000
  C   C1657     1.0  0.08199  0.54268  0.54418  1.0000
  C   C1658     1.0  0.08589  0.52408  0.54681  1.0000
  H   H2946     1.0  0.07085  0.56642  0.53188  1.0000
  S   S391      1.0  0.38935  0.92471  0.54414  1.0000
  C   C1659     1.0  0.45824  0.90871  0.47689  1.0000
  C   C1660     1.0  0.50101  0.94296  0.51761  1.0000
  C   C1661     1.0  0.34986  0.88256  0.40517  1.0000
  C   C1662     1.0  0.23168  0.90712  0.38646  1.0000
  H   H2947     1.0  0.49402  0.90046  0.46094  1.0000
  H   H2948     1.0  0.12708  0.50487  0.51537  1.0000
  H   H2949     1.0  0.09692  0.65111  0.57888  1.0000
  N   N92       1.0  0.11355  0.67068  0.57243  1.0000
  H   H2950     1.0  0.08918  0.49651  0.39383  1.0000
  C   C1663     1.0  0.49210  0.93229  0.41526  1.0000
  H   H2951     1.0  0.06302  0.50275  0.56473  1.0000
  H   H2952     1.0  0.15175  0.88308  0.57190  1.0000
  H   H2953     1.0  0.49755  0.93939  0.45041  1.0000
  C   C1664     1.0  0.05917  0.64589  0.57680  1.0000
  H   H2954     1.0  0.47706  0.96282  0.45909  1.0000
  H   H2955     1.0  0.10683  0.49635  0.52067  1.0000
  H   H2956     1.0  0.10051  0.68619  0.55701  1.0000
  H   H2957     1.0  0.44971  0.91747  0.57855  1.0000
  H   H2958     1.0  0.01360  0.58833  0.51130  1.0000
  H   H2959     1.0  0.35049  0.89468  0.39752  1.0000
  H   H2960     1.0  0.48320  0.94149  0.48542  1.0000
  H   H2961     1.0  0.13147  0.67765  0.55438  1.0000
  H   H2962     1.0  0.10590  0.66011  0.41419  1.0000
  H   H2963     1.0  0.02848  0.51169  0.55837  1.0000
  H   H2964     1.0  0.42838  0.87042  0.40194  1.0000
  C   C1665     1.0  0.05537  0.52468  0.58141  1.0000
  H   H2965     1.0  0.11833  0.65661  0.55115  1.0000
  H   H2966     1.0  0.09965  0.70572  0.57743  1.0000
  C   C1666     1.0  0.36371  0.86335  0.42309  1.0000
  C   C1667     1.0  0.11809  0.49951  0.50039  1.0000
  H   H2967     1.0  0.23840  0.92615  0.39405  1.0000
  H   H2968     1.0  0.04838  0.53300  0.55864  1.0000
  H   H2969     1.0  0.43747  0.98817  0.46258  1.0000
  H   H2970     1.0  0.48621  0.90573  0.57958  1.0000
  C   C1668     1.0  0.34423  0.93104  0.39255  1.0000
  H   H2971     1.0  0.02535  0.69230  0.57261  1.0000
  H   H2972     1.0  0.09586  0.80153  0.57348  1.0000
  H   H2973     1.0  0.03621  0.75171  0.56788  1.0000
  H   H2974     1.0  0.48991  0.99076  0.54919  1.0000
  C   C1669     1.0  0.10949  0.65352  0.57193  1.0000
  H   H2975     1.0  0.46680  0.99011  0.40921  1.0000
  C   C1670     1.0  0.09983  0.70467  0.56775  1.0000
  H   H2976     1.0  0.22805  0.89907  0.39613  1.0000
  H   H2977     1.0  0.02911  0.56695  0.49473  1.0000
  C   C1671     1.0  0.10039  0.50009  0.49670  1.0000
  H   H2978     1.0  0.42129  0.93521  0.55532  1.0000
  C   C1672     1.0  0.03761  0.74301  0.57727  1.0000
  H   H2979     1.0  0.09275  0.52127  0.42490  1.0000
  C   C1673     1.0  0.07128  0.52452  0.53023  1.0000
  H   H2980     1.0  0.36932  0.98509  0.46166  1.0000
  N   N93       1.0  0.10251  0.49398  0.48469  1.0000
  H   H2981     1.0  0.33433  0.90791  0.41980  1.0000
  C   C1674     1.0  0.04614  0.52325  0.42831  1.0000
  H   H2982     1.0  0.03634  0.65471  0.40447  1.0000
  C   C1675     1.0  0.38258  0.87672  0.40251  1.0000
  H   H2983     1.0  0.08297  0.50066  0.54218  1.0000
  H   H2984     1.0  0.47747  0.94645  0.43744  1.0000
  H   H2985     1.0  0.39328  0.89869  0.58480  1.0000
  H   H2986     1.0  0.03322  0.53615  0.54059  1.0000
  C   C1676     1.0  0.10736  0.65213  0.55890  1.0000
  H   H2987     1.0  0.08921  0.68062  0.39426  1.0000
  H   H2988     1.0  0.04406  0.49337  0.57130  1.0000
  C   C1677     1.0  0.08665  0.52733  0.40158  1.0000
  H   H2989     1.0  0.01803  0.66428  0.38929  1.0000
  H   H2990     1.0  0.32433  0.94599  0.57732  1.0000
  C   C1678     1.0  0.00514  0.49932  0.44924  1.0000
  C   C1679     1.0  0.11107  0.53019  0.43137  1.0000
  C   C1680     1.0  0.07336  0.65794  0.43355  1.0000
  H   H2991     1.0  0.39947  0.89049  0.40725  1.0000
  C   C1681     1.0  0.43487  0.93301  0.55731  1.0000
  C   C1682     1.0  0.43404  0.94634  0.56537  1.0000
  S   S392      1.0  0.06364  0.51369  0.52168  1.0000
  C   C1683     1.0  0.32970  0.89297  0.57518  1.0000
  C   C1684     1.0  0.46799  0.92298  0.47713  1.0000
  H   H2992     1.0  0.08457  0.54294  0.42850  1.0000
  C   C1685     1.0  0.47457  0.95420  0.53237  1.0000
  C   C1686     1.0  0.03289  0.65275  0.41493  1.0000
  H   H2993     1.0  0.34936  0.86281  0.42735  1.0000
  H   H2994     1.0  0.09824  0.52862  0.46650  1.0000
  C   C1687     1.0  0.04929  0.53109  0.43703  1.0000
  C   C1688     1.0  0.05883  0.52074  0.44628  1.0000
  C   C1689     1.0  0.06453  0.65330  0.41555  1.0000
  H   H2995     1.0  0.03886  0.53128  0.42111  1.0000
  H   H2996     1.0  0.44351  0.93732  0.54792  1.0000
  C   C1690     1.0  0.46190  0.94606  0.40429  1.0000
  C   C1691     1.0  0.45565  0.89573  0.48970  1.0000
  H   H2997     1.0  0.10053  0.65849  0.43528  1.0000
  H   H2998     1.0  0.44467  0.91512  0.47491  1.0000
  H   H2999     1.0  0.35449  0.83009  0.43381  1.0000
  H   H3000     1.0  0.42393  0.97414  0.56604  1.0000
  H   H3001     1.0  0.36935  0.98508  0.44238  1.0000
  H   H3002     1.0  0.06195  0.56343  0.48655  1.0000
  H   H3003     1.0  0.47994  0.90969  0.42439  1.0000
  H   H3004     1.0  0.45024  0.95148  0.40008  1.0000
  H   H3005     1.0  0.40638  0.92599  0.57901  1.0000
  H   H3006     1.0  0.46624  0.97188  0.48695  1.0000
  H   H3007     1.0  0.34298  0.89070  0.56860  1.0000
  H   H3008     1.0  0.00966  0.65114  0.56510  1.0000
  H   H3009     1.0  0.01732  0.56462  0.47953  1.0000
  H   H3010     1.0  0.01925  0.69578  0.54660  1.0000
  C   C1692     1.0  0.06179  0.49463  0.43820  1.0000
  H   H3011     1.0  0.44682  0.94445  0.46128  1.0000
  H   H3012     1.0  0.37178  0.96762  0.57137  1.0000
  H   H3013     1.0  0.06097  0.60459  0.41030  1.0000
  C   C1693     1.0  0.02419  0.49498  0.46523  1.0000
  H   H3014     1.0  0.06615  0.63892  0.41987  1.0000
  C   C1694     1.0  0.07382  0.70685  0.39520  1.0000
  H   H3015     1.0  0.33388  0.86287  0.38738  1.0000
  H   H3016     1.0  0.47983  0.91604  0.48147  1.0000
  H   H3017     1.0  0.07916  0.52867  0.39417  1.0000
  C   C1695     1.0  0.04242  0.57516  0.40187  1.0000
  C   C1696     1.0  0.08664  0.61045  0.40046  1.0000
  H   H3018     1.0  0.00890  0.49501  0.52619  1.0000
  H   H3019     1.0  0.06802  0.65389  0.40517  1.0000
  H   H3020     1.0  0.07348  0.54826  0.58479  1.0000
  C   C1697     1.0  0.07594  0.68675  0.39947  1.0000
  H   H3021     1.0  0.42391  0.98169  0.40720  1.0000
  H   H3022     1.0  0.36776  0.98919  0.41992  1.0000
  H   H3023     1.0  0.09427  0.66041  0.55692  1.0000
  H   H3024     1.0  0.09790  0.65250  0.40381  1.0000
  N   N94       1.0  0.07717  0.66112  0.41929  1.0000
  C   C1698     1.0  0.12190  0.62534  0.41417  1.0000
  C   C1699     1.0  0.00640  0.54999  0.47117  1.0000
  H   H3025     1.0  0.38659  0.95746  0.55137  1.0000
  C   C1700     1.0  0.06451  0.54880  0.48986  1.0000
  H   H3026     1.0  0.05968  0.66528  0.43724  1.0000
  Fe  Fe199     1.0  0.43899  0.95298  0.51478  1.0000
  H   H3027     1.0  0.16002  0.92151  0.58092  1.0000
  H   H3028     1.0  0.06006  0.71371  0.39918  1.0000
  H   H3029     1.0  0.09197  0.66157  0.45747  1.0000
  C   C1701     1.0  0.04735  0.54195  0.49238  1.0000
  H   H3030     1.0  0.20063  0.96438  0.39473  1.0000
  H   H3031     1.0  0.10258  0.63145  0.43066  1.0000
  C   C1702     1.0  0.06817  0.54306  0.52724  1.0000
  H   H3032     1.0  0.45810  0.89605  0.57548  1.0000
  Fe  Fe200     1.0  0.07961  0.58769  0.43007  1.0000
  H   H3033     1.0  0.04994  0.52782  0.49730  1.0000
  H   H3034     1.0  0.44767  0.90293  0.49729  1.0000
  H   H3035     1.0  0.08572  0.64230  0.45608  1.0000
  C   C1703     1.0  0.45051  0.90415  0.55186  1.0000
  C   C1704     1.0  0.08438  0.49831  0.48138  1.0000
  C   C1705     1.0  0.43839  0.90382  0.54318  1.0000
  H   H3036     1.0  0.22617  0.82435  0.40371  1.0000
  C   C1706     1.0  0.44966  0.89692  0.53140  1.0000
  H   H3037     1.0  0.37101  0.84211  0.41218  1.0000
  H   H3038     1.0  0.17403  0.88563  0.57097  1.0000
  H   H3039     1.0  0.11571  0.49924  0.46488  1.0000
  H   H3040     1.0  0.46160  0.91046  0.54549  1.0000
  H   H3041     1.0  0.09398  0.62454  0.42004  1.0000
  H   H3042     1.0  0.43044  0.91728  0.54006  1.0000
  H   H3043     1.0  0.42903  0.89480  0.54819  1.0000
  C   C1707     1.0  0.09582  0.62130  0.39013  1.0000
  C   C1708     1.0  0.10753  0.63308  0.55875  1.0000
  H   H3044     1.0  0.31797  0.97758  0.55515  1.0000
  H   H3045     1.0  0.44067  0.89578  0.52573  1.0000
  C   C1709     1.0  0.36145  0.94420  0.58064  1.0000
  H   H3046     1.0  0.45821  0.88361  0.53411  1.0000
  H   H3047     1.0  0.25737  0.90941  0.38902  1.0000
  C   C1710     1.0  0.32767  0.92920  0.39117  1.0000
  H   H3048     1.0  0.14703  0.67513  0.57741  1.0000
  H   H3049     1.0  0.32037  0.88675  0.57293  1.0000
  H   H3050     1.0  0.06460  0.56798  0.38707  1.0000
  H   H3051     1.0  0.47442  0.96822  0.39466  1.0000
  H   H3052     1.0  0.02003  0.70513  0.39840  1.0000
  H   H3053     1.0  0.49698  0.92074  0.56648  1.0000
  S   S393      1.0  0.04837  0.49555  0.41788  1.0000
  C   C1711     1.0  0.00665  0.55695  0.48252  1.0000
  H   H3054     1.0  0.49901  0.95016  0.47197  1.0000
  C   C1712     1.0  0.00676  0.66165  0.57050  1.0000
  C   C1713     1.0  0.05290  0.50002  0.57366  1.0000
  H   H3055     1.0  0.17846  0.90411  0.58416  1.0000
  H   H3056     1.0  0.08384  0.71143  0.39811  1.0000
  C   C1714     1.0  0.02561  0.66973  0.54218  1.0000
  C   C1715     1.0  0.36126  0.92720  0.57980  1.0000
  H   H3057     1.0  0.02845  0.65557  0.54693  1.0000
  C   C1716     1.0  0.09150  0.79184  0.58179  1.0000
  H   H3058     1.0  0.36900  0.86501  0.43086  1.0000
  C   C1717     1.0  0.42936  0.98721  0.45623  1.0000
  C   C1718     1.0  0.41675  0.86961  0.39853  1.0000
  C   C1719     1.0  0.22585  0.83829  0.40372  1.0000
  H   H3059     1.0  0.43089  0.89053  0.57365  1.0000
  H   H3060     1.0  0.12079  0.62430  0.55980  1.0000
  H   H3061     1.0  0.39916  0.86867  0.41700  1.0000
  H   H3062     1.0  0.05456  0.54991  0.39709  1.0000
  C   C1720     1.0  0.48226  0.94773  0.52129  1.0000
  H   H3063     1.0  0.08301  0.71800  0.55391  1.0000
  C   C1721     1.0  0.05752  0.66327  0.57799  1.0000
  H   H3064     1.0  0.32664  0.97660  0.56868  1.0000
  H   H3065     1.0  0.48730  0.91362  0.44643  1.0000
  H   H3066     1.0  0.15725  0.90461  0.56557  1.0000
  H   H3067     1.0  0.01906  0.65949  0.57421  1.0000
  C   C1722     1.0  0.10270  0.63286  0.42055  1.0000
  H   H3068     1.0  0.46419  0.96512  0.44409  1.0000
  C   C1723     1.0  0.09621  0.65242  0.41400  1.0000
  H   H3069     1.0  0.21236  0.84402  0.40893  1.0000
  H   H3070     1.0  0.47886  0.97885  0.42164  1.0000
  H   H3071     1.0  0.44828  0.88595  0.48936  1.0000
  H   H3072     1.0  0.17386  0.94186  0.58215  1.0000
  H   H3073     1.0  0.34997  0.92746  0.42472  1.0000
  H   H3074     1.0  0.06620  0.55118  0.41503  1.0000
  H   H3075     1.0  0.10619  0.51912  0.51216  1.0000
  C   C1724     1.0  0.04262  0.67328  0.53242  1.0000
  C   C1725     1.0  0.05905  0.56192  0.39699  1.0000
  H   H3076     1.0  0.01676  0.49676  0.44128  1.0000
  H   H3077     1.0  0.48168  0.98093  0.47309  1.0000
  C   C1726     1.0  0.14276  0.68253  0.56843  1.0000
  C   C1727     1.0  0.02078  0.53794  0.54802  1.0000
  H   H3078     1.0  0.03189  0.67885  0.55647  1.0000
  C   C1728     1.0  0.46427  0.95170  0.44319  1.0000
  C   C1729     1.0  0.02023  0.68179  0.55194  1.0000
  C   C1730     1.0  0.10280  0.54300  0.40986  1.0000
  C   C1731     1.0  0.01612  0.61056  0.42128  1.0000
  N   N95       1.0  0.04255  0.51715  0.57759  1.0000
  C   C1732     1.0  0.00602  0.69080  0.39169  1.0000
  C   C1733     1.0  0.24460  0.91811  0.38672  1.0000
  H   H3079     1.0  0.11073  0.57275  0.39085  1.0000
  H   H3080     1.0  0.35183  0.97782  0.48475  1.0000
  H   H3081     1.0  0.07875  0.51282  0.47995  1.0000
  H   H3082     1.0  0.04646  0.55363  0.57627  1.0000
  H   H3083     1.0  0.01127  0.55363  0.42463  1.0000
  C   C1734     1.0  0.00934  0.54166  0.49419  1.0000
  C   C1735     1.0  0.34474  0.90174  0.42555  1.0000
  H   H3084     1.0  0.05399  0.67069  0.53717  1.0000
  C   C1736     1.0  0.06504  0.50249  0.44688  1.0000
  H   H3085     1.0  0.35737  0.98633  0.49619  1.0000
  H   H3086     1.0  0.03527  0.63834  0.41920  1.0000
  C   C1737     1.0  0.33500  0.87404  0.39098  1.0000
  H   H3087     1.0  0.09198  0.51376  0.49630  1.0000
  H   H3088     1.0  0.04041  0.68719  0.52696  1.0000
  H   H3089     1.0  0.04344  0.82919  0.58066  1.0000
  C   C1738     1.0  0.32235  0.91307  0.57447  1.0000
  H   H3090     1.0  0.01491  0.67186  0.53694  1.0000
  H   H3091     1.0  0.33246  0.92064  0.43776  1.0000
  H   H3092     1.0  0.44778  0.94699  0.56558  1.0000
  C   C1739     1.0  0.48378  0.91787  0.57209  1.0000
  H   H3093     1.0  0.00749  0.61204  0.47400  1.0000
  H   H3094     1.0  0.41604  0.90659  0.56467  1.0000
  C   C1740     1.0  0.48563  0.95485  0.54011  1.0000
  C   C1741     1.0  0.12560  0.53145  0.46143  1.0000
  N   N96       1.0  0.47355  0.93560  0.46471  1.0000
  H   H3095     1.0  0.10453  0.55623  0.41005  1.0000
  N   N97       1.0  0.31695  0.92406  0.56232  1.0000
  C   C1742     1.0  0.30144  0.91796  0.56065  1.0000
  C   C1743     1.0  0.34582  0.91592  0.43193  1.0000
  C   C1744     1.0  0.31025  0.94305  0.56387  1.0000
  C   C1745     1.0  0.33282  0.92327  0.55120  1.0000
  C   C1746     1.0  0.33614  0.90849  0.54379  1.0000
  C   C1747     1.0  0.29174  0.93008  0.55007  1.0000
  C   C1748     1.0  0.32358  0.95126  0.56721  1.0000
  H   H3096     1.0  0.38864  0.84362  0.41871  1.0000
  H   H3097     1.0  0.04427  0.62745  0.39556  1.0000
  C   C1749     1.0  0.35440  0.90717  0.53457  1.0000
  C   C1750     1.0  0.27988  0.92059  0.54672  1.0000
  H   H3098     1.0  0.37225  0.83185  0.44046  1.0000
  H   H3099     1.0  0.29101  0.91694  0.56962  1.0000
  H   H3100     1.0  0.30567  0.90434  0.55890  1.0000
  H   H3101     1.0  0.47145  0.92747  0.55597  1.0000
  H   H3102     1.0  0.03301  0.77599  0.57869  1.0000
  H   H3103     1.0  0.29770  0.94432  0.57138  1.0000
  H   H3104     1.0  0.30658  0.95185  0.55500  1.0000
  H   H3105     1.0  0.33165  0.93597  0.54400  1.0000
  H   H3106     1.0  0.34540  0.92200  0.55433  1.0000
  H   H3107     1.0  0.32573  0.91148  0.53814  1.0000
  H   H3108     1.0  0.33576  0.89530  0.55010  1.0000
  H   H3109     1.0  0.28287  0.94202  0.55339  1.0000
  H   H3110     1.0  0.30147  0.93457  0.54136  1.0000
  H   H3111     1.0  0.33726  0.94828  0.56126  1.0000
  C   C1751     1.0  0.05864  0.62594  0.39404  1.0000
  N   N98       1.0  0.09049  0.54495  0.40116  1.0000
  H   H3112     1.0  0.12020  0.64202  0.57486  1.0000
  H   H3113     1.0  0.09691  0.62793  0.56652  1.0000
  H   H3114     1.0  0.12910  0.49867  0.47530  1.0000
  H   H3115     1.0  0.48190  0.90439  0.55854  1.0000
  H   H3116     1.0  0.35616  0.89709  0.52898  1.0000
  H   H3117     1.0  0.35546  0.92011  0.52791  1.0000
  H   H3118     1.0  0.36542  0.90309  0.53983  1.0000
  H   H3119     1.0  0.26982  0.91613  0.55526  1.0000
  H   H3120     1.0  0.27262  0.92980  0.53948  1.0000
  H   H3121     1.0  0.28818  0.90893  0.54279  1.0000
  H   H3122     1.0  0.07089  0.71456  0.57027  1.0000
  H   H3123     1.0  0.39881  0.98363  0.45221  1.0000
  H   H3124     1.0  0.02929  0.54324  0.56875  1.0000
  C   C1752     1.0  0.08031  0.51499  0.53994  1.0000
  C   C1753     1.0  0.48470  0.95229  0.47689  1.0000
  H   H3125     1.0  0.08392  0.73148  0.56414  1.0000
  H   H3126     1.0  0.12596  0.61121  0.41886  1.0000
  H   H3127     1.0  0.06132  0.55057  0.51970  1.0000
  H   H3128     1.0  0.05158  0.74093  0.57843  1.0000
  C   C1754     1.0  0.37118  0.95476  0.57054  1.0000
  C   C1755     1.0  0.13214  0.67193  0.56450  1.0000
  C   C1756     1.0  0.37020  0.92112  0.56862  1.0000
  C   C1757     1.0  0.04422  0.66160  0.41933  1.0000
  H   H3129     1.0  0.03967  0.65973  0.42976  1.0000
  H   H3130     1.0  0.45847  0.93046  0.48421  1.0000
  H   H3131     1.0  0.11541  0.54254  0.43069  1.0000
  H   H3132     1.0  0.07479  0.54293  0.48240  1.0000
  H   H3133     1.0  0.46017  0.95840  0.53505  1.0000
  H   H3134     1.0  0.36203  0.86281  0.39307  1.0000
  H   H3135     1.0  0.10483  0.63269  0.54963  1.0000
  C   C1758     1.0  0.22992  0.86832  0.38971  1.0000
  H   H3136     1.0  0.16726  0.69260  0.56159  1.0000
  H   H3137     1.0  0.41074  0.96529  0.55946  1.0000
  H   H3138     1.0  0.08478  0.68611  0.41611  1.0000
  C   C1759     1.0  0.47556  0.95556  0.40129  1.0000
  C   C1760     1.0  0.15955  0.89213  0.57280  1.0000
  H   H3139     1.0  0.06533  0.68309  0.39657  1.0000
  N   N99       1.0  0.44147  0.91355  0.56268  1.0000
  H   H3140     1.0  0.33309  0.91774  0.57634  1.0000
  C   C1761     1.0  0.33693  0.98159  0.39056  1.0000
  H   H3141     1.0  0.01099  0.80105  0.57175  1.0000
  C   C1762     1.0  0.01691  0.52954  0.51499  1.0000
  C   C1763     1.0  0.49058  0.94880  0.40687  1.0000
  H   H3142     1.0  0.45690  0.89011  0.55552  1.0000
  H   H3143     1.0  0.02470  0.53071  0.52151  1.0000
  H   H3144     1.0  0.02548  0.51823  0.51070  1.0000
  H   H3145     1.0  0.08888  0.58107  0.38702  1.0000
  H   H3146     1.0  0.47630  0.92930  0.57653  1.0000
  H   H3147     1.0  0.13766  0.52777  0.46562  1.0000
  H   H3148     1.0  0.12284  0.52029  0.42774  1.0000
  N   N100      1.0  0.01426  0.54626  0.50483  1.0000
  H   H3149     1.0  0.01717  0.55189  0.54913  1.0000
  H   H3150     1.0  0.33086  0.97012  0.39613  1.0000
  C   C1764     1.0  0.46349  0.92946  0.41257  1.0000
  H   H3151     1.0  0.43649  0.96056  0.44066  1.0000
  H   H3152     1.0  0.03497  0.72994  0.57768  1.0000
  H   H3153     1.0  0.06991  0.54518  0.49858  1.0000
  H   H3154     1.0  0.04405  0.54506  0.43673  1.0000
  C   C1765     1.0  0.37973  0.94890  0.55929  1.0000
  H   H3155     1.0  0.43680  0.99020  0.44625  1.0000
  H   H3156     1.0  0.07315  0.64374  0.43784  1.0000
  H   H3157     1.0  0.08386  0.67839  0.43718  1.0000
  H   H3158     1.0  0.46885  0.88848  0.49203  1.0000
  C   C1766     1.0  0.08292  0.65705  0.45358  1.0000
  S   S394      1.0  0.05463  0.57780  0.43269  1.0000
  H   H3159     1.0  0.30362  0.97507  0.57085  1.0000
  H   H3160     1.0  0.07542  0.56971  0.40653  1.0000
  H   H3161     1.0  0.37000  0.90797  0.56795  1.0000
  C   C1767     1.0  0.09015  0.77541  0.58045  1.0000
  C   C1768     1.0  0.37915  0.93211  0.55827  1.0000
  C   C1769     1.0  0.11022  0.52373  0.47082  1.0000
  H   H3162     1.0  0.06880  0.66226  0.45807  1.0000
  C   C1770     1.0  0.44979  0.95385  0.43587  1.0000
  C   C1771     1.0  0.02350  0.52510  0.56046  1.0000
  H   H3163     1.0  0.34030  0.89062  0.43305  1.0000
  H   H3164     1.0  0.13136  0.63278  0.41499  1.0000
  C   C1772     1.0  0.48019  0.96965  0.48130  1.0000
  H   H3165     1.0  0.12149  0.54615  0.45914  1.0000
  H   H3166     1.0  0.08557  0.49507  0.47211  1.0000
  C   C1773     1.0  0.08620  0.66370  0.43920  1.0000
  C   C1774     1.0  0.37392  0.84476  0.42051  1.0000
  C   C1775     1.0  0.09642  0.53403  0.42391  1.0000
  H   H3167     1.0  0.01840  0.65855  0.41795  1.0000
  H   H3168     1.0  0.36583  0.90663  0.40906  1.0000
  C   C1776     1.0  0.06806  0.61293  0.40242  1.0000
  H   H3169     1.0  0.15620  0.69343  0.54930  1.0000
  H   H3170     1.0  0.24198  0.86732  0.39340  1.0000
  H   H3171     1.0  0.04120  0.67596  0.41503  1.0000
  H   H3172     1.0  0.04608  0.58782  0.40130  1.0000
  C   C1777     1.0  0.07300  0.55721  0.40543  1.0000
  C   C1778     1.0  0.42595  0.90508  0.57048  1.0000
  C   C1779     1.0  0.47867  0.92255  0.41799  1.0000
  H   H3173     1.0  0.47968  0.95937  0.54886  1.0000
  C   C1780     1.0  0.15973  0.68539  0.55839  1.0000
  H   H3174     1.0  0.45326  0.96195  0.42620  1.0000
  H   H3175     1.0  0.37342  0.89292  0.42266  1.0000
  H   H3176     1.0  0.12909  0.52659  0.45253  1.0000
  H   H3177     1.0  0.13471  0.69567  0.56996  1.0000
  H   H3178     1.0  0.06759  0.52579  0.57370  1.0000
  H   H3179     1.0  0.45836  0.90621  0.52540  1.0000
  C   C1781     1.0  0.08339  0.71795  0.56374  1.0000
  H   H3180     1.0  0.23621  0.83824  0.40872  1.0000
  H   H3181     1.0  0.42680  0.94257  0.57527  1.0000
  C   C1782     1.0  0.09947  0.55230  0.38779  1.0000
  C   C1783     1.0  0.11426  0.50532  0.51291  1.0000
  C   C1784     1.0  0.00557  0.61327  0.43306  1.0000
  H   H3182     1.0  0.09274  0.49180  0.50488  1.0000
  H   H3183     1.0  0.12597  0.50856  0.49313  1.0000
  H   H3184     1.0  0.11026  0.61931  0.38847  1.0000
  H   H3185     1.0  0.01378  0.55763  0.52507  1.0000
  H   H3186     1.0  0.00627  0.52317  0.42861  1.0000
  H   H3187     1.0  0.03421  0.68581  0.39281  1.0000
  H   H3188     1.0  0.01363  0.50481  0.53739  1.0000
  H   H3189     1.0  0.01741  0.81688  0.58275  1.0000
  H   H3190     1.0  0.03814  0.80115  0.57857  1.0000
  C   C1785     1.0  0.41464  0.91267  0.58217  1.0000
  H   H3191     1.0  0.38925  0.99041  0.43133  1.0000
  H   H3192     1.0  0.34180  0.98666  0.39701  1.0000
  C   C1786     1.0  0.00365  0.50537  0.53190  1.0000
  N   N101      1.0  0.00336  0.67974  0.56193  1.0000
  H   H3193     1.0  0.00514  0.58755  0.52797  1.0000
  H   H3194     1.0  0.00711  0.72127  0.57680  1.0000
  C   C1787     1.0  0.00577  0.70894  0.58411  1.0000
  H   H3195     1.0  0.33164  0.99028  0.58490  1.0000
  C   C1788     1.0  0.34904  0.86759  0.39921  1.0000
  H   H3196     1.0  0.38197  0.88762  0.39390  1.0000
  H   H3197     1.0  0.32161  0.87944  0.39649  1.0000
  H   H3198     1.0  0.38531  0.86447  0.39894  1.0000
  H   H3199     1.0  0.00485  0.78084  0.57257  1.0000
  C   C1789     1.0  0.00254  0.58506  0.51943  1.0000
  C   C1790     1.0  0.35437  0.98974  0.48660  1.0000
  H   H3200     1.0  0.41744  0.87772  0.38872  1.0000
  H   H3201     1.0  0.18936  0.95715  0.38554  1.0000
  C   C1791     1.0  0.20220  0.96003  0.38583  1.0000
  H   H3202     1.0  0.21267  0.94766  0.38576  1.0000
  S   S395      1.0  0.38147  0.92573  0.38577  1.0000
  H   H3203     1.0  0.13085  0.66760  0.60473  1.0000
  H   H3204     1.0  0.02253  0.77541  0.68943  1.0000
  C   C1792     1.0  0.12380  0.65670  0.60634  1.0000
  C   C1793     1.0  0.15321  0.79384  0.64012  1.0000
  Fe  Fe201     1.0  0.32427  0.94334  0.60543  1.0000
  S   S396      1.0  0.31545  0.94637  0.62558  1.0000
  H   H3205     1.0  0.22235  0.79120  0.63397  1.0000
  Fe  Fe202     1.0  0.28916  0.93372  0.60623  1.0000
  S   S397      1.0  0.27732  0.93640  0.62632  1.0000
  C   C1794     1.0  0.12242  0.65378  0.59377  1.0000
  Fe  Fe203     1.0  0.28896  0.96069  0.62065  1.0000
  H   H3206     1.0  0.08953  0.83102  0.67072  1.0000
  Fe  Fe204     1.0  0.30480  0.92176  0.62942  1.0000
  S   S398      1.0  0.30751  0.90132  0.64740  1.0000
  S   S399      1.0  0.29835  0.95933  0.60022  1.0000
  S   S400      1.0  0.31609  0.91723  0.60962  1.0000
  C   C1795     1.0  0.14819  0.66560  0.69799  1.0000
  Fe  Fe205     1.0  0.19666  0.73224  0.67020  1.0000
  S   S401      1.0  0.18298  0.74050  0.68855  1.0000
  S   S402      1.0  0.22505  0.73441  0.66032  1.0000
  Fe  Fe206     1.0  0.16446  0.71897  0.66870  1.0000
  S   S403      1.0  0.14811  0.72622  0.68700  1.0000
  S   S404      1.0  0.15709  0.70505  0.65628  1.0000
  Fe  Fe207     1.0  0.15900  0.75108  0.67965  1.0000
  S   S405      1.0  0.14322  0.77878  0.67987  1.0000
  Fe  Fe208     1.0  0.17357  0.71485  0.69429  1.0000
  S   S406      1.0  0.17484  0.69534  0.71302  1.0000
  S   S407      1.0  0.17338  0.74482  0.66071  1.0000
  S   S408      1.0  0.18928  0.70569  0.67651  1.0000
  Fe  Fe209     1.0  0.07541  0.81179  0.64238  1.0000
  S   S409      1.0  0.07423  0.78856  0.65881  1.0000
  Fe  Fe210     1.0  0.05323  0.84589  0.63085  1.0000
  H   H3207     1.0  0.22790  0.97833  0.66816  1.0000
  S   S410      1.0  0.05787  0.81809  0.62845  1.0000
  S   S411      1.0  0.06937  0.83915  0.64587  1.0000
  Fe  Fe211     1.0  0.14478  0.92219  0.65269  1.0000
  S   S412      1.0  0.14874  0.93727  0.66560  1.0000
  S   S413      1.0  0.11808  0.91520  0.65460  1.0000
  Fe  Fe212     1.0  0.18369  0.91821  0.63842  1.0000
  S   S414      1.0  0.19148  0.93243  0.65012  1.0000
  S   S415      1.0  0.20080  0.90512  0.62255  1.0000
  Fe  Fe213     1.0  0.17451  0.91710  0.66647  1.0000
  S   S416      1.0  0.18223  0.90485  0.68518  1.0000
  Fe  Fe214     1.0  0.16528  0.95169  0.64835  1.0000
  H   H3208     1.0  0.35425  0.91879  0.58777  1.0000
  S   S417      1.0  0.16930  0.90087  0.65504  1.0000
  S   S418      1.0  0.15880  0.93864  0.63521  1.0000
  Fe  Fe215     1.0  0.26011  0.78570  0.69057  1.0000
  S   S419      1.0  0.24035  0.79353  0.70753  1.0000
  S   S420      1.0  0.27087  0.75729  0.68897  1.0000
  Fe  Fe216     1.0  0.26009  0.82373  0.67654  1.0000
  S   S421      1.0  0.24055  0.83498  0.69248  1.0000
  S   S422      1.0  0.26692  0.83955  0.65664  1.0000
  Fe  Fe217     1.0  0.25664  0.81354  0.70510  1.0000
  S   S423      1.0  0.25756  0.81745  0.72399  1.0000
  Fe  Fe218     1.0  0.22586  0.81414  0.69377  1.0000
  S   S424      1.0  0.19593  0.82161  0.69633  1.0000
  S   S425      1.0  0.27793  0.80411  0.68899  1.0000
  S   S426      1.0  0.24402  0.80441  0.67702  1.0000
  C   C1796     1.0  0.01064  0.85443  0.62757  1.0000
  S   S427      1.0  0.22114  0.68831  0.77470  1.0000
  C   C1797     1.0  0.20019  0.80631  0.66501  1.0000
  H   H3209     1.0  0.17348  0.95671  0.60483  1.0000
  S   S428      1.0  0.23861  0.72422  0.76362  1.0000
  H   H3210     1.0  0.01070  0.83543  0.67571  1.0000
  Fe  Fe219     1.0  0.21271  0.71671  0.76500  1.0000
  S   S429      1.0  0.20022  0.72950  0.74800  1.0000
  H   H3211     1.0  0.02935  0.85750  0.60961  1.0000
  H   H3212     1.0  0.27075  0.86261  0.75183  1.0000
  Fe  Fe220     1.0  0.32894  0.79061  0.76259  1.0000
  S   S430      1.0  0.32953  0.80466  0.74222  1.0000
  C   C1798     1.0  0.01636  0.85465  0.61463  1.0000
  H   H3213     1.0  0.19916  0.78643  0.68266  1.0000
  S   S431      1.0  0.05600  0.73004  0.62333  1.0000
  C   C1799     1.0  0.22142  0.80529  0.63404  1.0000
  S   S432      1.0  0.07864  0.70640  0.65114  1.0000
  S   S433      1.0  0.11745  0.85315  0.62966  1.0000
  C   C1800     1.0  0.18691  0.86666  0.61725  1.0000
  H   H3214     1.0  0.14145  0.79559  0.70195  1.0000
  H   H3215     1.0  0.07903  0.78601  0.61377  1.0000
  S   S434      1.0  0.27408  0.98733  0.62483  1.0000
  H   H3216     1.0  0.03167  0.82551  0.59700  1.0000
  C   C1801     1.0  0.15344  0.89590  0.58611  1.0000
  C   C1802     1.0  0.34290  0.74553  0.73583  1.0000
  H   H3217     1.0  0.25915  0.84558  0.73366  1.0000
  C   C1803     1.0  0.11198  0.83725  0.67502  1.0000
  S   S435      1.0  0.05184  0.68870  0.63358  1.0000
  H   H3218     1.0  0.16707  0.79049  0.76354  1.0000
  H   H3219     1.0  0.22629  0.78968  0.66440  1.0000
  C   C1804     1.0  0.02911  0.76855  0.58852  1.0000
  H   H3220     1.0  0.34624  0.73975  0.72737  1.0000
  H   H3221     1.0  0.30147  0.86959  0.74292  1.0000
  C   C1805     1.0  0.18062  0.66294  0.68600  1.0000
  H   H3222     1.0  0.31959  0.88483  0.59552  1.0000
  C   C1806     1.0  0.27795  0.81139  0.72902  1.0000
  C   C1807     1.0  0.27744  0.81023  0.74178  1.0000
  C   C1808     1.0  0.29335  0.80730  0.74598  1.0000
  C   C1809     1.0  0.30983  0.80603  0.73735  1.0000
  C   C1810     1.0  0.31043  0.80684  0.72460  1.0000
  C   C1811     1.0  0.29450  0.80927  0.72046  1.0000
  H   H3223     1.0  0.26465  0.81191  0.74843  1.0000
  H   H3224     1.0  0.29279  0.80662  0.75584  1.0000
  H   H3225     1.0  0.32319  0.80587  0.71790  1.0000
  H   H3226     1.0  0.29496  0.81028  0.71058  1.0000
  C   C1812     1.0  0.18571  0.88175  0.68803  1.0000
  C   C1813     1.0  0.19617  0.87259  0.67863  1.0000
  C   C1814     1.0  0.19926  0.85403  0.68117  1.0000
  C   C1815     1.0  0.19123  0.84476  0.69289  1.0000
  C   C1816     1.0  0.18049  0.85395  0.70218  1.0000
  C   C1817     1.0  0.17803  0.87243  0.69984  1.0000
  H   H3227     1.0  0.20225  0.87976  0.66953  1.0000
  H   H3228     1.0  0.20785  0.84688  0.67406  1.0000
  H   H3229     1.0  0.17455  0.84676  0.71131  1.0000
  H   H3230     1.0  0.16999  0.87955  0.70710  1.0000
  H   H3231     1.0  0.16847  0.75113  0.62351  1.0000
  C   C1818     1.0  0.16797  0.76445  0.76134  1.0000
  S   S436      1.0  0.05392  0.70770  0.60327  1.0000
  H   H3232     1.0  0.00778  0.64133  0.59506  1.0000
  H   H3233     1.0  0.03428  0.78770  0.60293  1.0000
  C   C1819     1.0  0.13482  0.92821  0.61656  1.0000
  H   H3234     1.0  0.18954  0.66726  0.67677  1.0000
  H   H3235     1.0  0.02154  0.76088  0.61323  1.0000
  C   C1820     1.0  0.22519  0.82522  0.64646  1.0000
  C   C1821     1.0  0.11780  0.89765  0.64801  1.0000
  C   C1822     1.0  0.32238  0.75247  0.74012  1.0000
  C   C1823     1.0  0.11700  0.87002  0.63716  1.0000
  C   C1824     1.0  0.10102  0.87945  0.64343  1.0000
  C   C1825     1.0  0.10145  0.89319  0.64890  1.0000
  H   H3236     1.0  0.08835  0.87628  0.64397  1.0000
  H   H3237     1.0  0.08905  0.90054  0.65367  1.0000
  C   C1826     1.0  0.23721  0.73995  0.66915  1.0000
  C   C1827     1.0  0.22888  0.75183  0.67718  1.0000
  C   C1828     1.0  0.23920  0.75736  0.68320  1.0000
  C   C1829     1.0  0.25774  0.75054  0.68154  1.0000
  C   C1830     1.0  0.26593  0.73821  0.67386  1.0000
  C   C1831     1.0  0.25575  0.73317  0.66750  1.0000
  H   H3238     1.0  0.21460  0.75716  0.67842  1.0000
  H   H3239     1.0  0.23285  0.76684  0.68916  1.0000
  H   H3240     1.0  0.28027  0.73296  0.67251  1.0000
  H   H3241     1.0  0.26226  0.72405  0.66125  1.0000
  C   C1832     1.0  0.18061  0.70430  0.72370  1.0000
  C   C1833     1.0  0.18888  0.69325  0.73353  1.0000
  C   C1834     1.0  0.19453  0.70066  0.74146  1.0000
  C   C1835     1.0  0.19181  0.71911  0.73956  1.0000
  C   C1836     1.0  0.18275  0.72998  0.73017  1.0000
  C   C1837     1.0  0.17726  0.72265  0.72225  1.0000
  H   H3242     1.0  0.19126  0.67901  0.73482  1.0000
  H   H3243     1.0  0.20116  0.69215  0.74889  1.0000
  H   H3244     1.0  0.17986  0.74420  0.72899  1.0000
  H   H3245     1.0  0.17018  0.73126  0.71512  1.0000
  C   C1838     1.0  0.09300  0.78583  0.66510  1.0000
  C   C1839     1.0  0.09853  0.77024  0.67365  1.0000
  C   C1840     1.0  0.11396  0.76803  0.67828  1.0000
  C   C1841     1.0  0.12367  0.78149  0.67449  1.0000
  C   C1842     1.0  0.11805  0.79704  0.66600  1.0000
  C   C1843     1.0  0.10286  0.79914  0.66121  1.0000
  H   H3246     1.0  0.09102  0.75985  0.67657  1.0000
  H   H3247     1.0  0.11817  0.75609  0.68496  1.0000
  H   H3248     1.0  0.12577  0.80727  0.66282  1.0000
  H   H3249     1.0  0.09879  0.81116  0.65456  1.0000
  C   C1844     1.0  0.13516  0.70644  0.65458  1.0000
  C   C1845     1.0  0.11994  0.71397  0.66266  1.0000
  C   C1846     1.0  0.10270  0.71387  0.66150  1.0000
  C   C1847     1.0  0.10051  0.70699  0.65187  1.0000
  C   C1848     1.0  0.11574  0.70005  0.64350  1.0000
  C   C1849     1.0  0.13299  0.69953  0.64498  1.0000
  H   H3250     1.0  0.12146  0.71987  0.66977  1.0000
  H   H3251     1.0  0.09097  0.71943  0.66793  1.0000
  C   C1850     1.0  0.22431  0.86003  0.74216  1.0000
  H   H3252     1.0  0.14472  0.69370  0.63868  1.0000
  C   C1851     1.0  0.12339  0.75119  0.63304  1.0000
  C   C1852     1.0  0.17618  0.71728  0.62038  1.0000
  H   H3253     1.0  0.19972  0.80033  0.61991  1.0000
  H   H3254     1.0  0.27752  0.97392  0.67175  1.0000
  C   C1853     1.0  0.21369  0.96635  0.63260  1.0000
  H   H3255     1.0  0.25079  0.77601  0.63450  1.0000
  Fe  Fe221     1.0  0.07159  0.70463  0.63320  1.0000
  C   C1854     1.0  0.13333  0.87423  0.63657  1.0000
  C   C1855     1.0  0.29665  0.88389  0.64982  1.0000
  C   C1856     1.0  0.29041  0.88145  0.64003  1.0000
  C   C1857     1.0  0.28150  0.86763  0.64219  1.0000
  C   C1858     1.0  0.27849  0.85644  0.65420  1.0000
  C   C1859     1.0  0.28464  0.85892  0.66402  1.0000
  C   C1860     1.0  0.29391  0.87251  0.66178  1.0000
  H   H3256     1.0  0.29246  0.89019  0.63079  1.0000
  H   H3257     1.0  0.27675  0.86574  0.63458  1.0000
  H   H3258     1.0  0.28242  0.85022  0.67326  1.0000
  H   H3259     1.0  0.29893  0.87426  0.66930  1.0000
  C   C1861     1.0  0.25394  0.92151  0.60200  1.0000
  C   C1862     1.0  0.24302  0.92942  0.61196  1.0000
  C   C1863     1.0  0.22638  0.92483  0.61815  1.0000
  C   C1864     1.0  0.22088  0.91208  0.61456  1.0000
  C   C1865     1.0  0.23168  0.90442  0.60449  1.0000
  H   H3260     1.0  0.01112  0.80380  0.67788  1.0000
  H   H3261     1.0  0.24728  0.93921  0.61478  1.0000
  H   H3262     1.0  0.21797  0.93087  0.62583  1.0000
  H   H3263     1.0  0.18224  0.96874  0.66379  1.0000
  C   C1866     1.0  0.09203  0.84095  0.67489  1.0000
  H   H3264     1.0  0.17027  0.92558  0.61077  1.0000
  H   H3265     1.0  0.03844  0.77102  0.62377  1.0000
  S   S437      1.0  0.02415  0.85957  0.63560  1.0000
  H   H3266     1.0  0.18441  0.66698  0.69347  1.0000
  C   C1867     1.0  0.03043  0.74737  0.69075  1.0000
  H   H3267     1.0  0.30910  0.84034  0.70215  1.0000
  H   H3268     1.0  0.17694  0.96781  0.58837  1.0000
  C   C1868     1.0  0.27253  0.88465  0.72979  1.0000
  H   H3269     1.0  0.01446  0.70727  0.59082  1.0000
  H   H3270     1.0  0.13997  0.94046  0.61459  1.0000
  H   H3271     1.0  0.01276  0.80248  0.60454  1.0000
  H   H3272     1.0  0.12752  0.78212  0.63624  1.0000
  H   H3273     1.0  0.11753  0.82324  0.70132  1.0000
  H   H3274     1.0  0.17811  0.70798  0.61415  1.0000
  H   H3275     1.0  0.43807  0.70689  0.75004  1.0000
  H   H3276     1.0  0.10842  0.94294  0.61307  1.0000
  H   H3277     1.0  0.13903  0.76339  0.64581  1.0000
  H   H3278     1.0  0.42750  0.72060  0.78034  1.0000
  H   H3279     1.0  0.03546  0.76327  0.64654  1.0000
  H   H3280     1.0  0.04400  0.78951  0.64933  1.0000
  C   C1869     1.0  0.35305  0.76043  0.73275  1.0000
  H   H3281     1.0  0.39267  0.90738  0.59814  1.0000
  S   S438      1.0  0.00846  0.72391  0.62435  1.0000
  H   H3282     1.0  0.36609  0.65768  0.78137  1.0000
  H   H3283     1.0  0.46779  0.77255  0.78127  1.0000
  H   H3284     1.0  0.36882  0.98011  0.61533  1.0000
  C   C1870     1.0  0.06030  0.54739  0.59140  1.0000
  H   H3285     1.0  0.04170  0.76438  0.59223  1.0000
  H   H3286     1.0  0.15544  0.88302  0.59295  1.0000
  C   C1871     1.0  0.17876  0.95466  0.59498  1.0000
  C   C1872     1.0  0.42074  0.73178  0.77369  1.0000
  H   H3287     1.0  0.24516  0.96828  0.65645  1.0000
  H   H3288     1.0  0.13571  0.93067  0.59675  1.0000
  H   H3289     1.0  0.18333  0.87705  0.59822  1.0000
  H   H3290     1.0  0.22026  0.79228  0.73374  1.0000
  H   H3291     1.0  0.14083  0.80422  0.63899  1.0000
  H   H3292     1.0  0.02066  0.68773  0.62143  1.0000
  H   H3293     1.0  0.01360  0.82625  0.65553  1.0000
  C   C1873     1.0  0.41141  0.76380  0.76688  1.0000
  H   H3294     1.0  0.42304  0.91371  0.58827  1.0000
  H   H3295     1.0  0.22169  0.97198  0.65606  1.0000
  C   C1874     1.0  0.42941  0.72835  0.76015  1.0000
  H   H3296     1.0  0.47434  0.75133  0.77686  1.0000
  H   H3297     1.0  0.00906  0.85303  0.59789  1.0000
  H   H3298     1.0  0.00560  0.66767  0.61676  1.0000
  H   H3299     1.0  0.00286  0.78629  0.62273  1.0000
  H   H3300     1.0  0.02470  0.75951  0.66676  1.0000
  H   H3301     1.0  0.29515  0.84358  0.72485  1.0000
  H   H3302     1.0  0.24288  0.57952  0.77209  1.0000
  S   S439      1.0  0.31144  0.77094  0.77167  1.0000
  H   H3303     1.0  0.02593  0.84606  0.66271  1.0000
  H   H3304     1.0  0.03735  0.81904  0.65425  1.0000
  H   H3305     1.0  0.25415  0.89337  0.71646  1.0000
  H   H3306     1.0  0.05271  0.78123  0.62816  1.0000
  H   H3307     1.0  0.26322  0.88943  0.73816  1.0000
  C   C1875     1.0  0.23139  0.96819  0.66233  1.0000
  C   C1876     1.0  0.35281  0.65910  0.77921  1.0000
  H   H3308     1.0  0.05425  0.56033  0.59421  1.0000
  C   C1877     1.0  0.03854  0.78126  0.62868  1.0000
  H   H3309     1.0  0.33815  0.86904  0.58876  1.0000
  S   S440      1.0  0.27484  0.92681  0.59404  1.0000
  C   C1878     1.0  0.08477  0.76264  0.59110  1.0000
  H   H3310     1.0  0.21391  0.78454  0.65549  1.0000
  H   H3311     1.0  0.16909  0.81238  0.73487  1.0000
  H   H3312     1.0  0.12824  0.78960  0.59149  1.0000
  C   C1879     1.0  0.24723  0.79790  0.64389  1.0000
  H   H3313     1.0  0.15807  0.78723  0.62204  1.0000
  H   H3314     1.0  0.34779  0.98747  0.60091  1.0000
  H   H3315     1.0  0.05938  0.68002  0.58954  1.0000
  H   H3316     1.0  0.28582  0.71242  0.78101  1.0000
  H   H3317     1.0  0.39715  0.76249  0.76896  1.0000
  H   H3318     1.0  0.44963  0.73723  0.77558  1.0000
  H   H3319     1.0  0.27560  0.75595  0.64388  1.0000
  C   C1880     1.0  0.02919  0.80766  0.58621  1.0000
  H   H3320     1.0  0.27340  0.98826  0.65697  1.0000
  C   C1881     1.0  0.23512  0.59025  0.77716  1.0000
  H   H3321     1.0  0.18623  0.78433  0.67224  1.0000
  C   C1882     1.0  0.15924  0.73170  0.61890  1.0000
  H   H3322     1.0  0.18120  0.75708  0.76350  1.0000
  H   H3323     1.0  0.23074  0.61915  0.77295  1.0000
  S   S441      1.0  0.32345  0.80211  0.77981  1.0000
  C   C1883     1.0  0.27210  0.77015  0.64441  1.0000
  H   H3324     1.0  0.13205  0.80066  0.71739  1.0000
  H   H3325     1.0  0.18275  0.64826  0.68804  1.0000
  C   C1884     1.0  0.01705  0.49978  0.58953  1.0000
  C   C1885     1.0  0.02217  0.80176  0.66948  1.0000
  H   H3326     1.0  0.02521  0.74444  0.70115  1.0000
  C   C1886     1.0  0.08754  0.79571  0.59379  1.0000
  C   C1887     1.0  0.02386  0.83313  0.66900  1.0000
  H   H3327     1.0  0.27384  0.91999  0.71908  1.0000
  H   H3328     1.0  0.25251  0.79964  0.65162  1.0000
  H   H3329     1.0  0.30954  0.84877  0.73797  1.0000
  H   H3330     1.0  0.28557  0.88771  0.72945  1.0000
  S   S442      1.0  0.35415  0.77153  0.76685  1.0000
  H   H3331     1.0  0.15395  0.74761  0.77733  1.0000
  H   H3332     1.0  0.41833  0.70533  0.76246  1.0000
  C   C1888     1.0  0.19809  0.81431  0.62052  1.0000
  C   C1889     1.0  0.44092  0.75066  0.77329  1.0000
  H   H3333     1.0  0.15263  0.77229  0.60879  1.0000
  H   H3334     1.0  0.01055  0.75376  0.58635  1.0000
  H   H3335     1.0  0.17499  0.70958  0.63029  1.0000
  N   N102      1.0  0.13945  0.75964  0.62726  1.0000
  S   S443      1.0  0.16273  0.98143  0.64317  1.0000
  H   H3336     1.0  0.18821  0.72319  0.61771  1.0000
  H   H3337     1.0  0.16130  0.73841  0.60875  1.0000
  H   H3338     1.0  0.13554  0.66142  0.72375  1.0000
  N   N103      1.0  0.31007  0.73997  0.74192  1.0000
  C   C1890     1.0  0.31948  0.72098  0.74611  1.0000
  C   C1891     1.0  0.29408  0.74423  0.75240  1.0000
  C   C1892     1.0  0.30318  0.74283  0.73008  1.0000
  C   C1893     1.0  0.31723  0.73781  0.71835  1.0000
  C   C1894     1.0  0.30833  0.70663  0.74883  1.0000
  C   C1895     1.0  0.28315  0.76364  0.75025  1.0000
  C   C1896     1.0  0.30827  0.74054  0.70727  1.0000
  C   C1897     1.0  0.31987  0.68803  0.75206  1.0000
  C   C1898     1.0  0.26984  0.76739  0.76233  1.0000
  H   H3339     1.0  0.32424  0.71957  0.75491  1.0000
  H   H3340     1.0  0.33177  0.71717  0.73900  1.0000
  H   H3341     1.0  0.29853  0.74112  0.76155  1.0000
  H   H3342     1.0  0.28421  0.73589  0.75391  1.0000
  H   H3343     1.0  0.29216  0.73568  0.73201  1.0000
  H   H3344     1.0  0.29692  0.75708  0.72705  1.0000
  H   H3345     1.0  0.32435  0.72373  0.72036  1.0000
  H   H3346     1.0  0.32705  0.74651  0.71515  1.0000
  H   H3347     1.0  0.29699  0.70807  0.75708  1.0000
  H   H3348     1.0  0.30297  0.70736  0.74050  1.0000
  H   H3349     1.0  0.27540  0.76616  0.74282  1.0000
  Fe  Fe222     1.0  0.33615  0.75265  0.77720  1.0000
  H   H3350     1.0  0.29833  0.73203  0.70975  1.0000
  H   H3351     1.0  0.30132  0.75463  0.70461  1.0000
  H   H3352     1.0  0.31857  0.73702  0.69890  1.0000
  H   H3353     1.0  0.31166  0.67798  0.75393  1.0000
  H   H3354     1.0  0.33142  0.68550  0.74409  1.0000
  H   H3355     1.0  0.32493  0.68643  0.76071  1.0000
  H   H3356     1.0  0.27712  0.76557  0.76988  1.0000
  H   H3357     1.0  0.26221  0.78131  0.76074  1.0000
  H   H3358     1.0  0.26023  0.75842  0.76547  1.0000
  H   H3359     1.0  0.16481  0.80037  0.63707  1.0000
  H   H3360     1.0  0.08998  0.74988  0.62985  1.0000
  H   H3361     1.0  0.07650  0.76575  0.63925  1.0000
  N   N104      1.0  0.16014  0.91201  0.60084  1.0000
  C   C1899     1.0  0.15385  0.76197  0.77365  1.0000
  C   C1900     1.0  0.16457  0.89487  0.61027  1.0000
  H   H3362     1.0  0.18448  0.81394  0.75698  1.0000
  C   C1901     1.0  0.14041  0.92012  0.60464  1.0000
  H   H3363     1.0  0.16174  0.82066  0.75486  1.0000
  Fe  Fe223     1.0  0.09292  0.84343  0.62976  1.0000
  H   H3364     1.0  0.17655  0.85857  0.61990  1.0000
  H   H3365     1.0  0.00679  0.67991  0.66248  1.0000
  H   H3366     1.0  0.23723  0.76740  0.74834  1.0000
  H   H3367     1.0  0.35383  0.64858  0.77419  1.0000
  H   H3368     1.0  0.19954  0.82922  0.63319  1.0000
  H   H3369     1.0  0.17153  0.78379  0.73152  1.0000
  H   H3370     1.0  0.18719  0.87134  0.62563  1.0000
  H   H3371     1.0  0.03479  0.79672  0.67318  1.0000
  H   H3372     1.0  0.16433  0.89771  0.61949  1.0000
  H   H3373     1.0  0.15411  0.88698  0.61243  1.0000
  H   H3374     1.0  0.11540  0.64266  0.59602  1.0000
  C   C1902     1.0  0.29196  0.64753  0.78056  1.0000
  H   H3375     1.0  0.30033  0.86486  0.71848  1.0000
  H   H3376     1.0  0.13223  0.90999  0.60649  1.0000
  H   H3377     1.0  0.23026  0.78141  0.75974  1.0000
  C   C1903     1.0  0.00944  0.76855  0.60938  1.0000
  C   C1904     1.0  0.26083  0.65017  0.78045  1.0000
  H   H3378     1.0  0.29197  0.77325  0.74736  1.0000
  H   H3379     1.0  0.18622  0.91804  0.59800  1.0000
  C   C1905     1.0  0.26193  0.91606  0.71811  1.0000
  H   H3380     1.0  0.34808  0.73514  0.74359  1.0000
  H   H3381     1.0  0.19191  0.98531  0.67571  1.0000
  H   H3382     1.0  0.44287  0.73164  0.75665  1.0000
  C   C1906     1.0  0.17176  0.92407  0.60094  1.0000
  N   N105      1.0  0.42149  0.74938  0.77582  1.0000
  H   H3383     1.0  0.06016  0.51559  0.58981  1.0000
  H   H3384     1.0  0.31835  0.76512  0.73337  1.0000
  H   H3385     1.0  0.18625  0.76477  0.73828  1.0000
  H   H3386     1.0  0.20725  0.82087  0.61231  1.0000
  H   H3387     1.0  0.18404  0.82135  0.62002  1.0000
  C   C1907     1.0  0.06636  0.65245  0.59833  1.0000
  H   H3388     1.0  0.00595  0.76553  0.68730  1.0000
  C   C1908     1.0  0.00764  0.69274  0.65565  1.0000
  H   H3389     1.0  0.20043  0.79556  0.71891  1.0000
  H   H3390     1.0  0.15384  0.80500  0.70891  1.0000
  H   H3391     1.0  0.06238  0.53714  0.60009  1.0000
  H   H3392     1.0  0.11571  0.82356  0.68053  1.0000
  H   H3393     1.0  0.14631  0.89148  0.64112  1.0000
  H   H3394     1.0  0.25509  0.80461  0.63494  1.0000
  H   H3395     1.0  0.14780  0.72503  0.62146  1.0000
  C   C1909     1.0  0.11582  0.85096  0.68081  1.0000
  H   H3396     1.0  0.12508  0.74211  0.64227  1.0000
  H   H3397     1.0  0.24824  0.65800  0.77825  1.0000
  H   H3398     1.0  0.15705  0.73781  0.63702  1.0000
  H   H3399     1.0  0.13393  0.65439  0.68529  1.0000
  H   H3400     1.0  0.12225  0.74261  0.62717  1.0000
  H   H3401     1.0  0.23070  0.81019  0.62514  1.0000
  H   H3402     1.0  0.11516  0.76733  0.60923  1.0000
  H   H3403     1.0  0.01034  0.69062  0.64588  1.0000
  C   C1910     1.0  0.44546  0.76223  0.78064  1.0000
  H   H3404     1.0  0.34927  0.67223  0.77289  1.0000
  C   C1911     1.0  0.14023  0.80512  0.70787  1.0000
  C   C1912     1.0  0.19039  0.79385  0.67587  1.0000
  C   C1913     1.0  0.25248  0.77791  0.64352  1.0000
  H   H3405     1.0  0.16478  0.75827  0.75471  1.0000
  H   H3406     1.0  0.21284  0.80461  0.74590  1.0000
  C   C1914     1.0  0.08920  0.75567  0.63796  1.0000
  Fe  Fe224     1.0  0.03820  0.71351  0.62200  1.0000
  H   H3407     1.0  0.08885  0.74516  0.64671  1.0000
  H   H3408     1.0  0.12982  0.83259  0.70830  1.0000
  H   H3409     1.0  0.07644  0.75678  0.61143  1.0000
  C   C1915     1.0  0.10509  0.76434  0.63565  1.0000
  H   H3410     1.0  0.12658  0.86046  0.69805  1.0000
  H   H3411     1.0  0.12719  0.67714  0.67838  1.0000
  C   C1916     1.0  0.14239  0.83029  0.68857  1.0000
  H   H3412     1.0  0.14725  0.89210  0.68952  1.0000
  S   S444      1.0  0.07353  0.65605  0.61094  1.0000
  H   H3413     1.0  0.32103  0.75641  0.74917  1.0000
  H   H3414     1.0  0.10855  0.92122  0.62345  1.0000
  C   C1917     1.0  0.13967  0.77118  0.63586  1.0000
  H   H3415     1.0  0.10381  0.77610  0.62777  1.0000
  H   H3416     1.0  0.15835  0.66797  0.67722  1.0000
  H   H3417     1.0  0.03439  0.54374  0.59146  1.0000
  H   H3418     1.0  0.11423  0.69459  0.63612  1.0000
  H   H3419     1.0  0.10674  0.85102  0.69030  1.0000
  H   H3420     1.0  0.13441  0.75061  0.60572  1.0000
  C   C1918     1.0  0.08183  0.78312  0.60449  1.0000
  H   H3421     1.0  0.30217  0.97386  0.63885  1.0000
  H   H3422     1.0  0.20377  0.81557  0.66925  1.0000
  H   H3423     1.0  0.16841  0.77035  0.63381  1.0000
  C   C1919     1.0  0.20197  0.81504  0.63296  1.0000
  C   C1920     1.0  0.12990  0.76489  0.60573  1.0000
  H   H3424     1.0  0.01908  0.69747  0.65659  1.0000
  C   C1921     1.0  0.23539  0.83726  0.63508  1.0000
  S   S445      1.0  0.08999  0.69744  0.61532  1.0000
  H   H3425     1.0  0.21090  0.83203  0.64798  1.0000
  H   H3426     1.0  0.19062  0.81413  0.65896  1.0000
  Fe  Fe225     1.0  0.08207  0.82421  0.61379  1.0000
  H   H3427     1.0  0.14574  0.86671  0.63200  1.0000
  H   H3428     1.0  0.14016  0.91878  0.62456  1.0000
  H   H3429     1.0  0.40653  0.73034  0.77588  1.0000
  C   C1922     1.0  0.13371  0.88814  0.64180  1.0000
  H   H3430     1.0  0.44020  0.70005  0.76634  1.0000
  H   H3431     1.0  0.24416  0.77007  0.65142  1.0000
  Fe  Fe226     1.0  0.06879  0.68365  0.61474  1.0000
  H   H3432     1.0  0.42509  0.78582  0.76239  1.0000
  H   H3433     1.0  0.17817  0.80165  0.68107  1.0000
  H   H3434     1.0  0.19227  0.80857  0.64073  1.0000
  H   H3435     1.0  0.29597  0.85171  0.69038  1.0000
  C   C1923     1.0  0.13882  0.77096  0.61413  1.0000
  H   H3436     1.0  0.27426  0.77101  0.65359  1.0000
  S   S446      1.0  0.07618  0.85293  0.61485  1.0000
  H   H3437     1.0  0.04234  0.76807  0.66838  1.0000
  H   H3438     1.0  0.21561  0.86223  0.63552  1.0000
  H   H3439     1.0  0.23118  0.85753  0.64580  1.0000
  H   H3440     1.0  0.46711  0.77134  0.76562  1.0000
  N   N106      1.0  0.22743  0.80630  0.64543  1.0000
  C   C1924     1.0  0.23871  0.60785  0.76849  1.0000
  H   H3441     1.0  0.02492  0.80385  0.64415  1.0000
  C   C1925     1.0  0.21746  0.79593  0.65747  1.0000
  H   H3442     1.0  0.24427  0.78815  0.74448  1.0000
  H   H3443     1.0  0.40927  0.88784  0.59482  1.0000
  H   H3444     1.0  0.24361  0.86058  0.75208  1.0000
  H   H3445     1.0  0.13130  0.78478  0.61466  1.0000
  H   H3446     1.0  0.07230  0.62399  0.60450  1.0000
  H   H3447     1.0  0.25059  0.91887  0.72616  1.0000
  H   H3448     1.0  0.20415  0.96545  0.62725  1.0000
  H   H3449     1.0  0.21284  0.86434  0.74971  1.0000
  S   S447      1.0  0.34251  0.72511  0.77374  1.0000
  C   C1926     1.0  0.02874  0.77690  0.64247  1.0000
  C   C1927     1.0  0.43163  0.70896  0.75977  1.0000
  S   S448      1.0  0.09026  0.81628  0.59491  1.0000
  N   N107      1.0  0.27450  0.86495  0.73157  1.0000
  H   H3450     1.0  0.41709  0.76246  0.75693  1.0000
  C   C1928     1.0  0.00726  0.69263  0.61959  1.0000
  C   C1929     1.0  0.18304  0.88245  0.60640  1.0000
  C   C1930     1.0  0.33256  0.88339  0.58849  1.0000
  C   C1931     1.0  0.11440  0.93319  0.62075  1.0000
  C   C1932     1.0  0.22163  0.98278  0.62640  1.0000
  C   C1933     1.0  0.15596  0.78025  0.63214  1.0000
  H   H3451     1.0  0.30790  0.86379  0.69550  1.0000
  H   H3452     1.0  0.08374  0.84006  0.68467  1.0000
  H   H3453     1.0  0.15974  0.68613  0.68313  1.0000
  H   H3454     1.0  0.17022  0.84489  0.73643  1.0000
  H   H3455     1.0  0.15197  0.67031  0.70519  1.0000
  H   H3456     1.0  0.20644  0.96674  0.64250  1.0000
  N   N108      1.0  0.24934  0.70143  0.72074  1.0000
  C   C1934     1.0  0.24442  0.72089  0.72106  1.0000
  C   C1935     1.0  0.23732  0.69729  0.71396  1.0000
  C   C1936     1.0  0.24608  0.69109  0.73430  1.0000
  C   C1937     1.0  0.26889  0.69553  0.71482  1.0000
  C   C1938     1.0  0.27562  0.70571  0.70127  1.0000
  C   C1939     1.0  0.25593  0.72708  0.72754  1.0000
  C   C1940     1.0  0.24773  0.67081  0.73614  1.0000
  C   C1941     1.0  0.23111  0.71167  0.70270  1.0000
  C   C1942     1.0  0.22339  0.70386  0.69489  1.0000
  C   C1943     1.0  0.29600  0.70014  0.69706  1.0000
  C   C1944     1.0  0.24948  0.74685  0.72744  1.0000
  C   C1945     1.0  0.24394  0.66194  0.75017  1.0000
  H   H3457     1.0  0.23005  0.72451  0.72588  1.0000
  H   H3458     1.0  0.24532  0.72943  0.71141  1.0000
  H   H3459     1.0  0.24376  0.68470  0.71063  1.0000
  H   H3460     1.0  0.22453  0.69486  0.72063  1.0000
  H   H3461     1.0  0.23246  0.69663  0.73954  1.0000
  H   H3462     1.0  0.25569  0.69241  0.73944  1.0000
  H   H3463     1.0  0.27758  0.69603  0.72097  1.0000
  H   H3464     1.0  0.27191  0.68139  0.71420  1.0000
  H   H3465     1.0  0.27238  0.72017  0.70067  1.0000
  H   H3466     1.0  0.26961  0.70271  0.69445  1.0000
  H   H3467     1.0  0.25514  0.72002  0.73754  1.0000
  H   H3468     1.0  0.27019  0.72487  0.72248  1.0000
  H   H3469     1.0  0.26149  0.66432  0.73192  1.0000
  H   H3470     1.0  0.23805  0.66800  0.73179  1.0000
  H   H3471     1.0  0.22041  0.72244  0.70636  1.0000
  H   H3472     1.0  0.24209  0.71778  0.69624  1.0000
  H   H3473     1.0  0.21804  0.71455  0.68740  1.0000
  H   H3474     1.0  0.23400  0.69398  0.69022  1.0000
  H   H3475     1.0  0.21228  0.69746  0.70094  1.0000
  H   H3476     1.0  0.30002  0.68578  0.69694  1.0000
  H   H3477     1.0  0.30041  0.70777  0.68734  1.0000
  H   H3478     1.0  0.30290  0.70292  0.70347  1.0000
  H   H3479     1.0  0.25008  0.75465  0.71757  1.0000
  H   H3480     1.0  0.23548  0.74955  0.73300  1.0000
  H   H3481     1.0  0.25821  0.75114  0.73176  1.0000
  H   H3482     1.0  0.25325  0.66441  0.75503  1.0000
  H   H3483     1.0  0.22985  0.66708  0.75473  1.0000
  H   H3484     1.0  0.24595  0.64740  0.75128  1.0000
  N   N109      1.0  0.23922  0.91618  0.67030  1.0000
  C   C1946     1.0  0.22713  0.91390  0.68333  1.0000
  C   C1947     1.0  0.23525  0.93529  0.66318  1.0000
  C   C1948     1.0  0.23490  0.90479  0.66323  1.0000
  C   C1949     1.0  0.25889  0.90995  0.67076  1.0000
  C   C1950     1.0  0.26571  0.91807  0.67914  1.0000
  C   C1951     1.0  0.22910  0.89466  0.69142  1.0000
  C   C1952     1.0  0.24347  0.90727  0.64887  1.0000
  C   C1953     1.0  0.23035  0.94994  0.67095  1.0000
  H   H3485     1.0  0.44585  0.75567  0.76299  1.0000
  C   C1954     1.0  0.28462  0.90825  0.68087  1.0000
  C   C1955     1.0  0.21795  0.89420  0.70489  1.0000
  C   C1956     1.0  0.23908  0.89407  0.64319  1.0000
  H   H3486     1.0  0.21282  0.91877  0.68247  1.0000
  H   H3487     1.0  0.22893  0.92232  0.68904  1.0000
  H   H3488     1.0  0.24671  0.93795  0.65512  1.0000
  H   H3489     1.0  0.22349  0.93779  0.65878  1.0000
  H   H3490     1.0  0.22007  0.90712  0.66423  1.0000
  H   H3491     1.0  0.23931  0.89046  0.66740  1.0000
  H   H3492     1.0  0.26239  0.89525  0.67379  1.0000
  H   H3493     1.0  0.26746  0.91284  0.66111  1.0000
  H   H3494     1.0  0.25706  0.91748  0.68873  1.0000
  H   H3495     1.0  0.26647  0.93203  0.67450  1.0000
  H   H3496     1.0  0.22425  0.88621  0.68727  1.0000
  H   H3497     1.0  0.24326  0.88862  0.69210  1.0000
  H   H3498     1.0  0.25827  0.90502  0.64716  1.0000
  H   H3499     1.0  0.23838  0.92080  0.64362  1.0000
  H   H3500     1.0  0.08779  0.85432  0.66905  1.0000
  H   H3501     1.0  0.23918  0.94740  0.67764  1.0000
  H   H3502     1.0  0.30353  0.65342  0.77831  1.0000
  C   C1957     1.0  0.06790  0.63502  0.59720  1.0000
  C   C1958     1.0  0.08044  0.76657  0.60315  1.0000
  H   H3503     1.0  0.28894  0.91413  0.68714  1.0000
  H   H3504     1.0  0.28498  0.89399  0.68519  1.0000
  H   H3505     1.0  0.29431  0.90949  0.67163  1.0000
  H   H3506     1.0  0.22279  0.90164  0.70986  1.0000
  H   H3507     1.0  0.20355  0.90003  0.70476  1.0000
  H   H3508     1.0  0.21910  0.88022  0.71022  1.0000
  H   H3509     1.0  0.22442  0.89682  0.64360  1.0000
  H   H3510     1.0  0.24636  0.89510  0.63315  1.0000
  H   H3511     1.0  0.24338  0.88031  0.64840  1.0000
  N   N110      1.0  0.12831  0.67203  0.69821  1.0000
  C   C1959     1.0  0.11844  0.66284  0.71071  1.0000
  C   C1960     1.0  0.12452  0.66695  0.68727  1.0000
  C   C1961     1.0  0.12386  0.69190  0.69673  1.0000
  C   C1962     1.0  0.10374  0.70113  0.69810  1.0000
  C   C1963     1.0  0.12138  0.66665  0.72277  1.0000
  C   C1964     1.0  0.10556  0.66353  0.68882  1.0000
  C   C1965     1.0  0.10288  0.66147  0.67635  1.0000
  C   C1966     1.0  0.10078  0.72066  0.69844  1.0000
  C   C1967     1.0  0.10966  0.65773  0.73471  1.0000
  H   H3512     1.0  0.12235  0.64820  0.71147  1.0000
  H   H3513     1.0  0.10373  0.66627  0.71132  1.0000
  H   H3514     1.0  0.12945  0.69573  0.70346  1.0000
  H   H3515     1.0  0.13068  0.69821  0.68721  1.0000
  H   H3516     1.0  0.09536  0.69492  0.70692  1.0000
  H   H3517     1.0  0.09885  0.70077  0.68982  1.0000
  H   H3518     1.0  0.11786  0.68108  0.72255  1.0000
  H   H3519     1.0  0.10395  0.65102  0.69589  1.0000
  H   H3520     1.0  0.09467  0.67434  0.69203  1.0000
  H   H3521     1.0  0.08932  0.65885  0.67772  1.0000
  H   H3522     1.0  0.10388  0.67381  0.66899  1.0000
  H   H3523     1.0  0.11310  0.65026  0.67294  1.0000
  H   H3524     1.0  0.10541  0.72201  0.70657  1.0000
  H   H3525     1.0  0.10811  0.72792  0.68953  1.0000
  H   H3526     1.0  0.08626  0.72692  0.69945  1.0000
  H   H3527     1.0  0.11289  0.64314  0.73556  1.0000
  H   H3528     1.0  0.11219  0.66048  0.74319  1.0000
  H   H3529     1.0  0.09519  0.66299  0.73455  1.0000
  H   H3530     1.0  0.20603  0.76697  0.74995  1.0000
  S   S449      1.0  0.27417  0.68043  0.77015  1.0000
  N   N111      1.0  0.01944  0.78827  0.66337  1.0000
  H   H3531     1.0  0.13881  0.90178  0.58761  1.0000
  H   H3532     1.0  0.23238  0.98200  0.63126  1.0000
  C   C1968     1.0  0.26632  0.89643  0.71770  1.0000
  C   C1969     1.0  0.30293  0.84648  0.75798  1.0000
  H   H3533     1.0  0.17490  0.84666  0.75085  1.0000
  C   C1970     1.0  0.28366  0.85750  0.70897  1.0000
  C   C1971     1.0  0.30022  0.85308  0.69865  1.0000
  N   N112      1.0  0.01474  0.78010  0.59647  1.0000
  H   H3534     1.0  0.21290  0.77410  0.72542  1.0000
  H   H3535     1.0  0.23842  0.86464  0.62892  1.0000
  C   C1972     1.0  0.02271  0.79416  0.59824  1.0000
  H   H3536     1.0  0.25265  0.86546  0.72299  1.0000
  H   H3537     1.0  0.20026  0.85818  0.61428  1.0000
  H   H3538     1.0  0.15430  0.94943  0.59350  1.0000
  H   H3539     1.0  0.42073  0.73635  0.75342  1.0000
  C   C1973     1.0  0.25706  0.86020  0.73212  1.0000
  C   C1974     1.0  0.38902  0.68985  0.77769  1.0000
  H   H3540     1.0  0.22466  0.95431  0.63271  1.0000
  H   H3541     1.0  0.11083  0.93924  0.62915  1.0000
  H   H3542     1.0  0.27733  0.89460  0.70932  1.0000
  H   H3543     1.0  0.14824  0.77274  0.58786  1.0000
  C   C1975     1.0  0.40170  0.90088  0.59045  1.0000
  H   H3544     1.0  0.35067  0.76610  0.74120  1.0000
  C   C1976     1.0  0.17872  0.83856  0.74355  1.0000
  H   H3545     1.0  0.27579  0.84712  0.71101  1.0000
  H   H3546     1.0  0.27530  0.87021  0.70507  1.0000
  H   H3547     1.0  0.15516  0.79048  0.75216  1.0000
  C   C1977     1.0  0.02739  0.77003  0.67028  1.0000
  Fe  Fe227     1.0  0.24612  0.69653  0.77477  1.0000
  C   C1978     1.0  0.17835  0.98305  0.66207  1.0000
  H   H3548     1.0  0.19206  0.81197  0.73243  1.0000
  C   C1979     1.0  0.39873  0.79630  0.75860  1.0000
  C   C1980     1.0  0.23305  0.78133  0.74951  1.0000
  C   C1981     1.0  0.46489  0.76445  0.77576  1.0000
  H   H3549     1.0  0.23273  0.83689  0.62597  1.0000
  S   S450      1.0  0.19947  0.72585  0.78313  1.0000
  H   H3550     1.0  0.34863  0.77117  0.72488  1.0000
  C   C1982     1.0  0.16106  0.67158  0.68528  1.0000
  H   H3551     1.0  0.01655  0.52737  0.58847  1.0000
  H   H3552     1.0  0.21635  0.95065  0.67659  1.0000
  C   C1983     1.0  0.15638  0.74528  0.62715  1.0000
  C   C1984     1.0  0.13116  0.82377  0.70186  1.0000
  C   C1985     1.0  0.02956  0.79045  0.64976  1.0000
  H   H3553     1.0  0.31690  0.84637  0.75823  1.0000
  C   C1986     1.0  0.29930  0.85594  0.74484  1.0000
  H   H3554     1.0  0.10397  0.76902  0.64429  1.0000
  H   H3555     1.0  0.14024  0.76896  0.77200  1.0000
  C   C1987     1.0  0.30137  0.98790  0.63521  1.0000
  H   H3556     1.0  0.22037  0.86574  0.73288  1.0000
  H   H3557     1.0  0.22059  0.59069  0.77860  1.0000
  S   S451      1.0  0.10031  0.81515  0.62748  1.0000
  H   H3558     1.0  0.39746  0.67885  0.77359  1.0000
  C   C1988     1.0  0.22974  0.85657  0.63645  1.0000
  H   H3559     1.0  0.19304  0.83838  0.73881  1.0000
  H   H3560     1.0  0.20063  0.75932  0.71485  1.0000
  H   H3561     1.0  0.15164  0.65083  0.70055  1.0000
  H   H3562     1.0  0.03095  0.51177  0.59777  1.0000
  H   H3563     1.0  0.23723  0.88094  0.74097  1.0000
  C   C1989     1.0  0.24807  0.90925  0.59814  1.0000
  H   H3564     1.0  0.03201  0.79448  0.62378  1.0000
  H   H3565     1.0  0.18418  0.77927  0.71025  1.0000
  H   H3566     1.0  0.25699  0.99058  0.67151  1.0000
  C   C1990     1.0  0.27158  0.98762  0.66723  1.0000
  H   H3567     1.0  0.19420  0.88949  0.60374  1.0000
  C   C1991     1.0  0.24079  0.86627  0.74247  1.0000
  H   H3568     1.0  0.20768  0.77806  0.70357  1.0000
  C   C1992     1.0  0.37286  0.69881  0.77387  1.0000
  H   H3569     1.0  0.15224  0.78715  0.65025  1.0000
  H   H3570     1.0  0.32304  0.98831  0.64319  1.0000
  H   H3571     1.0  0.34214  0.88883  0.59121  1.0000
  C   C1993     1.0  0.27987  0.85614  0.74414  1.0000
  H   H3572     1.0  0.29353  0.85333  0.76536  1.0000
  C   C1994     1.0  0.00490  0.85205  0.60802  1.0000
  Fe  Fe228     1.0  0.07315  0.72208  0.60557  1.0000
  H   H3573     1.0  0.23481  0.60961  0.75936  1.0000
  H   H3574     1.0  0.39911  0.81008  0.75850  1.0000
  H   H3575     1.0  0.15692  0.76702  0.78095  1.0000
  C   C1995     1.0  0.28911  0.85773  0.72123  1.0000
  H   H3576     1.0  0.19772  0.78141  0.76060  1.0000
  H   H3577     1.0  0.22749  0.98199  0.61638  1.0000
  H   H3578     1.0  0.22715  0.84531  0.74383  1.0000
  H   H3579     1.0  0.25008  0.83311  0.63466  1.0000
  H   H3580     1.0  0.36769  0.75514  0.72987  1.0000
  H   H3581     1.0  0.22969  0.82536  0.65501  1.0000
  N   N113      1.0  0.13507  0.84868  0.68161  1.0000
  C   C1996     1.0  0.14635  0.85151  0.66835  1.0000
  C   C1997     1.0  0.13581  0.86204  0.68859  1.0000
  C   C1998     1.0  0.13046  0.88183  0.68199  1.0000
  C   C1999     1.0  0.16598  0.85268  0.66720  1.0000
  C   C2000     1.0  0.17598  0.85567  0.65339  1.0000
  C   C2001     1.0  0.13288  0.89414  0.68936  1.0000
  H   H3582     1.0  0.15601  0.82947  0.68998  1.0000
  H   H3583     1.0  0.14434  0.82030  0.68280  1.0000
  H   H3584     1.0  0.14713  0.84056  0.66376  1.0000
  H   H3585     1.0  0.13989  0.86368  0.66235  1.0000
  H   H3586     1.0  0.14939  0.85960  0.69063  1.0000
  H   H3587     1.0  0.11123  0.86413  0.67481  1.0000
  H   H3588     1.0  0.11952  0.83798  0.66507  1.0000
  H   H3589     1.0  0.11613  0.88541  0.68133  1.0000
  H   H3590     1.0  0.13869  0.88479  0.67230  1.0000
  H   H3591     1.0  0.16645  0.86387  0.67102  1.0000
  H   H3592     1.0  0.17347  0.84028  0.67236  1.0000
  H   H3593     1.0  0.16895  0.86785  0.64775  1.0000
  H   H3594     1.0  0.18963  0.85740  0.65285  1.0000
  H   H3595     1.0  0.17699  0.84427  0.64924  1.0000
  H   H3596     1.0  0.12489  0.89183  0.69922  1.0000
  H   H3597     1.0  0.12827  0.90815  0.68466  1.0000
  H   H3598     1.0  0.28116  0.77733  0.63652  1.0000
  N   N114      1.0  0.18387  0.78833  0.74503  1.0000
  C   C2002     1.0  0.18048  0.80812  0.73985  1.0000
  C   C2003     1.0  0.18454  0.77927  0.73469  1.0000
  C   C2004     1.0  0.16794  0.78439  0.75553  1.0000
  C   C2005     1.0  0.20073  0.78125  0.75033  1.0000
  C   C2006     1.0  0.21645  0.79103  0.74409  1.0000
  C   C2007     1.0  0.17603  0.81972  0.74980  1.0000
  S   S452      1.0  0.08415  0.74189  0.58881  1.0000
  C   C2008     1.0  0.19991  0.78148  0.72288  1.0000
  C   C2009     1.0  0.19783  0.77402  0.71232  1.0000
  H   H3599     1.0  0.25321  0.60806  0.76649  1.0000
  C   C2010     1.0  0.06066  0.66657  0.58881  1.0000
  H   H3600     1.0  0.25794  0.92426  0.70920  1.0000
  S   S453      1.0  0.34947  0.95287  0.59402  1.0000
  H   H3601     1.0  0.27838  0.84212  0.74694  1.0000
  H   H3602     1.0  0.25641  0.90317  0.59043  1.0000
  H   H3603     1.0  0.40276  0.79440  0.74870  1.0000
  H   H3604     1.0  0.13143  0.64438  0.61151  1.0000
  C   C2011     1.0  0.02047  0.76566  0.68487  1.0000
  H   H3605     1.0  0.11019  0.65994  0.61236  1.0000
  H   H3606     1.0  0.03481  0.82787  0.67435  1.0000
  H   H3607     1.0  0.36886  0.69477  0.76679  1.0000
  H   H3608     1.0  0.01467  0.77699  0.64259  1.0000
  H   H3609     1.0  0.43663  0.77559  0.77991  1.0000
  H   H3610     1.0  0.22746  0.89457  0.60167  1.0000
  H   H3611     1.0  0.30150  0.83250  0.76019  1.0000
  C   C2012     1.0  0.27569  0.65792  0.77760  1.0000
  H   H3612     1.0  0.04504  0.74698  0.68890  1.0000
  C   C2013     1.0  0.16870  0.94279  0.59223  1.0000
  H   H3613     1.0  0.38469  0.79458  0.76262  1.0000
  C   C2014     1.0  0.13360  0.77515  0.59202  1.0000
  C   C2015     1.0  0.41142  0.78319  0.76667  1.0000
  H   H3614     1.0  0.09743  0.67212  0.59115  1.0000
  H   H3615     1.0  0.05226  0.81046  0.59197  1.0000
  Fe  Fe229     1.0  0.22599  0.73142  0.78244  1.0000
  C   C2016     1.0  0.16380  0.90883  0.58767  1.0000
  C   C2017     1.0  0.02420  0.82026  0.66104  1.0000
  C   C2018     1.0  0.02676  0.51470  0.58858  1.0000
  H   H3616     1.0  0.40707  0.78615  0.77625  1.0000
  H   H3617     1.0  0.19337  0.94861  0.59374  1.0000
  H   H3618     1.0  0.02844  0.73693  0.68678  1.0000
  H   H3619     1.0  0.02523  0.74140  0.59690  1.0000
  C   C2019     1.0  0.03975  0.81889  0.58917  1.0000
  Fe  Fe230     1.0  0.34744  0.78130  0.78492  1.0000
  C   C2020     1.0  0.36225  0.71336  0.77890  1.0000
  H   H3620     1.0  0.31030  0.68667  0.78435  1.0000
  H   H3621     1.0  0.27488  0.52622  0.78503  1.0000
  C   C2021     1.0  0.02437  0.75130  0.58787  1.0000
  C   C2022     1.0  0.06407  0.63174  0.58657  1.0000
  H   H3622     1.0  0.00205  0.50017  0.60891  1.0000
  H   H3623     1.0  0.12685  0.77071  0.58632  1.0000
  H   H3624     1.0  0.00269  0.75851  0.60859  1.0000
  H   H3625     1.0  0.01093  0.68086  0.58578  1.0000
  H   H3626     1.0  0.13619  0.64965  0.58827  1.0000
  H   H3627     1.0  0.11570  0.68232  0.58725  1.0000
  H   H3628     1.0  0.06551  0.61827  0.58575  1.0000
  C   C2023     1.0  0.11179  0.67064  0.58617  1.0000
  N   N115      1.0  0.07414  0.49981  0.96298  1.0000
  Fe  Fe231     1.0  0.03272  0.55972  0.96202  1.0000
  S   S454      1.0  0.04057  0.56622  0.94083  1.0000
  S   S455      1.0  0.02225  0.53565  0.97335  1.0000
  Fe  Fe232     1.0  0.04222  0.59243  0.96499  1.0000
  C   C2024     1.0  0.46934  0.71317  0.83555  1.0000
  Fe  Fe233     1.0  0.06437  0.57314  0.94405  1.0000
  S   S456      1.0  0.09226  0.56130  0.93437  1.0000
  H   H3629     1.0  0.17254  0.65452  0.85637  1.0000
  S   S457      1.0  0.05753  0.56447  0.96526  1.0000
  Fe  Fe234     1.0  0.40332  0.95417  0.90777  1.0000
  S   S458      1.0  0.38547  0.93516  0.91875  1.0000
  Fe  Fe235     1.0  0.43635  0.92461  0.90455  1.0000
  S   S459      1.0  0.42153  0.90306  0.91507  1.0000
  S   S460      1.0  0.46559  0.92031  0.89558  1.0000
  Fe  Fe236     1.0  0.40023  0.91868  0.90415  1.0000
  S   S461      1.0  0.38665  0.91035  0.89194  1.0000
  Fe  Fe237     1.0  0.40831  0.92127  0.92869  1.0000
  S   S462      1.0  0.41636  0.93882  0.89261  1.0000
  S   S463      1.0  0.42486  0.94167  0.91882  1.0000
  Fe  Fe238     1.0  0.18180  0.59534  0.84693  1.0000
  S   S464      1.0  0.17460  0.61171  0.86161  1.0000
  Fe  Fe239     1.0  0.18192  0.56083  0.86665  1.0000
  S   S465      1.0  0.17524  0.57433  0.88292  1.0000
  H   H3630     1.0  0.34005  0.53353  0.85715  1.0000
  Fe  Fe240     1.0  0.15531  0.59403  0.87243  1.0000
  S   S466      1.0  0.12676  0.60514  0.88161  1.0000
  Fe  Fe241     1.0  0.19509  0.59068  0.87077  1.0000
  S   S467      1.0  0.21419  0.59799  0.87915  1.0000
  S   S468      1.0  0.16066  0.57942  0.85688  1.0000
  S   S469      1.0  0.20362  0.57542  0.85545  1.0000
  C   C2025     1.0  0.40734  0.92029  0.97106  1.0000
  H   H3631     1.0  0.22022  0.55083  0.82170  1.0000
  H   H3632     1.0  0.46137  0.97735  0.96635  1.0000
  H   H3633     1.0  0.45462  0.80826  0.79084  1.0000
  Fe  Fe242     1.0  0.39211  0.65968  0.83609  1.0000
  S   S470      1.0  0.41827  0.65290  0.82268  1.0000
  S   S471      1.0  0.37267  0.64134  0.84356  1.0000
  Fe  Fe243     1.0  0.39835  0.69559  0.83580  1.0000
  S   S472      1.0  0.42492  0.69199  0.82209  1.0000
  S   S473      1.0  0.38504  0.72142  0.84197  1.0000
  Fe  Fe244     1.0  0.41112  0.68078  0.81206  1.0000
  H   H3634     1.0  0.20605  0.49230  0.86404  1.0000
  Fe  Fe245     1.0  0.42993  0.66437  0.83390  1.0000
  S   S474      1.0  0.45652  0.65011  0.83923  1.0000
  S   S475      1.0  0.38399  0.68684  0.82458  1.0000
  S   S476      1.0  0.40427  0.66877  0.84855  1.0000
  H   H3635     1.0  0.49303  0.84548  0.92792  1.0000
  S   S477      1.0  0.30924  0.60574  0.81690  1.0000
  H   H3636     1.0  0.48267  0.72761  0.87447  1.0000
  H   H3637     1.0  0.05350  0.65132  0.94001  1.0000
  S   S478      1.0  0.33612  0.56939  0.82863  1.0000
  C   C2026     1.0  0.40400  0.98796  0.92137  1.0000
  Fe  Fe246     1.0  0.30737  0.58331  0.83379  1.0000
  S   S479      1.0  0.29686  0.58854  0.85344  1.0000
  Fe  Fe247     1.0  0.33731  0.59074  0.81101  1.0000
  S   S480      1.0  0.35943  0.60608  0.80372  1.0000
  H   H3638     1.0  0.10654  0.57518  0.96835  1.0000
  H   H3639     1.0  0.44852  0.87717  0.93125  1.0000
  H   H3640     1.0  0.45036  0.60629  0.80250  1.0000
  S   S481      1.0  0.39442  0.98365  0.90093  1.0000
  C   C2027     1.0  0.06308  0.49196  0.97547  1.0000
  C   C2028     1.0  0.41887  0.73512  0.79972  1.0000
  C   C2029     1.0  0.23170  0.51728  0.85251  1.0000
  S   S482      1.0  0.37144  0.78374  0.79136  1.0000
  C   C2030     1.0  0.30410  0.69371  0.79224  1.0000
  H   H3641     1.0  0.21373  0.56966  0.79502  1.0000
  H   H3642     1.0  0.48474  0.96795  0.96417  1.0000
  S   S483      1.0  0.33154  0.76043  0.79573  1.0000
  H   H3643     1.0  0.27067  0.51028  0.79965  1.0000
  H   H3644     1.0  0.38766  0.95149  0.87793  1.0000
  C   C2031     1.0  0.16254  0.52685  0.84404  1.0000
  Fe  Fe248     1.0  0.40897  0.82525  0.86285  1.0000
  S   S484      1.0  0.40810  0.84232  0.84338  1.0000
  S   S485      1.0  0.40850  0.83250  0.88119  1.0000
  Fe  Fe249     1.0  0.42154  0.79086  0.85287  1.0000
  S   S486      1.0  0.42276  0.80509  0.83259  1.0000
  S   S487      1.0  0.42960  0.76128  0.85957  1.0000
  Fe  Fe250     1.0  0.43455  0.82447  0.83729  1.0000
  S   S488      1.0  0.45931  0.83460  0.82577  1.0000
  Fe  Fe251     1.0  0.39613  0.82147  0.84030  1.0000
  S   S489      1.0  0.37249  0.82764  0.83072  1.0000
  S   S490      1.0  0.43602  0.80843  0.85672  1.0000
  S   S491      1.0  0.39436  0.80612  0.86052  1.0000
  H   H3645     1.0  0.44438  0.96972  0.91807  1.0000
  S   S492      1.0  0.39890  0.96712  0.98160  1.0000
  C   C2032     1.0  0.48445  0.85182  0.85145  1.0000
  C   C2033     1.0  0.46671  0.84950  0.85536  1.0000
  C   C2034     1.0  0.45874  0.84494  0.84730  1.0000
  C   C2035     1.0  0.46839  0.84277  0.83520  1.0000
  C   C2036     1.0  0.48583  0.84600  0.83100  1.0000
  H   H3646     1.0  0.45932  0.91467  0.97414  1.0000
  H   H3647     1.0  0.45924  0.85051  0.86483  1.0000
  H   H3648     1.0  0.44518  0.84281  0.85058  1.0000
  C   C2037     1.0  0.31381  0.49453  0.80164  1.0000
  H   H3649     1.0  0.36360  0.98414  0.88996  1.0000
  C   C2038     1.0  0.37110  0.79597  0.80246  1.0000
  C   C2039     1.0  0.38525  0.79092  0.80890  1.0000
  C   C2040     1.0  0.38579  0.80045  0.81758  1.0000
  C   C2041     1.0  0.37222  0.81525  0.81989  1.0000
  C   C2042     1.0  0.35801  0.82029  0.81348  1.0000
  C   C2043     1.0  0.35749  0.81074  0.80476  1.0000
  H   H3650     1.0  0.39584  0.77955  0.80724  1.0000
  H   H3651     1.0  0.39668  0.79628  0.82252  1.0000
  H   H3652     1.0  0.34750  0.83179  0.81514  1.0000
  H   H3653     1.0  0.34677  0.81503  0.79964  1.0000
  C   C2044     1.0  0.47476  0.65999  0.83050  1.0000
  C   C2045     1.0  0.47324  0.67301  0.81946  1.0000
  C   C2046     1.0  0.48694  0.68239  0.81349  1.0000
  N   N116      1.0  0.47070  0.93710  0.97265  1.0000
  H   H3654     1.0  0.10102  0.49369  0.86415  1.0000
  C   C2047     1.0  0.48739  0.76225  0.82386  1.0000
  H   H3655     1.0  0.46150  0.67590  0.81552  1.0000
  H   H3656     1.0  0.28156  0.50387  0.86935  1.0000
  H   H3657     1.0  0.25932  0.58559  0.82406  1.0000
  C   C2048     1.0  0.23587  0.58347  0.81853  1.0000
  H   H3658     1.0  0.27879  0.71176  0.79778  1.0000
  H   H3659     1.0  0.45925  0.85417  0.93549  1.0000
  C   C2049     1.0  0.10346  0.50732  0.86029  1.0000
  H   H3660     1.0  0.47107  0.74754  0.84828  1.0000
  H   H3661     1.0  0.21098  0.58183  0.80660  1.0000
  H   H3662     1.0  0.05260  0.50270  0.97940  1.0000
  C   C2050     1.0  0.47456  0.98101  0.97954  1.0000
  H   H3663     1.0  0.32325  0.92509  0.91760  1.0000
  C   C2051     1.0  0.46673  0.80053  0.80739  1.0000
  H   H3664     1.0  0.31196  0.70376  0.79104  1.0000
  C   C2052     1.0  0.39828  0.73203  0.84646  1.0000
  C   C2053     1.0  0.39753  0.75018  0.84152  1.0000
  C   C2054     1.0  0.40717  0.75920  0.84548  1.0000
  C   C2055     1.0  0.41733  0.75019  0.85461  1.0000
  C   C2056     1.0  0.41774  0.73217  0.85980  1.0000
  C   C2057     1.0  0.40845  0.72298  0.85559  1.0000
  H   H3665     1.0  0.38945  0.75735  0.83462  1.0000
  H   H3666     1.0  0.40652  0.77319  0.84160  1.0000
  H   H3667     1.0  0.42489  0.72549  0.86728  1.0000
  H   H3668     1.0  0.40862  0.70909  0.85972  1.0000
  C   C2058     1.0  0.36788  0.63282  0.83224  1.0000
  C   C2059     1.0  0.37553  0.63759  0.81935  1.0000
  C   C2060     1.0  0.37269  0.62949  0.81061  1.0000
  C   C2061     1.0  0.36200  0.61679  0.81469  1.0000
  C   C2062     1.0  0.35381  0.61253  0.82751  1.0000
  C   C2063     1.0  0.35681  0.62048  0.83626  1.0000
  H   H3669     1.0  0.38395  0.64725  0.81613  1.0000
  H   H3670     1.0  0.37894  0.63295  0.80069  1.0000
  H   H3671     1.0  0.34545  0.60285  0.83074  1.0000
  H   H3672     1.0  0.35077  0.61681  0.84621  1.0000
  C   C2064     1.0  0.18028  0.63935  0.82939  1.0000
  H   H3673     1.0  0.05623  0.49916  0.95153  1.0000
  C   C2065     1.0  0.20221  0.65245  0.80645  1.0000
  C   C2066     1.0  0.16977  0.53383  0.85126  1.0000
  C   C2067     1.0  0.26555  0.77531  0.79876  1.0000
  S   S493      1.0  0.40654  0.91029  0.94966  1.0000
  H   H3674     1.0  0.47208  0.69901  0.88181  1.0000
  H   H3675     1.0  0.15895  0.53495  0.83530  1.0000
  H   H3676     1.0  0.17206  0.54716  0.84793  1.0000
  H   H3677     1.0  0.30150  0.52735  0.83731  1.0000
  H   H3678     1.0  0.02093  0.51902  0.91138  1.0000
  H   H3679     1.0  0.46608  0.72671  0.88912  1.0000
  H   H3680     1.0  0.45828  0.65986  0.86389  1.0000
  H   H3681     1.0  0.06567  0.53258  0.92240  1.0000
  H   H3682     1.0  0.09131  0.62002  0.92446  1.0000
  H   H3683     1.0  0.10004  0.56452  0.95849  1.0000
  H   H3684     1.0  0.35830  0.93728  0.90328  1.0000
  H   H3685     1.0  0.20859  0.62573  0.80348  1.0000
  H   H3686     1.0  0.06999  0.52513  0.96795  1.0000
  C   C2068     1.0  0.23710  0.59474  0.87173  1.0000
  C   C2069     1.0  0.24349  0.58965  0.86006  1.0000
  C   C2070     1.0  0.26183  0.58799  0.85415  1.0000
  C   C2071     1.0  0.27379  0.59101  0.86012  1.0000
  C   C2072     1.0  0.26742  0.59566  0.87191  1.0000
  C   C2073     1.0  0.24915  0.59765  0.87765  1.0000
  H   H3687     1.0  0.23421  0.58734  0.85554  1.0000
  H   H3688     1.0  0.26677  0.58430  0.84507  1.0000
  H   H3689     1.0  0.27665  0.59786  0.87661  1.0000
  H   H3690     1.0  0.24433  0.60146  0.88672  1.0000
  H   H3691     1.0  0.44947  0.71112  0.88157  1.0000
  H   H3692     1.0  0.41255  0.72371  0.80121  1.0000
  H   H3693     1.0  0.44647  0.72999  0.82780  1.0000
  C   C2074     1.0  0.16055  0.50923  0.84787  1.0000
  C   C2075     1.0  0.40573  0.93273  0.97829  1.0000
  C   C2076     1.0  0.17194  0.50595  0.86654  1.0000
  H   H3694     1.0  0.11897  0.50473  0.87389  1.0000
  H   H3695     1.0  0.35435  0.96584  0.91732  1.0000
  C   C2077     1.0  0.45880  0.70092  0.84660  1.0000
  C   C2078     1.0  0.46672  0.71139  0.86256  1.0000
  C   C2079     1.0  0.17469  0.52332  0.86244  1.0000
  C   C2080     1.0  0.27840  0.52767  0.83086  1.0000
  H   H3696     1.0  0.48282  0.70563  0.83179  1.0000
  H   H3697     1.0  0.43818  0.65704  0.88531  1.0000
  C   C2081     1.0  0.47627  0.92314  0.90645  1.0000
  H   H3698     1.0  0.42123  0.75179  0.81144  1.0000
  C   C2082     1.0  0.47807  0.78244  0.80450  1.0000
  H   H3699     1.0  0.24717  0.55672  0.81699  1.0000
  C   C2083     1.0  0.47644  0.92277  0.92808  1.0000
  C   C2084     1.0  0.46845  0.91978  0.91937  1.0000
  H   H3700     1.0  0.46866  0.77337  0.80670  1.0000
  C   C2085     1.0  0.11136  0.56868  0.96013  1.0000
  H   H3701     1.0  0.47014  0.92031  0.93802  1.0000
  H   H3702     1.0  0.45625  0.91476  0.92271  1.0000
  C   C2086     1.0  0.39299  0.88870  0.88896  1.0000
  C   C2087     1.0  0.40260  0.87462  0.89661  1.0000
  C   C2088     1.0  0.40730  0.85751  0.89406  1.0000
  C   C2089     1.0  0.40274  0.85437  0.88372  1.0000
  C   C2090     1.0  0.39327  0.86849  0.87599  1.0000
  C   C2091     1.0  0.38817  0.88552  0.87874  1.0000
  H   H3703     1.0  0.40608  0.87684  0.90464  1.0000
  H   H3704     1.0  0.41446  0.84662  0.90016  1.0000
  H   H3705     1.0  0.38949  0.86616  0.86811  1.0000
  H   H3706     1.0  0.38058  0.89631  0.87284  1.0000
  C   C2092     1.0  0.41436  0.74103  0.81226  1.0000
  C   C2093     1.0  0.01520  0.55258  0.86344  1.0000
  C   C2094     1.0  0.31887  0.52246  0.80334  1.0000
  H   H3707     1.0  0.24763  0.53291  0.80951  1.0000
  C   C2095     1.0  0.37913  0.96297  0.87271  1.0000
  Fe  Fe252     1.0  0.32611  0.55507  0.81818  1.0000
  H   H3708     1.0  0.07620  0.59759  0.97270  1.0000
  H   H3709     1.0  0.27425  0.54222  0.82754  1.0000
  C   C2096     1.0  0.43261  0.66253  0.87663  1.0000
  S   S494      1.0  0.18918  0.60531  0.82575  1.0000
  C   C2097     1.0  0.10144  0.57354  0.91964  1.0000
  C   C2098     1.0  0.09159  0.58958  0.91392  1.0000
  C   C2099     1.0  0.09944  0.59919  0.90221  1.0000
  C   C2100     1.0  0.11717  0.59283  0.89622  1.0000
  C   C2101     1.0  0.12699  0.57685  0.90202  1.0000
  C   C2102     1.0  0.11914  0.56721  0.91368  1.0000
  H   H3710     1.0  0.07789  0.59455  0.91846  1.0000
  H   H3711     1.0  0.09177  0.61157  0.89776  1.0000
  H   H3712     1.0  0.14061  0.57182  0.89751  1.0000
  H   H3713     1.0  0.12684  0.55484  0.91810  1.0000
  C   C2103     1.0  0.50060  0.93168  0.91103  1.0000
  S   S495      1.0  0.41483  0.68461  0.79111  1.0000
  C   C2104     1.0  0.01499  0.50934  0.96594  1.0000
  C   C2105     1.0  0.01367  0.52753  0.96374  1.0000
  C   C2106     1.0  0.00631  0.53877  0.95364  1.0000
  H   H3714     1.0  0.46183  0.79987  0.81766  1.0000
  H   H3715     1.0  0.06962  0.65703  0.92559  1.0000
  H   H3716     1.0  0.01993  0.50086  0.97402  1.0000
  H   H3717     1.0  0.43360  0.73023  0.79717  1.0000
  N   N117      1.0  0.11250  0.54236  0.87509  1.0000
  C   C2107     1.0  0.11935  0.55893  0.86784  1.0000
  C   C2108     1.0  0.12591  0.52975  0.88255  1.0000
  C   C2109     1.0  0.11075  0.53322  0.86545  1.0000
  C   C2110     1.0  0.09420  0.54654  0.88357  1.0000
  C   C2111     1.0  0.09236  0.55746  0.89349  1.0000
  C   C2112     1.0  0.10674  0.57315  0.85987  1.0000
  C   C2113     1.0  0.10715  0.51414  0.87060  1.0000
  C   C2114     1.0  0.13623  0.53802  0.88859  1.0000
  C   C2115     1.0  0.14644  0.52395  0.89785  1.0000
  C   C2116     1.0  0.07259  0.56455  0.89901  1.0000
  C   C2117     1.0  0.11498  0.58928  0.85303  1.0000
  H   H3718     1.0  0.48042  0.75249  0.82295  1.0000
  H   H3719     1.0  0.13257  0.55528  0.86138  1.0000
  H   H3720     1.0  0.12216  0.56580  0.87421  1.0000
  H   H3721     1.0  0.11928  0.51992  0.89014  1.0000
  H   H3722     1.0  0.13666  0.52186  0.87632  1.0000
  H   H3723     1.0  0.12321  0.53227  0.85783  1.0000
  H   H3724     1.0  0.09966  0.54112  0.86062  1.0000
  H   H3725     1.0  0.08393  0.55346  0.87777  1.0000
  H   H3726     1.0  0.08977  0.53414  0.88912  1.0000
  H   H3727     1.0  0.09875  0.56903  0.88946  1.0000
  H   H3728     1.0  0.09844  0.54882  0.90149  1.0000
  H   H3729     1.0  0.10420  0.56788  0.85251  1.0000
  H   H3730     1.0  0.09372  0.57794  0.86603  1.0000
  H   H3731     1.0  0.09535  0.51364  0.87859  1.0000
  C   C2118     1.0  0.02488  0.54472  0.91079  1.0000
  H   H3732     1.0  0.14617  0.54466  0.88110  1.0000
  H   H3733     1.0  0.12715  0.54799  0.89377  1.0000
  H   H3734     1.0  0.15597  0.51360  0.89304  1.0000
  H   H3735     1.0  0.15427  0.53027  0.90154  1.0000
  H   H3736     1.0  0.13695  0.51769  0.90597  1.0000
  H   H3737     1.0  0.07149  0.57063  0.90705  1.0000
  H   H3738     1.0  0.06627  0.57484  0.89171  1.0000
  H   H3739     1.0  0.06513  0.55369  0.90257  1.0000
  H   H3740     1.0  0.11776  0.59533  0.85992  1.0000
  H   H3741     1.0  0.12765  0.58545  0.84619  1.0000
  H   H3742     1.0  0.10548  0.59943  0.84771  1.0000
  H   H3743     1.0  0.21862  0.54132  0.80927  1.0000
  H   H3744     1.0  0.44902  0.96755  0.90189  1.0000
  C   C2119     1.0  0.47729  0.87155  0.92384  1.0000
  N   N118      1.0  0.28730  0.53014  0.86311  1.0000
  C   C2120     1.0  0.30350  0.53851  0.85798  1.0000
  C   C2121     1.0  0.27790  0.53255  0.85251  1.0000
  C   C2122     1.0  0.27454  0.54025  0.87276  1.0000
  C   C2123     1.0  0.29199  0.51076  0.86945  1.0000
  H   H3745     1.0  0.22301  0.78946  0.79363  1.0000
  C   C2124     1.0  0.31267  0.54003  0.86815  1.0000
  C   C2125     1.0  0.25563  0.53584  0.87792  1.0000
  C   C2126     1.0  0.28859  0.52323  0.84150  1.0000
  H   H3746     1.0  0.18683  0.55833  0.81052  1.0000
  C   C2127     1.0  0.33141  0.54383  0.86238  1.0000
  C   C2128     1.0  0.24554  0.54383  0.88945  1.0000
  H   H3747     1.0  0.29965  0.55219  0.85239  1.0000
  H   H3748     1.0  0.31384  0.53149  0.85108  1.0000
  H   H3749     1.0  0.26550  0.52722  0.85615  1.0000
  H   H3750     1.0  0.27357  0.54698  0.84847  1.0000
  H   H3751     1.0  0.27250  0.55478  0.86877  1.0000
  H   H3752     1.0  0.28044  0.53801  0.88115  1.0000
  H   H3753     1.0  0.49879  0.93112  0.89231  1.0000
  C   C2129     1.0  0.09232  0.50801  0.97587  1.0000
  H   H3754     1.0  0.38738  0.71350  0.79910  1.0000
  H   H3755     1.0  0.32010  0.95864  0.91183  1.0000
  H   H3756     1.0  0.30458  0.55117  0.87275  1.0000
  H   H3757     1.0  0.31380  0.52776  0.87565  1.0000
  H   H3758     1.0  0.25651  0.52130  0.88069  1.0000
  H   H3759     1.0  0.24741  0.54168  0.87063  1.0000
  H   H3760     1.0  0.29103  0.50862  0.84488  1.0000
  H   H3761     1.0  0.11334  0.52284  0.96622  1.0000
  C   C2130     1.0  0.35986  0.96593  0.88042  1.0000
  S   S496      1.0  0.03731  0.60785  0.98007  1.0000
  N   N119      1.0  0.34065  0.97359  0.90179  1.0000
  H   H3762     1.0  0.33780  0.54398  0.87002  1.0000
  N   N120      1.0  0.23867  0.57014  0.79927  1.0000
  H   H3763     1.0  0.48571  0.97400  0.98450  1.0000
  H   H3764     1.0  0.02283  0.55849  0.90503  1.0000
  N   N121      1.0  0.44275  0.90569  0.86114  1.0000
  C   C2131     1.0  0.44232  0.89950  0.87516  1.0000
  C   C2132     1.0  0.43385  0.92513  0.85846  1.0000
  C   C2133     1.0  0.43148  0.89565  0.85794  1.0000
  C   C2134     1.0  0.46150  0.90228  0.85305  1.0000
  C   C2135     1.0  0.47716  0.90354  0.85845  1.0000
  C   C2136     1.0  0.44824  0.87917  0.87983  1.0000
  C   C2137     1.0  0.42843  0.90112  0.84419  1.0000
  C   C2138     1.0  0.44353  0.93817  0.86052  1.0000
  C   C2139     1.0  0.43221  0.95708  0.85874  1.0000
  C   C2140     1.0  0.45433  0.97092  0.90894  1.0000
  C   C2141     1.0  0.45130  0.87429  0.89329  1.0000
  C   C2142     1.0  0.42014  0.88774  0.84148  1.0000
  H   H3765     1.0  0.42846  0.90355  0.88072  1.0000
  H   H3766     1.0  0.45068  0.90604  0.87815  1.0000
  H   H3767     1.0  0.43265  0.92981  0.84842  1.0000
  H   H3768     1.0  0.41985  0.92718  0.86427  1.0000
  H   H3769     1.0  0.41802  0.89688  0.86442  1.0000
  H   H3770     1.0  0.43770  0.88124  0.85945  1.0000
  H   H3771     1.0  0.46515  0.88873  0.85103  1.0000
  H   H3772     1.0  0.46196  0.91144  0.84358  1.0000
  H   H3773     1.0  0.47971  0.89210  0.86634  1.0000
  H   H3774     1.0  0.47437  0.91555  0.86226  1.0000
  H   H3775     1.0  0.43775  0.87236  0.87985  1.0000
  H   H3776     1.0  0.46073  0.87374  0.87360  1.0000
  H   H3777     1.0  0.44123  0.90197  0.83715  1.0000
  H   H3778     1.0  0.41889  0.91413  0.84274  1.0000
  H   H3779     1.0  0.44641  0.93449  0.87013  1.0000
  H   H3780     1.0  0.45628  0.93856  0.85335  1.0000
  H   H3781     1.0  0.42977  0.96180  0.84897  1.0000
  H   H3782     1.0  0.41913  0.95776  0.86561  1.0000
  H   H3783     1.0  0.43943  0.96610  0.86038  1.0000
  C   C2143     1.0  0.32663  0.51369  0.81379  1.0000
  Fe  Fe253     1.0  0.30162  0.58857  0.80740  1.0000
  C   C2144     1.0  0.47489  0.76019  0.84735  1.0000
  H   H3784     1.0  0.46089  0.88153  0.89412  1.0000
  H   H3785     1.0  0.43840  0.87750  0.90000  1.0000
  H   H3786     1.0  0.45679  0.85983  0.89588  1.0000
  H   H3787     1.0  0.42942  0.87453  0.84216  1.0000
  H   H3788     1.0  0.40720  0.88647  0.84829  1.0000
  H   H3789     1.0  0.41756  0.89221  0.83174  1.0000
  N   N122      1.0  0.32728  0.77432  0.83397  1.0000
  C   C2145     1.0  0.33620  0.75615  0.83126  1.0000
  C   C2146     1.0  0.31118  0.77252  0.84474  1.0000
  C   C2147     1.0  0.32171  0.78643  0.82216  1.0000
  C   C2148     1.0  0.33991  0.78211  0.83772  1.0000
  C   C2149     1.0  0.34804  0.77087  0.84926  1.0000
  C   C2150     1.0  0.35487  0.75458  0.82211  1.0000
  C   C2151     1.0  0.31119  0.80547  0.82352  1.0000
  C   C2152     1.0  0.29515  0.76804  0.84164  1.0000
  C   C2153     1.0  0.28017  0.76543  0.85342  1.0000
  C   C2154     1.0  0.36011  0.78052  0.85226  1.0000
  C   C2155     1.0  0.36142  0.73639  0.81868  1.0000
  C   C2156     1.0  0.30401  0.81575  0.81167  1.0000
  H   H3790     1.0  0.32750  0.75153  0.82709  1.0000
  H   H3791     1.0  0.33790  0.74617  0.84018  1.0000
  H   H3792     1.0  0.31512  0.76186  0.85282  1.0000
  H   H3793     1.0  0.30611  0.78478  0.84862  1.0000
  H   H3794     1.0  0.31370  0.78034  0.81840  1.0000
  H   H3795     1.0  0.33364  0.78813  0.81440  1.0000
  H   H3796     1.0  0.35116  0.78501  0.82958  1.0000
  H   H3797     1.0  0.33294  0.79516  0.84017  1.0000
  H   H3798     1.0  0.35620  0.75783  0.84747  1.0000
  H   H3799     1.0  0.33735  0.76850  0.85785  1.0000
  H   H3800     1.0  0.35435  0.76451  0.81320  1.0000
  H   H3801     1.0  0.36503  0.75657  0.82640  1.0000
  H   H3802     1.0  0.32010  0.81305  0.82487  1.0000
  H   H3803     1.0  0.29953  0.80534  0.83163  1.0000
  H   H3804     1.0  0.28925  0.77888  0.83443  1.0000
  H   H3805     1.0  0.29942  0.75567  0.83800  1.0000
  H   H3806     1.0  0.27510  0.77769  0.85726  1.0000
  H   H3807     1.0  0.26884  0.76242  0.85090  1.0000
  H   H3808     1.0  0.28509  0.75420  0.86084  1.0000
  H   H3809     1.0  0.36657  0.77193  0.86010  1.0000
  H   H3810     1.0  0.37084  0.78380  0.84387  1.0000
  H   H3811     1.0  0.35216  0.79303  0.85518  1.0000
  H   H3812     1.0  0.37579  0.73458  0.81384  1.0000
  H   H3813     1.0  0.35986  0.72560  0.82724  1.0000
  H   H3814     1.0  0.35379  0.73527  0.81215  1.0000
  H   H3815     1.0  0.29438  0.80916  0.81011  1.0000
  H   H3816     1.0  0.29691  0.82938  0.81283  1.0000
  H   H3817     1.0  0.31517  0.81673  0.80322  1.0000
  N   N123      1.0  0.22828  0.65033  0.84738  1.0000
  C   C2157     1.0  0.23947  0.63714  0.83945  1.0000
  C   C2158     1.0  0.23579  0.64736  0.85901  1.0000
  C   C2159     1.0  0.20959  0.64656  0.85201  1.0000
  C   C2160     1.0  0.22691  0.66935  0.84003  1.0000
  C   C2161     1.0  0.24322  0.67382  0.82932  1.0000
  C   C2162     1.0  0.23173  0.63660  0.82830  1.0000
  C   C2163     1.0  0.19621  0.65837  0.86092  1.0000
  C   C2164     1.0  0.25624  0.64584  0.85700  1.0000
  C   C2165     1.0  0.26154  0.64358  0.86957  1.0000
  C   C2166     1.0  0.24200  0.69384  0.82525  1.0000
  C   C2167     1.0  0.24649  0.62977  0.81772  1.0000
  C   C2168     1.0  0.17765  0.65389  0.86481  1.0000
  H   H3818     1.0  0.24124  0.62353  0.84548  1.0000
  H   H3819     1.0  0.25331  0.63944  0.83559  1.0000
  H   H3820     1.0  0.22911  0.65822  0.86420  1.0000
  H   H3821     1.0  0.23280  0.63490  0.86575  1.0000
  H   H3822     1.0  0.21020  0.63239  0.85701  1.0000
  H   H3823     1.0  0.20324  0.64842  0.84391  1.0000
  H   H3824     1.0  0.21525  0.67363  0.83527  1.0000
  H   H3825     1.0  0.22380  0.67846  0.84662  1.0000
  H   H3826     1.0  0.24345  0.66905  0.82086  1.0000
  H   H3827     1.0  0.25625  0.66770  0.83205  1.0000
  H   H3828     1.0  0.22206  0.62764  0.83178  1.0000
  H   H3829     1.0  0.22444  0.64988  0.82416  1.0000
  H   H3830     1.0  0.19463  0.67260  0.85615  1.0000
  H   H3831     1.0  0.20080  0.65641  0.86980  1.0000
  H   H3832     1.0  0.26396  0.63410  0.85299  1.0000
  H   H3833     1.0  0.26030  0.65798  0.85079  1.0000
  H   H3834     1.0  0.27634  0.64172  0.86800  1.0000
  H   H3835     1.0  0.25510  0.65550  0.87367  1.0000
  H   H3836     1.0  0.25747  0.63178  0.87648  1.0000
  H   H3837     1.0  0.22913  0.70066  0.82223  1.0000
  H   H3838     1.0  0.24286  0.69919  0.83317  1.0000
  H   H3839     1.0  0.25326  0.69675  0.81716  1.0000
  H   H3840     1.0  0.24026  0.62722  0.81083  1.0000
  H   H3841     1.0  0.25475  0.63981  0.81265  1.0000
  H   H3842     1.0  0.25540  0.61729  0.82152  1.0000
  H   H3843     1.0  0.17827  0.64044  0.87100  1.0000
  H   H3844     1.0  0.16805  0.66352  0.87025  1.0000
  H   H3845     1.0  0.45650  0.71016  0.82154  1.0000
  H   H3846     1.0  0.09138  0.51592  0.85689  1.0000
  H   H3847     1.0  0.48006  0.71471  0.85773  1.0000
  H   H3848     1.0  0.47124  0.72454  0.83846  1.0000
  H   H3849     1.0  0.48400  0.67012  0.87692  1.0000
  H   H3850     1.0  0.42006  0.67265  0.87858  1.0000
  H   H3851     1.0  0.46771  0.72844  0.81654  1.0000
  H   H3852     1.0  0.48172  0.67080  0.85407  1.0000
  C   C2169     1.0  0.44633  0.67062  0.86569  1.0000
  C   C2170     1.0  0.45127  0.68617  0.86885  1.0000
  N   N124      1.0  0.48005  0.79411  0.87755  1.0000
  C   C2171     1.0  0.48095  0.79800  0.86352  1.0000
  C   C2172     1.0  0.46108  0.79273  0.88453  1.0000
  H   H3853     1.0  0.26648  0.52165  0.83404  1.0000
  H   H3854     1.0  0.03940  0.53974  0.91072  1.0000
  C   C2173     1.0  0.32814  0.98938  0.89567  1.0000
  H   H3855     1.0  0.00865  0.57770  0.92893  1.0000
  H   H3856     1.0  0.13567  0.63212  0.91732  1.0000
  C   C2174     1.0  0.45407  0.77723  0.88319  1.0000
  C   C2175     1.0  0.43414  0.77871  0.88941  1.0000
  C   C2176     1.0  0.15015  0.61408  0.90506  1.0000
  H   H3857     1.0  0.01239  0.55667  0.88199  1.0000
  H   H3858     1.0  0.48893  0.77206  0.89214  1.0000
  H   H3859     1.0  0.47000  0.80945  0.86094  1.0000
  H   H3860     1.0  0.47846  0.78687  0.86067  1.0000
  H   H3861     1.0  0.45966  0.79089  0.89489  1.0000
  H   H3862     1.0  0.45152  0.80539  0.88159  1.0000
  H   H3863     1.0  0.47542  0.82244  0.87609  1.0000
  H   H3864     1.0  0.01764  0.54488  0.92069  1.0000
  H   H3865     1.0  0.12277  0.62824  0.90767  1.0000
  H   H3866     1.0  0.01695  0.56632  0.85889  1.0000
  H   H3867     1.0  0.48739  0.79701  0.89986  1.0000
  H   H3868     1.0  0.48625  0.75899  0.87360  1.0000
  C   C2177     1.0  0.46743  0.95179  0.97957  1.0000
  Fe  Fe254     1.0  0.30812  0.78031  0.78932  1.0000
  H   H3869     1.0  0.31408  0.50232  0.85362  1.0000
  H   H3870     1.0  0.49302  0.91510  0.84043  1.0000
  H   H3871     1.0  0.45551  0.77698  0.87318  1.0000
  H   H3872     1.0  0.46138  0.76442  0.88804  1.0000
  H   H3873     1.0  0.42942  0.76756  0.88817  1.0000
  H   H3874     1.0  0.43184  0.77818  0.89970  1.0000
  H   H3875     1.0  0.42599  0.79131  0.88495  1.0000
  S   S497      1.0  0.29716  0.56729  0.82490  1.0000
  C   C2178     1.0  0.24575  0.58288  0.82858  1.0000
  H   H3876     1.0  0.23809  0.59334  0.83390  1.0000
  H   H3877     1.0  0.43996  0.94242  0.96018  1.0000
  C   C2179     1.0  0.21901  0.56956  0.80326  1.0000
  H   H3878     1.0  0.33107  0.97393  0.92184  1.0000
  H   H3879     1.0  0.45965  0.73957  0.87456  1.0000
  H   H3880     1.0  0.17545  0.49786  0.87530  1.0000
  H   H3881     1.0  0.22254  0.58050  0.82354  1.0000
  S   S498      1.0  0.18545  0.53110  0.87094  1.0000
  H   H3882     1.0  0.45544  0.68102  0.87806  1.0000
  H   H3883     1.0  0.45943  0.68924  0.84282  1.0000
  H   H3884     1.0  0.12060  0.59910  0.92038  1.0000
  S   S499      1.0  0.05125  0.60181  0.94402  1.0000
  H   H3885     1.0  0.25458  0.58921  0.78776  1.0000
  H   H3886     1.0  0.38584  0.56121  0.81669  1.0000
  H   H3887     1.0  0.44444  0.70785  0.84823  1.0000
  C   C2180     1.0  0.48310  0.68245  0.85687  1.0000
  H   H3888     1.0  0.10199  0.49521  0.97517  1.0000
  C   C2181     1.0  0.49455  0.90331  0.84831  1.0000
  C   C2182     1.0  0.19247  0.66379  0.81466  1.0000
  H   H3889     1.0  0.42924  0.65159  0.87402  1.0000
  H   H3890     1.0  0.09683  0.59293  0.93916  1.0000
  H   H3891     1.0  0.04559  0.52974  0.93440  1.0000
  C   C2183     1.0  0.19014  0.62790  0.82134  1.0000
  H   H3892     1.0  0.33047  0.55705  0.85588  1.0000
  H   H3893     1.0  0.43851  0.69609  0.87068  1.0000
  N   N125      1.0  0.46514  0.69509  0.85895  1.0000
  H   H3894     1.0  0.06043  0.51089  0.92843  1.0000
  C   C2184     1.0  0.46836  0.72724  0.87883  1.0000
  C   C2185     1.0  0.45936  0.72089  0.82470  1.0000
  C   C2186     1.0  0.46380  0.71095  0.87688  1.0000
  S   S500      1.0  0.00733  0.61325  0.93119  1.0000
  H   H3895     1.0  0.49334  0.84444  0.82163  1.0000
  H   H3896     1.0  0.45653  0.72312  0.85914  1.0000
  C   C2187     1.0  0.08019  0.63456  0.93958  1.0000
  H   H3897     1.0  0.12185  0.55665  0.96244  1.0000
  C   C2188     1.0  0.39932  0.95650  0.96046  1.0000
  H   H3898     1.0  0.26903  0.53909  0.80404  1.0000
  H   H3899     1.0  0.18866  0.56707  0.82330  1.0000
  C   C2189     1.0  0.49356  0.77765  0.88190  1.0000
  C   C2190     1.0  0.49830  0.76242  0.87463  1.0000
  H   H3900     1.0  0.22891  0.51568  0.83433  1.0000
  H   H3901     1.0  0.48854  0.75744  0.84928  1.0000
  H   H3902     1.0  0.44265  0.81974  0.80342  1.0000
  C   C2191     1.0  0.34492  0.93955  0.90967  1.0000
  H   H3903     1.0  0.23830  0.54055  0.83835  1.0000
  H   H3904     1.0  0.49167  0.91523  0.96710  1.0000
  H   H3905     1.0  0.22653  0.49979  0.82021  1.0000
  H   H3906     1.0  0.46641  0.55624  0.83243  1.0000
  C   C2192     1.0  0.33657  0.92390  0.91097  1.0000
  H   H3907     1.0  0.00787  0.50454  0.90247  1.0000
  H   H3908     1.0  0.09001  0.52003  0.95653  1.0000
  H   H3909     1.0  0.48649  0.82469  0.90627  1.0000
  C   C2193     1.0  0.11986  0.62228  0.94222  1.0000
  H   H3910     1.0  0.34552  0.91137  0.91472  1.0000
  H   H3911     1.0  0.23207  0.59898  0.79413  1.0000
  C   C2194     1.0  0.29324  0.62954  0.78655  1.0000
  H   H3912     1.0  0.47477  0.81095  0.80356  1.0000
  H   H3913     1.0  0.48811  0.88368  0.89681  1.0000
  C   C2195     1.0  0.40162  0.95087  0.97299  1.0000
  C   C2196     1.0  0.33285  0.95740  0.90455  1.0000
  H   H3914     1.0  0.25257  0.53792  0.89743  1.0000
  C   C2197     1.0  0.34296  0.97613  0.91407  1.0000
  H   H3915     1.0  0.48766  0.80810  0.83813  1.0000
  C   C2198     1.0  0.23590  0.78066  0.79442  1.0000
  C   C2199     1.0  0.48124  0.81005  0.89453  1.0000
  C   C2200     1.0  0.36756  0.71867  0.78794  1.0000
  H   H3916     1.0  0.41024  0.90626  0.97521  1.0000
  H   H3917     1.0  0.28256  0.74980  0.79662  1.0000
  C   C2201     1.0  0.49870  0.80270  0.85493  1.0000
  C   C2202     1.0  0.31262  0.51287  0.79723  1.0000
  H   H3918     1.0  0.49263  0.68866  0.84876  1.0000
  C   C2203     1.0  0.24941  0.55522  0.79263  1.0000
  H   H3919     1.0  0.41880  0.72977  0.81979  1.0000
  H   H3920     1.0  0.26128  0.55934  0.78553  1.0000
  H   H3921     1.0  0.44139  0.79710  0.80513  1.0000
  H   H3922     1.0  0.49200  0.64527  0.84345  1.0000
  H   H3923     1.0  0.46526  0.76720  0.85450  1.0000
  N   N126      1.0  0.42069  0.59593  0.82396  1.0000
  C   C2204     1.0  0.41821  0.60764  0.83306  1.0000
  C   C2205     1.0  0.42178  0.60729  0.81072  1.0000
  C   C2206     1.0  0.40400  0.58840  0.82734  1.0000
  C   C2207     1.0  0.43689  0.58076  0.82461  1.0000
  C   C2208     1.0  0.45342  0.58421  0.82778  1.0000
  C   C2209     1.0  0.41337  0.59894  0.84733  1.0000
  C   C2210     1.0  0.40230  0.57809  0.81800  1.0000
  C   C2211     1.0  0.43803  0.61633  0.80510  1.0000
  C   C2212     1.0  0.10285  0.52180  0.97509  1.0000
  C   C2213     1.0  0.46962  0.56883  0.82618  1.0000
  C   C2214     1.0  0.41605  0.60998  0.85558  1.0000
  C   C2215     1.0  0.45790  0.92488  0.97962  1.0000
  H   H3924     1.0  0.40717  0.61943  0.83135  1.0000
  H   H3925     1.0  0.43025  0.61315  0.83147  1.0000
  H   H3926     1.0  0.42248  0.59938  0.80380  1.0000
  H   H3927     1.0  0.40929  0.61777  0.81037  1.0000
  H   H3928     1.0  0.39175  0.59918  0.82826  1.0000
  H   H3929     1.0  0.40305  0.57921  0.83680  1.0000
  H   H3930     1.0  0.43327  0.56901  0.83193  1.0000
  H   H3931     1.0  0.44147  0.57615  0.81552  1.0000
  H   H3932     1.0  0.45041  0.58558  0.83776  1.0000
  H   H3933     1.0  0.45750  0.59645  0.82172  1.0000
  H   H3934     1.0  0.39898  0.59811  0.85005  1.0000
  H   H3935     1.0  0.42159  0.58534  0.84953  1.0000
  H   H3936     1.0  0.41506  0.56871  0.81518  1.0000
  H   H3937     1.0  0.39859  0.58752  0.80935  1.0000
  H   H3938     1.0  0.44033  0.62307  0.81172  1.0000
  H   H3939     1.0  0.44726  0.63641  0.78906  1.0000
  H   H3940     1.0  0.19066  0.54362  0.82527  1.0000
  H   H3941     1.0  0.09482  0.60103  0.95253  1.0000
  H   H3942     1.0  0.13422  0.62929  0.96007  1.0000
  H   H3943     1.0  0.20893  0.51608  0.84609  1.0000
  H   H3944     1.0  0.25081  0.62615  0.78792  1.0000
  H   H3945     1.0  0.45206  0.97589  0.94330  1.0000
  H   H3946     1.0  0.41192  0.60380  0.86573  1.0000
  H   H3947     1.0  0.43039  0.61077  0.85360  1.0000
  H   H3948     1.0  0.40771  0.62363  0.85375  1.0000
  S   S501      1.0  0.49461  0.85554  0.86239  1.0000
  C   C2216     1.0  0.49234  0.92909  0.92390  1.0000
  C   C2217     1.0  0.08128  0.51403  0.96535  1.0000
  N   N127      1.0  0.32093  0.67292  0.80979  1.0000
  C   C2218     1.0  0.33722  0.67105  0.79912  1.0000
  C   C2219     1.0  0.32330  0.68435  0.81767  1.0000
  C   C2220     1.0  0.32036  0.65467  0.81816  1.0000
  C   C2221     1.0  0.30351  0.68028  0.80522  1.0000
  H   H3949     1.0  0.32146  0.50347  0.86693  1.0000
  C   C2222     1.0  0.30664  0.65402  0.83105  1.0000
  C   C2223     1.0  0.32371  0.70391  0.81116  1.0000
  C   C2224     1.0  0.32714  0.71344  0.82007  1.0000
  H   H3950     1.0  0.37451  0.57642  0.82696  1.0000
  C   C2225     1.0  0.30317  0.63541  0.83703  1.0000
  H   H3951     1.0  0.34976  0.66710  0.80288  1.0000
  C   C2226     1.0  0.50034  0.80138  0.84136  1.0000
  H   H3952     1.0  0.31206  0.68517  0.82607  1.0000
  H   H3953     1.0  0.33582  0.67824  0.82141  1.0000
  H   H3954     1.0  0.33381  0.64805  0.82036  1.0000
  H   H3955     1.0  0.31736  0.64598  0.81310  1.0000
  H   H3956     1.0  0.29800  0.66940  0.80425  1.0000
  H   H3957     1.0  0.29304  0.68662  0.81248  1.0000
  C   C2227     1.0  0.33844  0.65721  0.79141  1.0000
  H   H3958     1.0  0.09367  0.53496  0.97532  1.0000
  H   H3959     1.0  0.29356  0.66316  0.83000  1.0000
  H   H3960     1.0  0.31210  0.65786  0.83783  1.0000
  H   H3961     1.0  0.33442  0.70505  0.80246  1.0000
  H   H3962     1.0  0.31050  0.71102  0.80884  1.0000
  H   H3963     1.0  0.32605  0.72770  0.81556  1.0000
  H   H3964     1.0  0.31702  0.71234  0.82914  1.0000
  H   H3965     1.0  0.34080  0.70773  0.82205  1.0000
  H   H3966     1.0  0.49880  0.90352  0.87706  1.0000
  C   C2228     1.0  0.25647  0.75254  0.79270  1.0000
  H   H3967     1.0  0.43270  0.96763  0.94397  1.0000
  H   H3968     1.0  0.29619  0.63464  0.84710  1.0000
  H   H3969     1.0  0.29450  0.63224  0.83203  1.0000
  H   H3970     1.0  0.31595  0.62532  0.83677  1.0000
  H   H3971     1.0  0.44009  0.67528  0.85730  1.0000
  H   H3972     1.0  0.16121  0.60852  0.91029  1.0000
  H   H3973     1.0  0.45303  0.95512  0.98430  1.0000
  C   C2229     1.0  0.06202  0.50880  0.95376  1.0000
  H   H3974     1.0  0.49897  0.81648  0.85477  1.0000
  H   H3975     1.0  0.01123  0.64370  0.95197  1.0000
  H   H3976     1.0  0.22444  0.51484  0.86256  1.0000
  H   H3977     1.0  0.31797  0.53658  0.79983  1.0000
  C   C2230     1.0  0.07060  0.52013  0.94116  1.0000
  C   C2231     1.0  0.00332  0.51315  0.94737  1.0000
  H   H3978     1.0  0.38477  0.97495  0.87077  1.0000
  H   H3979     1.0  0.25951  0.73965  0.79045  1.0000
  C   C2232     1.0  0.45038  0.80670  0.80129  1.0000
  C   C2233     1.0  0.05987  0.52351  0.93098  1.0000
  H   H3980     1.0  0.02702  0.53216  0.89584  1.0000
  H   H3981     1.0  0.05023  0.51790  0.95813  1.0000
  C   C2234     1.0  0.50135  0.74546  0.80180  1.0000
  H   H3982     1.0  0.48832  0.85147  0.91250  1.0000
  H   H3983     1.0  0.29156  0.50921  0.87969  1.0000
  C   C2235     1.0  0.31075  0.49990  0.86407  1.0000
  H   H3984     1.0  0.08214  0.56257  0.98467  1.0000
  H   H3985     1.0  0.49811  0.81113  0.87585  1.0000
  C   C2236     1.0  0.25747  0.53743  0.80094  1.0000
  H   H3986     1.0  0.07456  0.62426  0.94723  1.0000
  H   H3987     1.0  0.46025  0.77435  0.83278  1.0000
  H   H3988     1.0  0.07070  0.53318  0.94274  1.0000
  N   N128      1.0  0.11161  0.61349  0.93552  1.0000
  C   C2237     1.0  0.24046  0.58754  0.78999  1.0000
  H   H3989     1.0  0.11515  0.50691  0.85217  1.0000
  H   H3990     1.0  0.21083  0.65743  0.79766  1.0000
  H   H3991     1.0  0.24542  0.79925  0.80030  1.0000
  H   H3992     1.0  0.49826  0.89108  0.84451  1.0000
  H   H3993     1.0  0.00779  0.54858  0.85793  1.0000
  C   C2238     1.0  0.23979  0.76391  0.79157  1.0000
  C   C2239     1.0  0.44686  0.96374  0.94498  1.0000
  H   H3994     1.0  0.24610  0.51110  0.85208  1.0000
  C   C2240     1.0  0.48398  0.80993  0.88035  1.0000
  H   H3995     1.0  0.17140  0.63458  0.83807  1.0000
  C   C2241     1.0  0.20096  0.63451  0.80977  1.0000
  C   C2242     1.0  0.48965  0.92618  0.97205  1.0000
  C   C2243     1.0  0.19382  0.55579  0.81840  1.0000
  H   H3996     1.0  0.45476  0.95584  0.93779  1.0000
  C   C2244     1.0  0.49389  0.85043  0.83914  1.0000
  H   H3997     1.0  0.08469  0.51376  0.93751  1.0000
  C   C2245     1.0  0.10466  0.59756  0.94402  1.0000
  C   C2246     1.0  0.47222  0.96966  0.97143  1.0000
  C   C2247     1.0  0.12577  0.60719  0.92465  1.0000
  C   C2248     1.0  0.26949  0.75836  0.79611  1.0000
  C   C2249     1.0  0.18143  0.65721  0.82605  1.0000
  H   H3998     1.0  0.45562  0.86370  0.91956  1.0000
  S   S502      1.0  0.01674  0.58674  0.96360  1.0000
  C   C2250     1.0  0.49283  0.67561  0.86806  1.0000
  H   H3999     1.0  0.06030  0.63768  0.92846  1.0000
  H   H4000     1.0  0.36498  0.98417  0.92659  1.0000
  H   H4001     1.0  0.09728  0.62491  0.95897  1.0000
  H   H4002     1.0  0.47700  0.78446  0.83419  1.0000
  C   C2251     1.0  0.11212  0.62110  0.95665  1.0000
  H   H4003     1.0  0.39966  0.74586  0.81518  1.0000
  C   C2252     1.0  0.45911  0.86623  0.92776  1.0000
  C   C2253     1.0  0.21412  0.55326  0.81345  1.0000
  H   H4004     1.0  0.20489  0.51090  0.82755  1.0000
  S   S503      1.0  0.15259  0.50048  0.83826  1.0000
  C   C2254     1.0  0.38751  0.56753  0.82385  1.0000
  H   H4005     1.0  0.15427  0.62463  0.89687  1.0000
  H   H4006     1.0  0.17370  0.66600  0.83233  1.0000
  H   H4007     1.0  0.34674  0.93937  0.91917  1.0000
  H   H4008     1.0  0.39607  0.97053  0.95633  1.0000
  H   H4009     1.0  0.28720  0.52204  0.82274  1.0000
  H   H4010     1.0  0.36922  0.96185  0.89768  1.0000
  Fe  Fe255     1.0  0.02666  0.59408  0.94263  1.0000
  C   C2255     1.0  0.24860  0.78624  0.79817  1.0000
  C   C2256     1.0  0.16513  0.49883  0.85918  1.0000
  S   S504      1.0  0.19419  0.68604  0.81143  1.0000
  H   H4011     1.0  0.01558  0.52372  0.88319  1.0000
  H   H4012     1.0  0.21553  0.54355  0.84733  1.0000
  H   H4013     1.0  0.11505  0.64714  0.95719  1.0000
  C   C2257     1.0  0.49269  0.85639  0.91931  1.0000
  C   C2258     1.0  0.24637  0.56972  0.81030  1.0000
  H   H4014     1.0  0.47131  0.93266  0.95447  1.0000
  C   C2259     1.0  0.22972  0.53728  0.84787  1.0000
  C   C2260     1.0  0.47420  0.77175  0.83417  1.0000
  C   C2261     1.0  0.22359  0.51001  0.84438  1.0000
  H   H4015     1.0  0.37942  0.95999  0.86355  1.0000
  C   C2262     1.0  0.44779  0.95281  0.95830  1.0000
  Fe  Fe256     1.0  0.21040  0.69815  0.79284  1.0000
  H   H4016     1.0  0.35151  0.97638  0.87440  1.0000
  C   C2263     1.0  0.01045  0.50208  0.95754  1.0000
  H   H4017     1.0  0.49763  0.68654  0.86953  1.0000
  C   C2264     1.0  0.46747  0.94387  0.95938  1.0000
  H   H4018     1.0  0.40290  0.97439  0.92553  1.0000
  H   H4019     1.0  0.48412  0.83743  0.89065  1.0000
  H   H4020     1.0  0.32899  0.95628  0.89602  1.0000
  H   H4021     1.0  0.47657  0.98359  0.91641  1.0000
  H   H4022     1.0  0.41135  0.76317  0.79128  1.0000
  H   H4023     1.0  0.48299  0.78488  0.79403  1.0000
  C   C2265     1.0  0.35883  0.97151  0.89285  1.0000
  C   C2266     1.0  0.40500  0.92597  0.95850  1.0000
  H   H4024     1.0  0.25406  0.50063  0.82625  1.0000
  H   H4025     1.0  0.47623  0.88388  0.91647  1.0000
  H   H4026     1.0  0.26053  0.57136  0.80685  1.0000
  H   H4027     1.0  0.46667  0.81332  0.89884  1.0000
  H   H4028     1.0  0.44115  0.96150  0.96517  1.0000
  H   H4029     1.0  0.47378  0.56735  0.81617  1.0000
  H   H4030     1.0  0.30132  0.98377  0.90456  1.0000
  H   H4031     1.0  0.48109  0.57148  0.82877  1.0000
  C   C2267     1.0  0.49252  0.92882  0.90229  1.0000
  H   H4032     1.0  0.23176  0.54118  0.89256  1.0000
  S   S505      1.0  0.23599  0.70443  0.79356  1.0000
  H   H4033     1.0  0.35535  0.95334  0.88232  1.0000
  C   C2268     1.0  0.32779  0.49537  0.81822  1.0000
  H   H4034     1.0  0.24695  0.56981  0.83529  1.0000
  H   H4035     1.0  0.00495  0.55295  0.95199  1.0000
  H   H4036     1.0  0.13453  0.61652  0.94131  1.0000
  H   H4037     1.0  0.08426  0.64345  0.94382  1.0000
  S   S506      1.0  0.27958  0.59935  0.79660  1.0000
  H   H4038     1.0  0.47619  0.95312  0.95353  1.0000
  H   H4039     1.0  0.39098  0.55699  0.83209  1.0000
  H   H4040     1.0  0.02870  0.54366  0.86316  1.0000
  H   H4041     1.0  0.33508  0.92313  0.90158  1.0000
  C   C2269     1.0  0.09641  0.62645  0.93004  1.0000
  H   H4042     1.0  0.39911  0.94860  0.94361  1.0000
  C   C2270     1.0  0.40111  0.94411  0.95321  1.0000
  H   H4043     1.0  0.23358  0.54287  0.85450  1.0000
  C   C2271     1.0  0.48959  0.82417  0.89611  1.0000
  H   H4044     1.0  0.33823  0.68392  0.79240  1.0000
  H   H4045     1.0  0.13768  0.59819  0.92812  1.0000
  H   H4046     1.0  0.47961  0.87463  0.93227  1.0000
  S   S507      1.0  0.33505  0.52516  0.82151  1.0000
  H   H4047     1.0  0.48553  0.69268  0.80507  1.0000
  H   H4048     1.0  0.23394  0.59723  0.81289  1.0000
  C   C2272     1.0  0.01844  0.53258  0.90538  1.0000
  H   H4049     1.0  0.49205  0.91983  0.98169  1.0000
  S   S508      1.0  0.28142  0.78328  0.80289  1.0000
  H   H4050     1.0  0.24434  0.55843  0.88704  1.0000
  C   C2273     1.0  0.11925  0.58132  0.94835  1.0000
  H   H4051     1.0  0.13021  0.58544  0.95049  1.0000
  C   C2274     1.0  0.11932  0.63299  0.96175  1.0000
  C   C2275     1.0  0.38334  0.70934  0.79210  1.0000
  H   H4052     1.0  0.12524  0.57381  0.94066  1.0000
  S   S509      1.0  0.32991  0.57525  0.79985  1.0000
  H   H4053     1.0  0.46712  0.96133  0.91016  1.0000
  H   H4054     1.0  0.44374  0.93247  0.98041  1.0000
  C   C2276     1.0  0.06503  0.64582  0.93295  1.0000
  C   C2277     1.0  0.13287  0.62183  0.91367  1.0000
  H   H4055     1.0  0.11609  0.60733  0.96195  1.0000
  H   H4056     1.0  0.14806  0.60346  0.90135  1.0000
  H   H4057     1.0  0.11899  0.63655  0.93752  1.0000
  C   C2278     1.0  0.49057  0.65564  0.83508  1.0000
  H   H4058     1.0  0.10119  0.63803  0.92327  1.0000
  H   H4059     1.0  0.30580  0.62159  0.78889  1.0000
  H   H4060     1.0  0.10154  0.49214  0.95280  1.0000
  H   H4061     1.0  0.32545  0.65835  0.78899  1.0000
  C   C2279     1.0  0.27841  0.62179  0.78917  1.0000
  H   H4062     1.0  0.48783  0.74941  0.79954  1.0000
  H   H4063     1.0  0.49320  0.79675  0.81791  1.0000
  C   C2280     1.0  0.26447  0.52260  0.79357  1.0000
  C   C2281     1.0  0.39425  0.69514  0.78681  1.0000
  N   N129      1.0  0.49354  0.77367  0.81112  1.0000
  H   H4064     1.0  0.10039  0.59729  0.98325  1.0000
  H   H4065     1.0  0.32639  0.98717  0.88676  1.0000
  H   H4066     1.0  0.10949  0.51783  0.98328  1.0000
  H   H4067     1.0  0.27682  0.69400  0.79150  1.0000
  C   C2282     1.0  0.00474  0.55191  0.87711  1.0000
  H   H4068     1.0  0.20320  0.49937  0.80986  1.0000
  C   C2283     1.0  0.21342  0.49772  0.82632  1.0000
  H   H4069     1.0  0.30696  0.51968  0.78901  1.0000
  H   H4070     1.0  0.34217  0.64362  0.79705  1.0000
  H   H4071     1.0  0.11390  0.63139  0.97214  1.0000
  H   H4072     1.0  0.42341  0.64111  0.79522  1.0000
  C   C2284     1.0  0.28519  0.70356  0.79056  1.0000
  H   H4073     1.0  0.35948  0.72997  0.79173  1.0000
  H   H4074     1.0  0.25334  0.51983  0.79066  1.0000
  H   H4075     1.0  0.49934  0.75410  0.82770  1.0000
  C   C2285     1.0  0.45732  0.98983  0.90433  1.0000
  C   C2286     1.0  0.43530  0.63036  0.79306  1.0000
  H   H4076     1.0  0.39720  0.75021  0.79046  1.0000
  C   C2287     1.0  0.07283  0.60195  0.98150  1.0000
  H   H4077     1.0  0.44395  0.75592  0.79085  1.0000
  C   C2288     1.0  0.41164  0.75035  0.78922  1.0000
  H   H4078     1.0  0.43336  0.62435  0.78583  1.0000
  H   H4079     1.0  0.08317  0.50641  0.98537  1.0000
  H   H4080     1.0  0.50100  0.73514  0.81073  1.0000
  H   H4081     1.0  0.24119  0.55233  0.78709  1.0000
  C   C2289     1.0  0.26230  0.63207  0.78593  1.0000
  S   S510      1.0  0.22372  0.75842  0.78592  1.0000
  S   S511      1.0  0.50161  0.93358  0.93494  1.0000
  C   C2290     1.0  0.00212  0.53284  0.88380  1.0000
  H   H4082     1.0  0.50182  0.74042  0.89081  1.0000
  C   C2291     1.0  0.57826  0.05950  0.01605  1.0000
  Fe  Fe257     1.0  0.57428  0.13683  0.01841  1.0000
  S   S512      1.0  0.55120  0.12323  0.02478  1.0000
  Fe  Fe258     1.0  0.57381  0.13914  0.04523  1.0000
  S   S513      1.0  0.55061  0.12545  0.05358  1.0000
  S   S514      1.0  0.58627  0.14538  0.05923  1.0000
  Fe  Fe259     1.0  0.56462  0.10677  0.04054  1.0000
  S   S515      1.0  0.56231  0.07810  0.04847  1.0000
  Fe  Fe260     1.0  0.53906  0.14275  0.03721  1.0000
  C   C2292     1.0  0.57905  0.13068  0.98919  1.0000
  S   S516      1.0  0.58905  0.11881  0.03334  1.0000
  S   S517      1.0  0.56095  0.15809  0.02969  1.0000
  Fe  Fe261     1.0  0.92029  0.43934  0.03905  1.0000
  S   S518      1.0  0.90289  0.45162  0.02473  1.0000
  S   S519      1.0  0.91019  0.42482  0.05880  1.0000
  Fe  Fe262     1.0  0.95391  0.44896  0.02101  1.0000
  S   S520      1.0  0.93944  0.46257  0.00527  1.0000
  Fe  Fe263     1.0  0.91746  0.47372  0.02006  1.0000
  H   H4083     1.0  0.53371  0.05917  0.06523  1.0000
  Fe  Fe264     1.0  0.92635  0.43935  0.01112  1.0000
  H   H4084     1.0  0.72892  0.48406  0.11672  1.0000
  S   S521      1.0  0.93321  0.46251  0.03536  1.0000
  S   S522      1.0  0.94230  0.42487  0.02592  1.0000
  Fe  Fe265     1.0  0.78974  0.44689  0.11388  1.0000
  S   S523      1.0  0.78998  0.44758  0.13372  1.0000
  S   S524      1.0  0.77226  0.43480  0.10740  1.0000
  Fe  Fe266     1.0  0.82329  0.46185  0.10206  1.0000
  S   S525      1.0  0.82689  0.46343  0.12079  1.0000
  S   S526      1.0  0.84023  0.47382  0.08375  1.0000
  Fe  Fe267     1.0  0.81954  0.43676  0.12813  1.0000
  S   S527      1.0  0.83581  0.41609  0.14104  1.0000
  Fe  Fe268     1.0  0.79728  0.47418  0.12476  1.0000
  H   H4085     1.0  0.53440  0.13873  0.98744  1.0000
  S   S528      1.0  0.81897  0.43405  0.10891  1.0000
  S   S529      1.0  0.79394  0.47457  0.10548  1.0000
  Fe  Fe269     1.0  0.56642  0.24451  0.11312  1.0000
  S   S530      1.0  0.57491  0.22216  0.12875  1.0000
  S   S531      1.0  0.54910  0.27034  0.11759  1.0000
  Fe  Fe270     1.0  0.57819  0.22023  0.09372  1.0000
  S   S532      1.0  0.58819  0.19648  0.10795  1.0000
  S   S533      1.0  0.57476  0.21941  0.07440  1.0000
  Fe  Fe271     1.0  0.56279  0.20581  0.12137  1.0000
  S   S534      1.0  0.54124  0.19045  0.13182  1.0000
  Fe  Fe272     1.0  0.59948  0.21543  0.11378  1.0000
  S   S535      1.0  0.62771  0.20978  0.11711  1.0000
  S   S536      1.0  0.55254  0.22875  0.10694  1.0000
  S   S537      1.0  0.59148  0.23865  0.09835  1.0000
  C   C2293     1.0  0.73118  0.28373  0.16363  1.0000
  Fe  Fe273     1.0  0.69464  0.26823  0.15807  1.0000
  H   H4086     1.0  0.99699  0.46554  0.04909  1.0000
  S   S538      1.0  0.72377  0.26590  0.14831  1.0000
  Fe  Fe274     1.0  0.65845  0.26023  0.15957  1.0000
  H   H4087     1.0  0.83060  0.48762  0.03286  1.0000
  S   S539      1.0  0.63623  0.25532  0.15262  1.0000
  Fe  Fe275     1.0  0.66014  0.29259  0.16785  1.0000
  S   S540      1.0  0.64686  0.32116  0.16766  1.0000
  H   H4088     1.0  0.74982  0.48552  0.17194  1.0000
  S   S541      1.0  0.67094  0.28368  0.14947  1.0000
  S   S542      1.0  0.68320  0.24365  0.16652  1.0000
  Fe  Fe276     1.0  0.67164  0.46201  0.13151  1.0000
  S   S543      1.0  0.67983  0.47483  0.14377  1.0000
  S   S544      1.0  0.68830  0.45991  0.11217  1.0000
  Fe  Fe277     1.0  0.63982  0.45135  0.15152  1.0000
  S   S545      1.0  0.64540  0.46342  0.16561  1.0000
  S   S546      1.0  0.61865  0.43476  0.15766  1.0000
  H   H4089     1.0  0.52018  0.07739  0.08088  1.0000
  Fe  Fe278     1.0  0.67430  0.45112  0.15895  1.0000
  S   S547      1.0  0.69264  0.43845  0.17279  1.0000
  H   H4090     1.0  0.99112  0.43184  0.98706  1.0000
  S   S548      1.0  0.66830  0.43728  0.14613  1.0000
  Fe  Fe279     1.0  0.57377  0.35682  0.11395  1.0000
  S   S549      1.0  0.55015  0.35406  0.13001  1.0000
  S   S550      1.0  0.58394  0.33780  0.10070  1.0000
  Fe  Fe280     1.0  0.58163  0.38697  0.12193  1.0000
  S   S551      1.0  0.55849  0.38668  0.13867  1.0000
  S   S552      1.0  0.60085  0.40550  0.11646  1.0000
  Fe  Fe281     1.0  0.56731  0.35721  0.14168  1.0000
  S   S553      1.0  0.56717  0.33877  0.16056  1.0000
  Fe  Fe282     1.0  0.54297  0.38373  0.12558  1.0000
  C   C2294     1.0  0.54156  0.46452  0.13293  1.0000
  S   S554      1.0  0.59185  0.35755  0.12606  1.0000
  S   S555      1.0  0.56535  0.38654  0.10834  1.0000
  H   H4091     1.0  0.97128  0.41241  0.98580  1.0000
  H   H4092     1.0  0.50919  0.09155  0.04450  1.0000
  C   C2295     1.0  0.92484  0.47773  0.06586  1.0000
  H   H4093     1.0  0.56015  0.40340  0.16027  1.0000
  Fe  Fe283     1.0  0.74988  0.34517  0.17530  1.0000
  S   S556      1.0  0.73015  0.36184  0.16346  1.0000
  S   S557      1.0  0.77470  0.32913  0.16512  1.0000
  C   C2296     1.0  0.57536  0.11411  0.99560  1.0000
  H   H4094     1.0  0.50476  0.11526  0.07241  1.0000
  H   H4095     1.0  0.72204  0.47593  0.13955  1.0000
  H   H4096     1.0  0.53271  0.21938  0.15168  1.0000
  C   C2297     1.0  0.93764  0.46243  0.07253  1.0000
  C   C2298     1.0  0.79915  0.41942  0.18243  1.0000
  H   H4097     1.0  0.56036  0.14855  0.08825  1.0000
  H   H4098     1.0  0.52251  0.39010  0.10325  1.0000
  H   H4099     1.0  0.72222  0.23740  0.17062  1.0000
  H   H4100     1.0  0.52106  0.13023  0.09291  1.0000
  H   H4101     1.0  0.83735  0.26951  0.18383  1.0000
  C   C2299     1.0  0.50779  0.34228  0.12755  1.0000
  C   C2300     1.0  0.72047  0.38307  0.16632  1.0000
  C   C2301     1.0  0.71261  0.39582  0.15704  1.0000
  C   C2302     1.0  0.70537  0.41313  0.15872  1.0000
  C   C2303     1.0  0.70447  0.41746  0.17011  1.0000
  H   H4102     1.0  0.95215  0.45259  0.05585  1.0000
  C   C2304     1.0  0.72060  0.38754  0.17751  1.0000
  H   H4103     1.0  0.71253  0.39245  0.14836  1.0000
  H   H4104     1.0  0.70073  0.42317  0.15108  1.0000
  Fe  Fe284     1.0  0.53334  0.99439  0.00941  1.0000
  H   H4105     1.0  0.98532  0.47783  0.00263  1.0000
  C   C2305     1.0  0.61563  0.42499  0.14629  1.0000
  C   C2306     1.0  0.62305  0.43026  0.13343  1.0000
  C   C2307     1.0  0.61878  0.42381  0.12440  1.0000
  C   C2308     1.0  0.60750  0.41165  0.12817  1.0000
  C   C2309     1.0  0.60095  0.40555  0.14110  1.0000
  C   C2310     1.0  0.60474  0.41245  0.15011  1.0000
  H   H4106     1.0  0.63158  0.43981  0.13039  1.0000
  H   H4107     1.0  0.62402  0.42847  0.11442  1.0000
  H   H4108     1.0  0.59246  0.39598  0.14411  1.0000
  H   H4109     1.0  0.59899  0.40829  0.16006  1.0000
  C   C2311     1.0  0.73711  0.26975  0.15721  1.0000
  C   C2312     1.0  0.65662  0.37873  0.15017  1.0000
  H   H4110     1.0  0.98331  0.40750  0.03446  1.0000
  C   C2313     1.0  0.56429  0.03770  0.03235  1.0000
  C   C2314     1.0  0.76498  0.26154  0.16469  1.0000
  C   C2315     1.0  0.75412  0.25879  0.15768  1.0000
  H   H4111     1.0  0.52581  0.05380  0.03546  1.0000
  C   C2316     1.0  0.54764  0.41362  0.16210  1.0000
  H   H4112     1.0  0.77805  0.25292  0.16506  1.0000
  H   H4113     1.0  0.75883  0.24803  0.15270  1.0000
  C   C2317     1.0  0.62443  0.32616  0.16623  1.0000
  C   C2318     1.0  0.61704  0.34310  0.15992  1.0000
  C   C2319     1.0  0.59938  0.34704  0.15821  1.0000
  C   C2320     1.0  0.58887  0.33425  0.16324  1.0000
  C   C2321     1.0  0.59601  0.31755  0.16994  1.0000
  C   C2322     1.0  0.61386  0.31344  0.17129  1.0000
  H   H4114     1.0  0.62505  0.35308  0.15614  1.0000
  H   H4115     1.0  0.59385  0.36002  0.15309  1.0000
  H   H4116     1.0  0.58784  0.30772  0.17387  1.0000
  H   H4117     1.0  0.93153  0.48282  0.05598  1.0000
  C   C2323     1.0  0.63053  0.22247  0.12683  1.0000
  C   C2324     1.0  0.64752  0.22074  0.12928  1.0000
  C   C2325     1.0  0.64971  0.23068  0.13718  1.0000
  C   C2326     1.0  0.63484  0.24223  0.14274  1.0000
  C   C2327     1.0  0.61795  0.24388  0.14030  1.0000
  C   C2328     1.0  0.61585  0.23426  0.13228  1.0000
  H   H4118     1.0  0.65898  0.21171  0.12506  1.0000
  H   H4119     1.0  0.66281  0.22939  0.13897  1.0000
  H   H4120     1.0  0.60642  0.25297  0.14443  1.0000
  H   H4121     1.0  0.60283  0.23609  0.13026  1.0000
  C   C2329     1.0  0.55926  0.28871  0.11306  1.0000
  C   C2330     1.0  0.57693  0.28775  0.10608  1.0000
  C   C2331     1.0  0.58437  0.30292  0.10216  1.0000
  C   C2332     1.0  0.57436  0.31895  0.10551  1.0000
  C   C2333     1.0  0.55673  0.31981  0.11251  1.0000
  C   C2334     1.0  0.54918  0.30476  0.11623  1.0000
  H   H4122     1.0  0.58476  0.27543  0.10355  1.0000
  H   H4123     1.0  0.59790  0.30221  0.09655  1.0000
  H   H4124     1.0  0.54870  0.33225  0.11466  1.0000
  H   H4125     1.0  0.53545  0.30557  0.12147  1.0000
  C   C2335     1.0  0.52785  0.19373  0.12085  1.0000
  C   C2336     1.0  0.89445  0.44255  0.99122  1.0000
  H   H4126     1.0  0.53196  0.29463  0.06804  1.0000
  H   H4127     1.0  0.64193  0.15820  0.09708  1.0000
  C   C2337     1.0  0.52522  0.20141  0.09891  1.0000
  C   C2338     1.0  0.53581  0.19637  0.10795  1.0000
  H   H4128     1.0  0.58409  0.44356  0.13639  1.0000
  H   H4129     1.0  0.63569  0.22026  0.16757  1.0000
  H   H4130     1.0  0.53156  0.20395  0.08894  1.0000
  H   H4131     1.0  0.55022  0.19485  0.10488  1.0000
  C   C2339     1.0  0.82967  0.39565  0.14866  1.0000
  H   H4132     1.0  0.52641  0.08723  0.02421  1.0000
  Fe  Fe285     1.0  0.78877  0.33685  0.17694  1.0000
  C   C2340     1.0  0.82111  0.36277  0.16198  1.0000
  C   C2341     1.0  0.80804  0.37647  0.15693  1.0000
  C   C2342     1.0  0.81240  0.39289  0.15006  1.0000
  H   H4133     1.0  0.79472  0.37426  0.15830  1.0000
  H   H4134     1.0  0.80244  0.40346  0.14602  1.0000
  C   C2343     1.0  0.74910  0.44365  0.10898  1.0000
  C   C2344     1.0  0.73781  0.44529  0.12079  1.0000
  C   C2345     1.0  0.71903  0.45027  0.12195  1.0000
  C   C2346     1.0  0.71163  0.45379  0.11125  1.0000
  C   C2347     1.0  0.72300  0.45208  0.09952  1.0000
  C   C2348     1.0  0.74162  0.44684  0.09842  1.0000
  H   H4135     1.0  0.74348  0.44203  0.12909  1.0000
  H   H4136     1.0  0.71032  0.45110  0.13110  1.0000
  H   H4137     1.0  0.71735  0.45459  0.09128  1.0000
  H   H4138     1.0  0.75025  0.44515  0.08935  1.0000
  H   H4139     1.0  0.53656  0.41008  0.15963  1.0000
  C   C2349     1.0  0.55048  0.15213  0.09675  1.0000
  C   C2350     1.0  0.73467  0.48064  0.13520  1.0000
  H   H4140     1.0  0.50301  0.19284  0.13469  1.0000
  C   C2351     1.0  0.53007  0.28789  0.07821  1.0000
  H   H4141     1.0  0.96671  0.35042  0.99478  1.0000
  C   C2352     1.0  0.89128  0.43833  0.06636  1.0000
  C   C2353     1.0  0.88017  0.43110  0.07750  1.0000
  C   C2354     1.0  0.86461  0.44197  0.08317  1.0000
  C   C2355     1.0  0.86036  0.46008  0.07776  1.0000
  C   C2356     1.0  0.87188  0.46734  0.06690  1.0000
  C   C2357     1.0  0.88718  0.45644  0.06113  1.0000
  H   H4142     1.0  0.88336  0.41706  0.08159  1.0000
  H   H4143     1.0  0.85580  0.43630  0.09159  1.0000
  H   H4144     1.0  0.76521  0.48414  0.15726  1.0000
  H   H4145     1.0  0.89582  0.46197  0.05259  1.0000
  C   C2358     1.0  0.56649  0.06476  0.03735  1.0000
  C   C2359     1.0  0.57504  0.07025  0.02478  1.0000
  C   C2360     1.0  0.56133  0.04834  0.04114  1.0000
  H   H4146     1.0  0.57931  0.08273  0.02183  1.0000
  C   C2361     1.0  0.74404  0.45302  0.17313  1.0000
  C   C2362     1.0  0.58271  0.16625  0.06313  1.0000
  C   C2363     1.0  0.58885  0.16691  0.07358  1.0000
  C   C2364     1.0  0.58572  0.18296  0.07745  1.0000
  C   C2365     1.0  0.57700  0.19872  0.07060  1.0000
  C   C2366     1.0  0.57115  0.19817  0.05997  1.0000
  C   C2367     1.0  0.57377  0.18197  0.05634  1.0000
  H   H4147     1.0  0.59605  0.15487  0.07873  1.0000
  H   H4148     1.0  0.59047  0.18318  0.08554  1.0000
  H   H4149     1.0  0.56461  0.21031  0.05449  1.0000
  H   H4150     1.0  0.56904  0.18167  0.04823  1.0000
  S   S558      1.0  0.55816  0.00121  0.99578  1.0000
  H   H4151     1.0  0.52380  0.24536  0.05427  1.0000
  C   C2368     1.0  0.91185  0.43369  0.98655  1.0000
  H   H4152     1.0  0.00199  0.43489  0.08204  1.0000
  H   H4153     1.0  0.57715  0.10885  0.00520  1.0000
  H   H4154     1.0  0.84817  0.42284  0.04314  1.0000
  H   H4155     1.0  0.52239  0.11603  0.04450  1.0000
  C   C2369     1.0  0.57278  0.04328  0.01976  1.0000
  H   H4156     1.0  0.96462  0.48567  0.99713  1.0000
  Fe  Fe286     1.0  0.56503  0.00630  0.01247  1.0000
  H   H4157     1.0  0.94900  0.46770  0.07297  1.0000
  H   H4158     1.0  0.65380  0.36654  0.14886  1.0000
  H   H4159     1.0  0.51236  0.24734  0.15726  1.0000
  C   C2370     1.0  0.98558  0.40690  0.98626  1.0000
  H   H4160     1.0  0.67550  0.33720  0.16809  1.0000
  H   H4161     1.0  0.56238  0.46102  0.11115  1.0000
  C   C2371     1.0  0.52404  0.09996  0.00477  1.0000
  H   H4162     1.0  0.51211  0.17797  0.06478  1.0000
  C   C2372     1.0  0.83834  0.36556  0.16035  1.0000
  C   C2373     1.0  0.55051  0.43193  0.15444  1.0000
  C   C2374     1.0  0.51886  0.06262  0.06808  1.0000
  S   S559      1.0  0.81669  0.34200  0.17063  1.0000
  C   C2375     1.0  0.94456  0.44705  0.06533  1.0000
  N   N130      1.0  0.50830  0.13255  0.99694  1.0000
  H   H4163     1.0  0.51484  0.23880  0.08328  1.0000
  C   C2376     1.0  0.52666  0.17711  0.06368  1.0000
  H   H4164     1.0  0.68363  0.37511  0.13772  1.0000
  H   H4165     1.0  0.53799  0.44173  0.15701  1.0000
  C   C2377     1.0  0.75110  0.48996  0.16152  1.0000
  C   C2378     1.0  0.98828  0.41926  0.07609  1.0000
  H   H4166     1.0  0.82327  0.39912  0.18192  1.0000
  H   H4167     1.0  0.87295  0.48489  0.09909  1.0000
  H   H4168     1.0  0.52168  0.16299  0.99576  1.0000
  H   H4169     1.0  0.53911  0.25434  0.07437  1.0000
  H   H4170     1.0  0.69177  0.21177  0.05532  1.0000
  H   H4171     1.0  0.51892  0.06993  0.98857  1.0000
  C   C2379     1.0  0.59992  0.24841  0.17995  1.0000
  H   H4172     1.0  0.85584  0.38401  0.15287  1.0000
  H   H4173     1.0  0.57100  0.48196  0.12230  1.0000
  H   H4174     1.0  0.67910  0.34656  0.15135  1.0000
  H   H4175     1.0  0.54408  0.41362  0.17237  1.0000
  H   H4176     1.0  0.64287  0.41736  0.18169  1.0000
  H   H4177     1.0  0.86885  0.48140  0.06286  1.0000
  N   N131      1.0  0.53221  0.14906  0.09737  1.0000
  S   S560      1.0  0.64238  0.47535  0.13569  1.0000
  C   C2380     1.0  0.66052  0.39340  0.16543  1.0000
  C   C2381     1.0  0.57283  0.45518  0.13496  1.0000
  C   C2382     1.0  0.73921  0.22618  0.18429  1.0000
  C   C2383     1.0  0.51582  0.05208  0.03085  1.0000
  H   H4178     1.0  0.53096  0.12159  0.10627  1.0000
  H   H4179     1.0  0.59985  0.48674  0.12396  1.0000
  H   H4180     1.0  0.92747  0.40160  0.10461  1.0000
  H   H4181     1.0  0.86589  0.44831  0.03029  1.0000
  H   H4182     1.0  0.60334  0.26217  0.05629  1.0000
  H   H4183     1.0  0.75804  0.45977  0.15358  1.0000
  H   H4184     1.0  0.50988  0.18267  0.01105  1.0000
  H   H4185     1.0  0.65427  0.23591  0.06026  1.0000
  H   H4186     1.0  0.98699  0.39339  0.99236  1.0000
  H   H4187     1.0  0.62366  0.99195  0.99058  1.0000
  H   H4188     1.0  0.57681  0.43299  0.09630  1.0000
  H   H4189     1.0  0.54916  0.27185  0.09049  1.0000
  H   H4190     1.0  0.62101  0.21023  0.03430  1.0000
  H   H4191     1.0  0.97900  0.44279  0.06253  1.0000
  C   C2384     1.0  0.51442  0.37318  0.16213  1.0000
  H   H4192     1.0  0.67362  0.39776  0.13902  1.0000
  H   H4193     1.0  0.56780  0.45933  0.14421  1.0000
  C   C2385     1.0  0.50812  0.47601  0.13411  1.0000
  C   C2386     1.0  0.59788  0.26819  0.17905  1.0000
  H   H4194     1.0  0.54031  0.07487  0.01249  1.0000
  H   H4195     1.0  0.80987  0.45869  0.01562  1.0000
  C   C2387     1.0  0.53271  0.13036  0.09664  1.0000
  N   N132      1.0  0.62949  0.30524  0.12267  1.0000
  C   C2388     1.0  0.64543  0.29025  0.12030  1.0000
  C   C2389     1.0  0.63361  0.31602  0.13028  1.0000
  C   C2390     1.0  0.61388  0.29703  0.13074  1.0000
  C   C2391     1.0  0.62427  0.31679  0.11059  1.0000
  C   C2392     1.0  0.63958  0.31945  0.09862  1.0000
  C   C2393     1.0  0.64251  0.27641  0.11410  1.0000
  C   C2394     1.0  0.59613  0.31007  0.13501  1.0000
  C   C2395     1.0  0.64891  0.32617  0.12363  1.0000
  C   C2396     1.0  0.65318  0.33492  0.13264  1.0000
  C   C2397     1.0  0.63269  0.33407  0.08802  1.0000
  C   C2398     1.0  0.66030  0.26454  0.10916  1.0000
  C   C2399     1.0  0.58070  0.30038  0.14118  1.0000
  H   H4196     1.0  0.64947  0.28281  0.12940  1.0000
  H   H4197     1.0  0.65739  0.29530  0.11434  1.0000
  H   H4198     1.0  0.62171  0.32642  0.13298  1.0000
  H   H4199     1.0  0.63672  0.30738  0.13939  1.0000
  H   H4200     1.0  0.61768  0.28782  0.13946  1.0000
  H   H4201     1.0  0.61031  0.28892  0.12556  1.0000
  H   H4202     1.0  0.61478  0.31132  0.10779  1.0000
  H   H4203     1.0  0.61662  0.33012  0.11224  1.0000
  H   H4204     1.0  0.64495  0.30717  0.09488  1.0000
  H   H4205     1.0  0.65105  0.32293  0.10047  1.0000
  H   H4206     1.0  0.63417  0.26769  0.12117  1.0000
  H   H4207     1.0  0.63539  0.28273  0.10622  1.0000
  H   H4208     1.0  0.59215  0.32039  0.12686  1.0000
  H   H4209     1.0  0.59751  0.31653  0.14215  1.0000
  H   H4210     1.0  0.66154  0.31731  0.11994  1.0000
  H   H4211     1.0  0.64466  0.33704  0.11580  1.0000
  H   H4212     1.0  0.64122  0.34467  0.13617  1.0000
  H   H4213     1.0  0.65765  0.32477  0.14073  1.0000
  H   H4214     1.0  0.66420  0.34201  0.12758  1.0000
  H   H4215     1.0  0.62188  0.33055  0.08522  1.0000
  H   H4216     1.0  0.62732  0.34688  0.09114  1.0000
  H   H4217     1.0  0.64382  0.33580  0.07960  1.0000
  H   H4218     1.0  0.66765  0.25789  0.11692  1.0000
  H   H4219     1.0  0.65763  0.25415  0.10550  1.0000
  H   H4220     1.0  0.66881  0.27245  0.10136  1.0000
  H   H4221     1.0  0.58393  0.28999  0.14956  1.0000
  H   H4222     1.0  0.56831  0.31001  0.14435  1.0000
  H   H4223     1.0  0.57807  0.29421  0.13430  1.0000
  N   N133      1.0  0.84034  0.45999  0.04094  1.0000
  C   C2400     1.0  0.82824  0.45542  0.03450  1.0000
  C   C2401     1.0  0.83122  0.46087  0.05456  1.0000
  C   C2402     1.0  0.84363  0.47821  0.03395  1.0000
  C   C2403     1.0  0.85829  0.44717  0.04027  1.0000
  C   C2404     1.0  0.85801  0.42741  0.04618  1.0000
  H   H4224     1.0  0.89074  0.44458  0.00081  1.0000
  H   H4225     1.0  0.83857  0.46689  0.01436  1.0000
  C   C2405     1.0  0.81870  0.44777  0.06186  1.0000
  C   C2406     1.0  0.81349  0.44776  0.07600  1.0000
  H   H4226     1.0  0.60113  0.24664  0.17028  1.0000
  H   H4227     1.0  0.56021  0.02511  0.03533  1.0000
  H   H4228     1.0  0.91274  0.47334  0.06574  1.0000
  H   H4229     1.0  0.81531  0.46544  0.03495  1.0000
  H   H4230     1.0  0.82437  0.44263  0.03953  1.0000
  H   H4231     1.0  0.84144  0.45912  0.06019  1.0000
  H   H4232     1.0  0.82252  0.47426  0.05513  1.0000
  C   C2407     1.0  0.51154  0.15918  0.00439  1.0000
  S   S561      1.0  0.53893  0.00202  0.02557  1.0000
  H   H4233     1.0  0.66168  0.37621  0.12508  1.0000
  H   H4234     1.0  0.86682  0.45069  0.04523  1.0000
  H   H4235     1.0  0.56157  0.43465  0.15746  1.0000
  H   H4236     1.0  0.85482  0.42532  0.05668  1.0000
  H   H4237     1.0  0.61830  0.16846  0.09886  1.0000
  H   H4238     1.0  0.51532  0.34010  0.10788  1.0000
  H   H4239     1.0  0.86767  0.47901  0.03997  1.0000
  H   H4240     1.0  0.55617  0.42716  0.09676  1.0000
  H   H4241     1.0  0.80611  0.45183  0.05824  1.0000
  H   H4242     1.0  0.82499  0.43399  0.06085  1.0000
  H   H4243     1.0  0.80689  0.46132  0.07761  1.0000
  H   H4244     1.0  0.80398  0.43885  0.08096  1.0000
  H   H4245     1.0  0.82561  0.44291  0.08017  1.0000
  H   H4246     1.0  0.52136  0.44880  0.13512  1.0000
  H   H4247     1.0  0.51241  0.23349  0.11241  1.0000
  H   H4248     1.0  0.68897  0.47931  0.18210  1.0000
  C   C2408     1.0  0.54935  0.27974  0.08070  1.0000
  H   H4249     1.0  0.71818  0.29238  0.16318  1.0000
  H   H4250     1.0  0.93284  0.44387  0.06343  1.0000
  H   H4251     1.0  0.50527  0.47494  0.14451  1.0000
  C   C2409     1.0  0.52031  0.15263  0.10985  1.0000
  H   H4252     1.0  0.50291  0.06220  0.12167  1.0000
  H   H4253     1.0  0.61338  0.21905  0.16893  1.0000
  H   H4254     1.0  0.72656  0.37765  0.18476  1.0000
  H   H4255     1.0  0.98169  0.41905  0.00210  1.0000
  H   H4256     1.0  0.98408  0.42359  0.05015  1.0000
  H   H4257     1.0  0.70488  0.32342  0.15654  1.0000
  H   H4258     1.0  0.96904  0.38162  0.98687  1.0000
  C   C2410     1.0  0.74935  0.43300  0.17391  1.0000
  H   H4259     1.0  0.98370  0.41217  0.08594  1.0000
  H   H4260     1.0  0.70178  0.48947  0.15322  1.0000
  H   H4261     1.0  0.51437  0.05147  0.07555  1.0000
  H   H4262     1.0  0.56687  0.09132  0.99460  1.0000
  H   H4263     1.0  0.83886  0.37176  0.18395  1.0000
  C   C2411     1.0  0.62816  0.37706  0.17515  1.0000
  H   H4264     1.0  0.61628  0.35372  0.18288  1.0000
  H   H4265     1.0  0.77279  0.20213  0.18309  1.0000
  H   H4266     1.0  0.51318  0.06434  0.05969  1.0000
  H   H4267     1.0  0.52863  0.18960  0.06508  1.0000
  C   C2412     1.0  0.50318  0.07547  0.11532  1.0000
  H   H4268     1.0  0.60600  0.02485  0.98678  1.0000
  H   H4269     1.0  0.51743  0.07655  0.11146  1.0000
  H   H4270     1.0  0.52304  0.04415  0.02356  1.0000
  H   H4271     1.0  0.70752  0.33448  0.16770  1.0000
  H   H4272     1.0  0.51102  0.25561  0.14074  1.0000
  Fe  Fe287     1.0  0.65042  0.48637  0.14934  1.0000
  H   H4273     1.0  0.81928  0.42822  0.16595  1.0000
  H   H4274     1.0  0.67643  0.48157  0.17035  1.0000
  H   H4275     1.0  0.54112  0.23911  0.14328  1.0000
  H   H4276     1.0  0.98502  0.39290  0.04963  1.0000
  H   H4277     1.0  0.66311  0.22341  0.04784  1.0000
  S   S562      1.0  0.58478  0.14377  0.99722  1.0000
  C   C2413     1.0  0.52347  0.23693  0.06394  1.0000
  S   S563      1.0  0.77348  0.27899  0.17933  1.0000
  H   H4278     1.0  0.98831  0.35302  0.99547  1.0000
  C   C2414     1.0  0.64778  0.36624  0.17279  1.0000
  C   C2415     1.0  0.97967  0.35366  0.98897  1.0000
  H   H4279     1.0  0.51547  0.34529  0.16772  1.0000
  H   H4280     1.0  0.52107  0.28829  0.16630  1.0000
  H   H4281     1.0  0.63094  0.17054  0.10935  1.0000
  H   H4282     1.0  0.50556  0.38575  0.15834  1.0000
  C   C2416     1.0  0.87636  0.41554  0.04236  1.0000
  C   C2417     1.0  0.67980  0.36436  0.16323  1.0000
  N   N134      1.0  0.75960  0.38206  0.12493  1.0000
  C   C2418     1.0  0.76563  0.36324  0.13186  1.0000
  C   C2419     1.0  0.75593  0.39495  0.13348  1.0000
  C   C2420     1.0  0.74215  0.38323  0.12134  1.0000
  C   C2421     1.0  0.77308  0.38709  0.11296  1.0000
  C   C2422     1.0  0.79198  0.38661  0.11465  1.0000
  C   C2423     1.0  0.76976  0.34853  0.12427  1.0000
  C   C2424     1.0  0.73238  0.40211  0.11545  1.0000
  C   C2425     1.0  0.76687  0.39010  0.14394  1.0000
  C   C2426     1.0  0.76262  0.40532  0.15078  1.0000
  C   C2427     1.0  0.80484  0.39043  0.10183  1.0000
  C   C2428     1.0  0.77534  0.33019  0.13245  1.0000
  C   C2429     1.0  0.71369  0.40204  0.11414  1.0000
  H   H4283     1.0  0.75520  0.35993  0.14049  1.0000
  H   H4284     1.0  0.77791  0.36168  0.13537  1.0000
  H   H4285     1.0  0.75748  0.40834  0.12775  1.0000
  H   H4286     1.0  0.74177  0.39679  0.13876  1.0000
  H   H4287     1.0  0.73256  0.37765  0.12985  1.0000
  H   H4288     1.0  0.74430  0.37510  0.11426  1.0000
  H   H4289     1.0  0.77446  0.37875  0.10615  1.0000
  H   H4290     1.0  0.76816  0.40081  0.10793  1.0000
  H   H4291     1.0  0.79794  0.37351  0.11999  1.0000
  H   H4292     1.0  0.79122  0.39705  0.11966  1.0000
  H   H4293     1.0  0.75782  0.34828  0.12102  1.0000
  H   H4294     1.0  0.78096  0.35045  0.11595  1.0000
  H   H4295     1.0  0.74007  0.40706  0.10586  1.0000
  H   H4296     1.0  0.73052  0.41183  0.12131  1.0000
  H   H4297     1.0  0.76329  0.37832  0.15116  1.0000
  H   H4298     1.0  0.78149  0.38708  0.14002  1.0000
  H   H4299     1.0  0.74799  0.40873  0.15484  1.0000
  H   H4300     1.0  0.76987  0.40130  0.15864  1.0000
  H   H4301     1.0  0.76689  0.41722  0.14412  1.0000
  H   H4302     1.0  0.80663  0.38012  0.09643  1.0000
  H   H4303     1.0  0.79965  0.40367  0.09621  1.0000
  H   H4304     1.0  0.81814  0.39044  0.10334  1.0000
  H   H4305     1.0  0.77833  0.31989  0.12682  1.0000
  H   H4306     1.0  0.78759  0.32933  0.13582  1.0000
  H   H4307     1.0  0.76431  0.32731  0.14075  1.0000
  H   H4308     1.0  0.71454  0.39284  0.10807  1.0000
  H   H4309     1.0  0.70515  0.39804  0.12360  1.0000
  H   H4310     1.0  0.70720  0.41561  0.10972  1.0000
  H   H4311     1.0  0.58635  0.13501  0.09847  1.0000
  H   H4312     1.0  0.50378  0.38436  0.09085  1.0000
  C   C2430     1.0  0.58131  0.47029  0.12537  1.0000
  H   H4313     1.0  0.52154  0.16534  0.11138  1.0000
  S   S564      1.0  0.68495  0.27954  0.17544  1.0000
  N   N135      1.0  0.66121  0.37566  0.16292  1.0000
  H   H4314     1.0  0.56130  0.11704  0.09368  1.0000
  H   H4315     1.0  0.53276  0.09967  0.99527  1.0000
  C   C2431     1.0  0.62306  0.19608  0.03930  1.0000
  H   H4316     1.0  0.55287  0.30286  0.08570  1.0000
  S   S565      1.0  0.64656  0.27004  0.17766  1.0000
  H   H4317     1.0  0.53273  0.14915  0.07100  1.0000
  H   H4318     1.0  0.61164  0.19072  0.03902  1.0000
  H   H4319     1.0  0.73953  0.42867  0.17059  1.0000
  C   C2432     1.0  0.67085  0.38518  0.13848  1.0000
  H   H4320     1.0  0.54358  0.09441  0.09590  1.0000
  H   H4321     1.0  0.56050  0.30248  0.06901  1.0000
  H   H4322     1.0  0.51269  0.09381  0.00565  1.0000
  C   C2433     1.0  0.52571  0.26214  0.07263  1.0000
  C   C2434     1.0  0.51328  0.07969  0.07304  1.0000
  H   H4323     1.0  0.84679  0.48773  0.04985  1.0000
  C   C2435     1.0  0.68317  0.34580  0.16022  1.0000
  C   C2436     1.0  0.56962  0.10417  0.98956  1.0000
  C   C2437     1.0  0.50922  0.19497  0.12471  1.0000
  H   H4324     1.0  0.54871  0.16094  0.07175  1.0000
  H   H4325     1.0  0.55709  0.12845  0.11163  1.0000
  C   C2438     1.0  0.53432  0.16122  0.07320  1.0000
  H   H4326     1.0  0.51645  0.37394  0.17136  1.0000
  H   H4327     1.0  0.74936  0.42588  0.18388  1.0000
  S   S566      1.0  0.57717  0.03024  0.00845  1.0000
  H   H4328     1.0  0.61118  0.21457  0.07543  1.0000
  H   H4329     1.0  0.61959  0.18666  0.17792  1.0000
  H   H4330     1.0  0.74573  0.46884  0.13406  1.0000
  C   C2439     1.0  0.50289  0.35610  0.15114  1.0000
  H   H4331     1.0  0.67474  0.39307  0.11800  1.0000
  C   C2440     1.0  0.50906  0.11895  0.04273  1.0000
  H   H4332     1.0  0.55438  0.12888  0.07929  1.0000
  H   H4333     1.0  0.55181  0.14923  0.11651  1.0000
  C   C2441     1.0  0.51220  0.24365  0.14848  1.0000
  C   C2442     1.0  0.52452  0.46188  0.13008  1.0000
  C   C2443     1.0  0.50359  0.33914  0.11595  1.0000
  N   N136      1.0  0.55817  0.44996  0.13135  1.0000
  C   C2444     1.0  0.55523  0.43249  0.14001  1.0000
  C   C2445     1.0  0.56452  0.44784  0.11775  1.0000
  H   H4334     1.0  0.65185  0.39900  0.12629  1.0000
  H   H4335     1.0  0.50788  0.09808  0.09250  1.0000
  C   C2446     1.0  0.55656  0.43503  0.11370  1.0000
  C   C2447     1.0  0.56194  0.43650  0.09938  1.0000
  H   H4336     1.0  0.50596  0.30737  0.06315  1.0000
  H   H4337     1.0  0.56752  0.42205  0.13812  1.0000
  H   H4338     1.0  0.54452  0.42788  0.13796  1.0000
  C   C2448     1.0  0.97898  0.48629  0.99476  1.0000
  H   H4339     1.0  0.57931  0.44236  0.11570  1.0000
  H   H4340     1.0  0.64242  0.18681  0.17769  1.0000
  Fe  Fe288     1.0  0.76904  0.30697  0.18172  1.0000
  H   H4341     1.0  0.68623  0.23566  0.05136  1.0000
  H   H4342     1.0  0.56185  0.42111  0.11820  1.0000
  H   H4343     1.0  0.54177  0.43736  0.11649  1.0000
  H   H4344     1.0  0.55681  0.45015  0.09431  1.0000
  H   H4345     1.0  0.93019  0.45813  0.08232  1.0000
  H   H4346     1.0  0.52892  0.12344  0.00787  1.0000
  H   H4347     1.0  0.53813  0.46706  0.14266  1.0000
  H   H4348     1.0  0.53143  0.22861  0.13525  1.0000
  C   C2449     1.0  0.71233  0.40474  0.17949  1.0000
  H   H4349     1.0  0.62719  0.38938  0.17822  1.0000
  H   H4350     1.0  0.60962  0.27302  0.17239  1.0000
  H   H4351     1.0  0.84862  0.44382  0.01943  1.0000
  H   H4352     1.0  0.62272  0.18471  0.07713  1.0000
  H   H4353     1.0  0.58497  0.06382  0.00636  1.0000
  H   H4354     1.0  0.73584  0.45746  0.15565  1.0000
  S   S567      1.0  0.50633  0.00454  0.00403  1.0000
  C   C2450     1.0  0.53044  0.23187  0.14445  1.0000
  H   H4355     1.0  0.84851  0.35500  0.16419  1.0000
  H   H4356     1.0  0.73044  0.45583  0.17922  1.0000
  C   C2451     1.0  0.99054  0.45729  0.03432  1.0000
  H   H4357     1.0  0.65216  0.36108  0.18197  1.0000
  H   H4358     1.0  0.55717  0.27100  0.07405  1.0000
  C   C2452     1.0  0.51717  0.11915  0.00696  1.0000
  H   H4359     1.0  0.63979  0.17703  0.15923  1.0000
  C   C2453     1.0  0.66278  0.39320  0.17878  1.0000
  C   C2454     1.0  0.82275  0.44871  0.01515  1.0000
  C   C2455     1.0  0.74232  0.28687  0.17032  1.0000
  C   C2456     1.0  0.70297  0.33656  0.15876  1.0000
  C   C2457     1.0  0.99120  0.41821  0.99287  1.0000
  H   H4360     1.0  0.64624  0.17567  0.07377  1.0000
  H   H4361     1.0  0.92044  0.48878  0.07097  1.0000
  H   H4362     1.0  0.54416  0.47727  0.12660  1.0000
  H   H4363     1.0  0.58065  0.15632  0.10294  1.0000
  C   C2458     1.0  0.75923  0.27571  0.17089  1.0000
  H   H4364     1.0  0.62664  0.19849  0.09379  1.0000
  N   N137      1.0  0.73813  0.48325  0.15720  1.0000
  C   C2459     1.0  0.54737  0.10350  0.08668  1.0000
  C   C2460     1.0  0.50238  0.24554  0.11458  1.0000
  H   H4365     1.0  0.51555  0.22681  0.06524  1.0000
  H   H4366     1.0  0.72392  0.21399  0.17681  1.0000
  H   H4367     1.0  0.51820  0.27855  0.15445  1.0000
  H   H4368     1.0  0.85175  0.47788  0.02420  1.0000
  C   C2461     1.0  0.84250  0.38197  0.15392  1.0000
  C   C2462     1.0  0.55003  0.12063  0.08871  1.0000
  H   H4369     1.0  0.52628  0.46331  0.11973  1.0000
  C   C2463     1.0  0.55869  0.14241  0.10853  1.0000
  H   H4370     1.0  0.69020  0.37149  0.15676  1.0000
  C   C2464     1.0  0.50609  0.35735  0.16388  1.0000
  H   H4371     1.0  0.52480  0.14226  0.11789  1.0000
  H   H4372     1.0  0.51860  0.27417  0.10072  1.0000
  S   S568      1.0  0.98397  0.44427  0.01594  1.0000
  H   H4373     1.0  0.58382  0.13606  0.11471  1.0000
  C   C2465     1.0  0.55960  0.29424  0.07877  1.0000
  H   H4374     1.0  0.81445  0.27109  0.18313  1.0000
  H   H4375     1.0  0.50589  0.30772  0.14258  1.0000
  C   C2466     1.0  0.65747  0.41193  0.18126  1.0000
  H   H4376     1.0  0.82857  0.44793  0.00508  1.0000
  C   C2467     1.0  0.50663  0.20291  0.10267  1.0000
  H   H4377     1.0  0.51194  0.35518  0.12486  1.0000
  C   C2468     1.0  0.80450  0.42931  0.16876  1.0000
  C   C2469     1.0  0.74416  0.46330  0.15925  1.0000
  C   C2470     1.0  0.63082  0.19356  0.17316  1.0000
  H   H4378     1.0  0.59372  0.24805  0.07045  1.0000
  H   H4379     1.0  0.79787  0.44358  0.16776  1.0000
  H   H4380     1.0  0.53736  0.22990  0.06494  1.0000
  C   C2471     1.0  0.66434  0.38853  0.12624  1.0000
  H   H4381     1.0  0.62472  0.18005  0.05777  1.0000
  H   H4382     1.0  0.55506  0.04378  0.05089  1.0000
  N   N138      1.0  0.95615  0.43053  0.07158  1.0000
  C   C2472     1.0  0.97327  0.43511  0.07193  1.0000
  C   C2473     1.0  0.63651  0.19133  0.15945  1.0000
  C   C2474     1.0  0.94685  0.42362  0.08497  1.0000
  C   C2475     1.0  0.95987  0.41641  0.06409  1.0000
  C   C2476     1.0  0.97128  0.42023  0.05043  1.0000
  H   H4383     1.0  0.73775  0.29782  0.17510  1.0000
  C   C2477     1.0  0.92760  0.42080  0.08661  1.0000
  C   C2478     1.0  0.50586  0.30658  0.15265  1.0000
  H   H4384     1.0  0.88015  0.48953  0.08209  1.0000
  C   C2479     1.0  0.97610  0.40407  0.04448  1.0000
  C   C2480     1.0  0.59326  0.47659  0.13116  1.0000
  C   C2481     1.0  0.91927  0.41444  0.10055  1.0000
  H   H4385     1.0  0.65647  0.20949  0.07668  1.0000
  H   H4386     1.0  0.80078  0.17745  0.17867  1.0000
  H   H4387     1.0  0.64127  0.21291  0.04659  1.0000
  H   H4388     1.0  0.52299  0.17607  0.08799  1.0000
  C   C2482     1.0  0.50914  0.32368  0.15479  1.0000
  H   H4389     1.0  0.95484  0.41057  0.08899  1.0000
  H   H4390     1.0  0.96637  0.40336  0.06928  1.0000
  H   H4391     1.0  0.94706  0.41426  0.06308  1.0000
  H   H4392     1.0  0.60391  0.46538  0.13444  1.0000
  H   H4393     1.0  0.96363  0.43140  0.04437  1.0000
  C   C2483     1.0  0.70449  0.48237  0.16265  1.0000
  H   H4394     1.0  0.78432  0.42127  0.18471  1.0000
  H   H4395     1.0  0.92786  0.41063  0.08151  1.0000
  H   H4396     1.0  0.80628  0.39417  0.17671  1.0000
  H   H4397     1.0  0.65217  0.19076  0.05151  1.0000
  H   H4398     1.0  0.64866  0.19681  0.15453  1.0000
  H   H4399     1.0  0.54634  0.09402  0.01424  1.0000
  H   H4400     1.0  0.62678  0.22484  0.07764  1.0000
  H   H4401     1.0  0.61928  0.30055  0.17648  1.0000
  H   H4402     1.0  0.96380  0.39979  0.04464  1.0000
  C   C2484     1.0  0.53490  0.08834  0.01454  1.0000
  H   H4403     1.0  0.75132  0.22312  0.17687  1.0000
  C   C2485     1.0  0.72290  0.22678  0.17928  1.0000
  C   C2486     1.0  0.80861  0.39947  0.18421  1.0000
  H   H4404     1.0  0.70800  0.46797  0.16310  1.0000
  H   H4405     1.0  0.90557  0.41252  0.10138  1.0000
  H   H4406     1.0  0.68284  0.22425  0.06774  1.0000
  H   H4407     1.0  0.91809  0.42444  0.10607  1.0000
  H   H4408     1.0  0.61111  0.23107  0.05404  1.0000
  H   H4409     1.0  0.54981  0.16655  0.09554  1.0000
  C   C2487     1.0  0.52425  0.16241  0.08688  1.0000
  H   H4410     1.0  0.64992  0.18716  0.09137  1.0000
  C   C2488     1.0  0.68214  0.22373  0.05809  1.0000
  H   H4411     1.0  0.60482  0.07675  0.98696  1.0000
  H   H4412     1.0  0.94618  0.43245  0.09128  1.0000
  H   H4413     1.0  0.56009  0.09671  0.08123  1.0000
  H   H4414     1.0  0.57344  0.28806  0.08027  1.0000
  H   H4415     1.0  0.64721  0.35420  0.17001  1.0000
  H   H4416     1.0  0.97620  0.46026  0.03790  1.0000
  H   H4417     1.0  0.64387  0.38884  0.14964  1.0000
  S   S569      1.0  0.92791  0.42509  0.99604  1.0000
  H   H4418     1.0  0.66748  0.19522  0.06589  1.0000
  S   S570      1.0  0.50951  0.15396  0.03919  1.0000
  H   H4419     1.0  0.67705  0.38773  0.17951  1.0000
  C   C2489     1.0  0.51007  0.06179  0.99588  1.0000
  H   H4420     1.0  0.52293  0.32521  0.14948  1.0000
  H   H4421     1.0  0.53361  0.17555  0.05390  1.0000
  C   C2490     1.0  0.57862  0.14249  0.10594  1.0000
  H   H4422     1.0  0.62555  0.19817  0.15425  1.0000
  H   H4423     1.0  0.87997  0.41652  0.03195  1.0000
  H   H4424     1.0  0.71139  0.34450  0.15092  1.0000
  Fe  Fe289     1.0  0.67242  0.25583  0.18363  1.0000
  C   C2491     1.0  0.50855  0.38967  0.10737  1.0000
  H   H4425     1.0  0.91847  0.43324  0.08301  1.0000
  H   H4426     1.0  0.87605  0.40152  0.04713  1.0000
  H   H4427     1.0  0.51596  0.35579  0.14434  1.0000
  H   H4428     1.0  0.53683  0.10646  0.08114  1.0000
  H   H4429     1.0  0.50299  0.28829  0.05894  1.0000
  C   C2492     1.0  0.83595  0.45402  0.02043  1.0000
  H   H4430     1.0  0.61338  0.25592  0.06992  1.0000
  H   H4431     1.0  0.58988  0.46553  0.11681  1.0000
  H   H4432     1.0  0.80026  0.42385  0.16220  1.0000
  H   H4433     1.0  0.63046  0.23930  0.05274  1.0000
  H   H4434     1.0  0.50720  0.25144  0.12057  1.0000
  C   C2493     1.0  0.51691  0.26553  0.09500  1.0000
  H   H4435     1.0  0.86814  0.45486  0.98720  1.0000
  H   H4436     1.0  0.61085  0.20187  0.05768  1.0000
  H   H4437     1.0  0.51876  0.15081  0.01189  1.0000
  H   H4438     1.0  0.88688  0.41939  0.04522  1.0000
  H   H4439     1.0  0.52381  0.29857  0.08369  1.0000
  N   N139      1.0  0.63889  0.20415  0.06699  1.0000
  C   C2494     1.0  0.63985  0.20089  0.05416  1.0000
  C   C2495     1.0  0.65675  0.20727  0.06727  1.0000
  C   C2496     1.0  0.63603  0.18732  0.07666  1.0000
  C   C2497     1.0  0.62375  0.21936  0.07050  1.0000
  C   C2498     1.0  0.61861  0.23503  0.05949  1.0000
  C   C2499     1.0  0.62370  0.19430  0.05308  1.0000
  C   C2500     1.0  0.63636  0.18696  0.09049  1.0000
  C   C2501     1.0  0.66305  0.22347  0.05771  1.0000
  C   C2502     1.0  0.68710  0.48630  0.17239  1.0000
  C   C2503     1.0  0.60655  0.25124  0.06440  1.0000
  H   H4440     1.0  0.76299  0.42933  0.16805  1.0000
  C   C2504     1.0  0.63156  0.16998  0.09945  1.0000
  N   N140      1.0  0.51779  0.27508  0.08130  1.0000
  S   S571      1.0  0.51370  0.39758  0.12836  1.0000
  H   H4441     1.0  0.50799  0.11853  0.01643  1.0000
  C   C2505     1.0  0.51484  0.24811  0.07396  1.0000
  H   H4442     1.0  0.51041  0.16122  0.08736  1.0000
  C   C2506     1.0  0.62489  0.21347  0.17375  1.0000
  C   C2507     1.0  0.71964  0.48894  0.16495  1.0000
  H   H4443     1.0  0.52771  0.37163  0.15549  1.0000
  H   H4444     1.0  0.97040  0.44416  0.07852  1.0000
  H   H4445     1.0  0.52831  0.25400  0.09561  1.0000
  H   H4446     1.0  0.52837  0.26930  0.06257  1.0000
  C   C2508     1.0  0.52070  0.29059  0.15616  1.0000
  H   H4447     1.0  0.51950  0.33184  0.12986  1.0000
  H   H4448     1.0  0.82012  0.43550  0.02053  1.0000
  H   H4449     1.0  0.66506  0.42080  0.17363  1.0000
  H   H4450     1.0  0.67139  0.39951  0.15864  1.0000
  H   H4451     1.0  0.63567  0.18846  0.03434  1.0000
  H   H4452     1.0  0.89511  0.49081  0.04260  1.0000
  H   H4453     1.0  0.58518  0.48257  0.13932  1.0000
  H   H4454     1.0  0.65808  0.20953  0.17749  1.0000
  H   H4455     1.0  0.71966  0.48499  0.17524  1.0000
  H   H4456     1.0  0.62836  0.24233  0.17906  1.0000
  H   H4457     1.0  0.50910  0.06539  0.02622  1.0000
  H   H4458     1.0  0.75376  0.45648  0.17705  1.0000
  H   H4459     1.0  0.99236  0.40967  0.06981  1.0000
  H   H4460     1.0  0.62279  0.38068  0.16642  1.0000
  H   H4461     1.0  0.68277  0.36193  0.17277  1.0000
  H   H4462     1.0  0.50484  0.19318  0.04348  1.0000
  C   C2509     1.0  0.99755  0.45006  0.02353  1.0000
  H   H4463     1.0  0.50989  0.32098  0.16492  1.0000
  H   H4464     1.0  0.50377  0.14667  0.06814  1.0000
  H   H4465     1.0  0.64784  0.40292  0.16362  1.0000
  H   H4466     1.0  0.53399  0.29272  0.15020  1.0000
  H   H4467     1.0  0.51866  0.05084  0.00145  1.0000
  H   H4468     1.0  0.58566  0.27576  0.17540  1.0000
  H   H4469     1.0  0.51848  0.09024  0.06534  1.0000
  H   H4470     1.0  0.50913  0.02911  0.04449  1.0000
  C   C2510     1.0  0.85375  0.48678  0.03998  1.0000
  H   H4471     1.0  0.51032  0.48950  0.12914  1.0000
  C   C2511     1.0  0.61659  0.23727  0.18542  1.0000
  H   H4472     1.0  0.84579  0.31098  0.23086  1.0000
  H   H4473     1.0  0.95643  0.27054  0.35604  1.0000
  C   C2512     1.0  0.86995  0.06531  0.33637  1.0000
  Fe  Fe290     1.0  0.73793  0.22692  0.24646  1.0000
  S   S572      1.0  0.71617  0.22159  0.26363  1.0000
  S   S573      1.0  0.73491  0.24289  0.22720  1.0000
  Fe  Fe291     1.0  0.76807  0.20808  0.26027  1.0000
  S   S574      1.0  0.74916  0.20103  0.27873  1.0000
  S   S575      1.0  0.79774  0.20062  0.25938  1.0000
  Fe  Fe292     1.0  0.73382  0.19442  0.26717  1.0000
  S   S576      1.0  0.72578  0.16813  0.27329  1.0000
  Fe  Fe293     1.0  0.73347  0.22875  0.27359  1.0000
  S   S577      1.0  0.72074  0.24576  0.28791  1.0000
  S   S578      1.0  0.75414  0.19920  0.24900  1.0000
  S   S579      1.0  0.75372  0.23647  0.25609  1.0000
  Fe  Fe294     1.0  0.82860  0.10682  0.28373  1.0000
  S   S580      1.0  0.82783  0.12407  0.29665  1.0000
  S   S581      1.0  0.82324  0.11800  0.26416  1.0000
  Fe  Fe295     1.0  0.83311  0.07292  0.30388  1.0000
  S   S582      1.0  0.83306  0.08726  0.31857  1.0000
  S   S583      1.0  0.83270  0.04376  0.30897  1.0000
  Fe  Fe296     1.0  0.81033  0.10720  0.31119  1.0000
  S   S584      1.0  0.78552  0.12005  0.32354  1.0000
  Fe  Fe297     1.0  0.85067  0.10292  0.30278  1.0000
  S   S585      1.0  0.87516  0.11063  0.30456  1.0000
  S   S586      1.0  0.80905  0.09177  0.29774  1.0000
  S   S587      1.0  0.85291  0.08666  0.28867  1.0000
  Fe  Fe298     1.0  0.88365  0.18306  0.33410  1.0000
  S   S588      1.0  0.91294  0.17680  0.32478  1.0000
  S   S589      1.0  0.86261  0.16703  0.33769  1.0000
  Fe  Fe299     1.0  0.88512  0.22013  0.33582  1.0000
  S   S590      1.0  0.91406  0.21733  0.32591  1.0000
  Fe  Fe300     1.0  0.90683  0.20451  0.31311  1.0000
  S   S591      1.0  0.91582  0.21036  0.29190  1.0000
  Fe  Fe301     1.0  0.91726  0.19024  0.33862  1.0000
  S   S592      1.0  0.93661  0.18395  0.35151  1.0000
  S   S593      1.0  0.87747  0.20995  0.32176  1.0000
  Fe  Fe302     1.0  0.79584  0.29057  0.28893  1.0000
  S   S594      1.0  0.80639  0.28753  0.26889  1.0000
  S   S595      1.0  0.76882  0.28693  0.30109  1.0000
  Fe  Fe303     1.0  0.82936  0.30115  0.29040  1.0000
  S   S596      1.0  0.84292  0.29901  0.27034  1.0000
  S   S597      1.0  0.84174  0.30310  0.30586  1.0000
  Fe  Fe304     1.0  0.81577  0.31257  0.26587  1.0000
  S   S598      1.0  0.81383  0.33207  0.24732  1.0000
  Fe  Fe305     1.0  0.83257  0.27417  0.27473  1.0000
  S   S599      1.0  0.84926  0.25053  0.26670  1.0000
  S   S600      1.0  0.80302  0.31699  0.28560  1.0000
  S   S601      1.0  0.82115  0.27489  0.29517  1.0000
  C   C2513     1.0  0.68169  0.01097  0.25091  1.0000
  C   C2514     1.0  0.97521  0.39251  0.35977  1.0000
  C   C2515     1.0  0.80831  0.39436  0.20677  1.0000
  Fe  Fe306     1.0  0.76016  0.33052  0.20076  1.0000
  S   S602      1.0  0.75263  0.32954  0.22179  1.0000
  N   N141      1.0  0.83537  0.19353  0.29664  1.0000
  H   H4474     1.0  0.57862  0.03413  0.36328  1.0000
  S   S603      1.0  0.66012  0.02737  0.30455  1.0000
  Fe  Fe307     1.0  0.66354  0.13192  0.33078  1.0000
  S   S604      1.0  0.68479  0.12603  0.34200  1.0000
  S   S605      1.0  0.65782  0.15843  0.31753  1.0000
  Fe  Fe308     1.0  0.65403  0.09564  0.34168  1.0000
  S   S606      1.0  0.67450  0.08696  0.35372  1.0000
  S   S607      1.0  0.63630  0.07643  0.34436  1.0000
  Fe  Fe309     1.0  0.66466  0.11410  0.35793  1.0000
  H   H4475     1.0  0.73292  0.18215  0.23791  1.0000
  Fe  Fe310     1.0  0.69269  0.09956  0.33661  1.0000
  S   S608      1.0  0.72067  0.08390  0.33054  1.0000
  S   S609      1.0  0.64261  0.12200  0.34726  1.0000
  S   S610      1.0  0.67290  0.10636  0.32408  1.0000
  C   C2516     1.0  0.70211  0.03319  0.24339  1.0000
  S   S611      1.0  0.80693  0.01727  0.26994  1.0000
  H   H4476     1.0  0.65612  0.99349  0.25083  1.0000
  Fe  Fe311     1.0  0.79208  0.99494  0.27603  1.0000
  H   H4477     1.0  0.92883  0.41557  0.33139  1.0000
  S   S612      1.0  0.89696  0.36850  0.34304  1.0000
  Fe  Fe312     1.0  0.90573  0.31691  0.35174  1.0000
  S   S613      1.0  0.91396  0.33187  0.33192  1.0000
  H   H4478     1.0  0.98861  0.41350  0.34691  1.0000
  Fe  Fe313     1.0  0.92319  0.34892  0.34067  1.0000
  S   S614      1.0  0.95030  0.35605  0.33418  1.0000
  Fe  Fe314     1.0  0.88686  0.34978  0.33610  1.0000
  S   S615      1.0  0.87087  0.35937  0.32065  1.0000
  H   H4479     1.0  0.92715  0.39269  0.33821  1.0000
  N   N142      1.0  0.95587  0.40253  0.36145  1.0000
  H   H4480     1.0  0.80412  0.00509  0.29718  1.0000
  H   H4481     1.0  0.77710  0.27964  0.25774  1.0000
  H   H4482     1.0  0.62660  0.03112  0.28418  1.0000
  H   H4483     1.0  0.94535  0.23925  0.32550  1.0000
  H   H4484     1.0  0.95484  0.22101  0.33693  1.0000
  H   H4485     1.0  0.69443  0.16036  0.34183  1.0000
  H   H4486     1.0  0.65341  0.22694  0.18597  1.0000
  H   H4487     1.0  0.75568  0.16900  0.23585  1.0000
  C   C2517     1.0  0.96094  0.35128  0.34692  1.0000
  C   C2518     1.0  0.95096  0.35193  0.35922  1.0000
  C   C2519     1.0  0.95972  0.34761  0.36932  1.0000
  H   H4488     1.0  0.94795  0.19468  0.30787  1.0000
  H   H4489     1.0  0.56521  0.12024  0.37009  1.0000
  C   C2520     1.0  0.73976  0.21246  0.19706  1.0000
  H   H4490     1.0  0.93652  0.35625  0.36091  1.0000
  S   S616      1.0  0.89217  0.43477  0.38273  1.0000
  H   H4491     1.0  0.81299  0.16705  0.19114  1.0000
  H   H4492     1.0  0.96348  0.22472  0.29028  1.0000
  H   H4493     1.0  0.93209  0.40347  0.37663  1.0000
  C   C2521     1.0  0.59041  0.12792  0.36570  1.0000
  C   C2522     1.0  0.65261  0.04182  0.31507  1.0000
  C   C2523     1.0  0.66090  0.05598  0.31309  1.0000
  C   C2524     1.0  0.65606  0.06664  0.32206  1.0000
  C   C2525     1.0  0.64239  0.06362  0.33277  1.0000
  C   C2526     1.0  0.63344  0.05005  0.33436  1.0000
  C   C2527     1.0  0.63869  0.03902  0.32564  1.0000
  H   H4494     1.0  0.67127  0.05853  0.30472  1.0000
  H   H4495     1.0  0.66280  0.07726  0.32060  1.0000
  H   H4496     1.0  0.62237  0.04809  0.34228  1.0000
  H   H4497     1.0  0.63172  0.02857  0.32696  1.0000
  C   C2528     1.0  0.97744  0.18956  0.30080  1.0000
  C   C2529     1.0  0.79724  0.32987  0.24046  1.0000
  C   C2530     1.0  0.80059  0.33148  0.22734  1.0000
  C   C2531     1.0  0.78726  0.33056  0.22159  1.0000
  C   C2532     1.0  0.77020  0.32882  0.22889  1.0000
  C   C2533     1.0  0.76690  0.32699  0.24205  1.0000
  C   C2534     1.0  0.78049  0.32719  0.24786  1.0000
  H   H4498     1.0  0.81361  0.33326  0.22168  1.0000
  H   H4499     1.0  0.79003  0.33171  0.21146  1.0000
  H   H4500     1.0  0.75377  0.32565  0.24777  1.0000
  H   H4501     1.0  0.77780  0.32591  0.25801  1.0000
  C   C2535     1.0  0.85097  0.31879  0.30894  1.0000
  C   C2536     1.0  0.85018  0.33598  0.30156  1.0000
  C   C2537     1.0  0.85661  0.34829  0.30510  1.0000
  C   C2538     1.0  0.86396  0.34343  0.31595  1.0000
  C   C2539     1.0  0.86512  0.32611  0.32313  1.0000
  C   C2540     1.0  0.85850  0.31392  0.31969  1.0000
  H   H4502     1.0  0.84429  0.33989  0.29331  1.0000
  H   H4503     1.0  0.85568  0.36170  0.29952  1.0000
  H   H4504     1.0  0.87073  0.32224  0.33150  1.0000
  H   H4505     1.0  0.85905  0.30068  0.32548  1.0000
  C   C2541     1.0  0.95981  0.17878  0.34528  1.0000
  C   C2542     1.0  0.97123  0.18639  0.34878  1.0000
  S   S617      1.0  0.74311  0.32242  0.19109  1.0000
  H   H4506     1.0  0.95510  0.20011  0.29084  1.0000
  H   H4507     1.0  0.58082  0.19345  0.21482  1.0000
  C   C2543     1.0  0.96711  0.16676  0.33728  1.0000
  H   H4508     1.0  0.96570  0.19555  0.35506  1.0000
  H   H4509     1.0  0.59524  0.12498  0.35610  1.0000
  C   C2544     1.0  0.58125  0.14756  0.36408  1.0000
  H   H4510     1.0  0.95837  0.16067  0.33469  1.0000
  C   C2545     1.0  0.89747  0.22167  0.28478  1.0000
  C   C2546     1.0  0.89658  0.21861  0.27329  1.0000
  C   C2547     1.0  0.88165  0.22738  0.26782  1.0000
  C   C2548     1.0  0.86790  0.23970  0.27359  1.0000
  C   C2549     1.0  0.86903  0.24306  0.28490  1.0000
  C   C2550     1.0  0.88364  0.23380  0.29057  1.0000
  H   H4511     1.0  0.90724  0.20922  0.26875  1.0000
  H   H4512     1.0  0.88084  0.22473  0.25907  1.0000
  H   H4513     1.0  0.85847  0.25253  0.28940  1.0000
  H   H4514     1.0  0.88436  0.23613  0.29938  1.0000
  C   C2551     1.0  0.78441  0.23963  0.20453  1.0000
  H   H4515     1.0  0.81079  0.14925  0.31447  1.0000
  C   C2552     1.0  0.96854  0.26771  0.37229  1.0000
  H   H4516     1.0  0.73686  0.19314  0.32044  1.0000
  H   H4517     1.0  0.85980  0.28907  0.23399  1.0000
  C   C2553     1.0  0.82395  0.03733  0.29844  1.0000
  C   C2554     1.0  0.81640  0.02226  0.30249  1.0000
  C   C2555     1.0  0.81025  0.01649  0.29397  1.0000
  C   C2556     1.0  0.81236  0.02531  0.28125  1.0000
  C   C2557     1.0  0.81965  0.04052  0.27727  1.0000
  C   C2558     1.0  0.82511  0.04672  0.28589  1.0000
  H   H4518     1.0  0.81524  0.01512  0.31225  1.0000
  H   H4519     1.0  0.74878  0.36815  0.21850  1.0000
  H   H4520     1.0  0.82120  0.04749  0.26746  1.0000
  H   H4521     1.0  0.83087  0.05838  0.28269  1.0000
  C   C2559     1.0  0.87124  0.12776  0.31263  1.0000
  C   C2560     1.0  0.88584  0.13378  0.31348  1.0000
  C   C2561     1.0  0.88319  0.14653  0.32064  1.0000
  C   C2562     1.0  0.86597  0.15296  0.32726  1.0000
  C   C2563     1.0  0.85131  0.14721  0.32620  1.0000
  C   C2564     1.0  0.85392  0.13481  0.31876  1.0000
  H   H4522     1.0  0.89926  0.12842  0.30871  1.0000
  H   H4523     1.0  0.89457  0.15084  0.32142  1.0000
  H   H4524     1.0  0.83794  0.15221  0.33125  1.0000
  H   H4525     1.0  0.84256  0.13043  0.31798  1.0000
  C   C2565     1.0  0.76751  0.11000  0.32553  1.0000
  C   C2566     1.0  0.74983  0.11952  0.32850  1.0000
  C   C2567     1.0  0.73535  0.11171  0.32988  1.0000
  C   C2568     1.0  0.73850  0.09421  0.32858  1.0000
  C   C2569     1.0  0.75620  0.08464  0.32572  1.0000
  C   C2570     1.0  0.77068  0.09253  0.32414  1.0000
  H   H4526     1.0  0.74730  0.13294  0.32969  1.0000
  H   H4527     1.0  0.72181  0.11923  0.33199  1.0000
  H   H4528     1.0  0.75872  0.07104  0.32482  1.0000
  H   H4529     1.0  0.78428  0.08494  0.32215  1.0000
  C   C2571     1.0  0.73477  0.25694  0.29110  1.0000
  C   C2572     1.0  0.75254  0.25659  0.28433  1.0000
  C   C2573     1.0  0.76318  0.26596  0.28714  1.0000
  C   C2574     1.0  0.75609  0.27547  0.29681  1.0000
  C   C2575     1.0  0.73836  0.27577  0.30352  1.0000
  C   C2576     1.0  0.72772  0.26667  0.30061  1.0000
  H   H4530     1.0  0.75808  0.24912  0.27697  1.0000
  H   H4531     1.0  0.77688  0.26568  0.28196  1.0000
  H   H4532     1.0  0.73278  0.28317  0.31094  1.0000
  H   H4533     1.0  0.71392  0.26729  0.30568  1.0000
  C   C2577     1.0  0.71687  0.24210  0.22130  1.0000
  C   C2578     1.0  0.71449  0.25303  0.20959  1.0000
  C   C2579     1.0  0.70090  0.25214  0.20416  1.0000
  C   C2580     1.0  0.68940  0.24049  0.21040  1.0000
  C   C2581     1.0  0.69166  0.22964  0.22224  1.0000
  C   C2582     1.0  0.70545  0.23039  0.22768  1.0000
  H   H4534     1.0  0.72341  0.26199  0.20455  1.0000
  H   H4535     1.0  0.71431  0.08296  0.30437  1.0000
  H   H4536     1.0  0.68285  0.22055  0.22714  1.0000
  H   H4537     1.0  0.70731  0.22182  0.23671  1.0000
  C   C2583     1.0  0.80595  0.17793  0.25963  1.0000
  C   C2584     1.0  0.79786  0.16893  0.25441  1.0000
  C   C2585     1.0  0.80390  0.15063  0.25519  1.0000
  C   C2586     1.0  0.81768  0.14119  0.26155  1.0000
  C   C2587     1.0  0.82624  0.15027  0.26637  1.0000
  C   C2588     1.0  0.82050  0.16867  0.26527  1.0000
  H   H4538     1.0  0.78704  0.17604  0.24969  1.0000
  H   H4539     1.0  0.79752  0.14374  0.25122  1.0000
  H   H4540     1.0  0.83734  0.14310  0.27088  1.0000
  H   H4541     1.0  0.82707  0.17564  0.26904  1.0000
  C   C2589     1.0  0.70707  0.16646  0.28588  1.0000
  C   C2590     1.0  0.69073  0.17868  0.28542  1.0000
  C   C2591     1.0  0.67555  0.17622  0.29516  1.0000
  C   C2592     1.0  0.67671  0.16150  0.30530  1.0000
  C   C2593     1.0  0.69313  0.14949  0.30582  1.0000
  C   C2594     1.0  0.70826  0.15202  0.29617  1.0000
  H   H4542     1.0  0.68970  0.18975  0.27742  1.0000
  H   H4543     1.0  0.66287  0.18556  0.29475  1.0000
  H   H4544     1.0  0.69421  0.13818  0.31365  1.0000
  H   H4545     1.0  0.72088  0.14275  0.29673  1.0000
  H   H4546     1.0  0.95078  0.45454  0.36598  1.0000
  H   H4547     1.0  0.90790  0.41034  0.34107  1.0000
  H   H4548     1.0  0.85631  0.34313  0.19209  1.0000
  Fe  Fe315     1.0  0.89055  0.35085  0.36221  1.0000
  H   H4549     1.0  0.87957  0.39315  0.36312  1.0000
  C   C2595     1.0  0.97793  0.22139  0.29071  1.0000
  H   H4550     1.0  0.99012  0.30332  0.35146  1.0000
  H   H4551     1.0  0.70438  0.99999  0.26737  1.0000
  H   H4552     1.0  0.93975  0.42884  0.36253  1.0000
  C   C2596     1.0  0.99552  0.28162  0.37727  1.0000
  H   H4553     1.0  0.71412  0.02303  0.24569  1.0000
  H   H4554     1.0  0.86220  0.19896  0.28967  1.0000
  H   H4555     1.0  0.83776  0.29434  0.24397  1.0000
  H   H4556     1.0  0.77503  0.26597  0.24808  1.0000
  C   C2597     1.0  0.63745  0.99585  0.37046  1.0000
  N   N143      1.0  0.79310  0.31388  0.33301  1.0000
  C   C2598     1.0  0.78273  0.32570  0.32322  1.0000
  C   C2599     1.0  0.80799  0.32236  0.33298  1.0000
  C   C2600     1.0  0.80164  0.29646  0.32889  1.0000
  C   C2601     1.0  0.78145  0.31010  0.34614  1.0000
  C   C2602     1.0  0.76487  0.32487  0.34971  1.0000
  C   C2603     1.0  0.76940  0.31737  0.32005  1.0000
  C   C2604     1.0  0.81559  0.28336  0.33633  1.0000
  C   C2605     1.0  0.80228  0.34039  0.33704  1.0000
  C   C2606     1.0  0.81850  0.34862  0.33475  1.0000
  C   C2607     1.0  0.75628  0.32054  0.36381  1.0000
  C   C2608     1.0  0.75666  0.33127  0.31243  1.0000
  C   C2609     1.0  0.82077  0.26525  0.33282  1.0000
  H   H4557     1.0  0.79223  0.32959  0.31410  1.0000
  H   H4558     1.0  0.77525  0.33840  0.32594  1.0000
  H   H4559     1.0  0.81668  0.31366  0.33952  1.0000
  H   H4560     1.0  0.81686  0.32417  0.32337  1.0000
  H   H4561     1.0  0.80824  0.29884  0.31868  1.0000
  H   H4562     1.0  0.79116  0.28912  0.32964  1.0000
  H   H4563     1.0  0.77595  0.29811  0.34761  1.0000
  H   H4564     1.0  0.78978  0.30664  0.35338  1.0000
  H   H4565     1.0  0.75449  0.32614  0.34438  1.0000
  H   H4566     1.0  0.76830  0.33800  0.34757  1.0000
  H   H4567     1.0  0.77707  0.30759  0.31416  1.0000
  H   H4568     1.0  0.76135  0.31037  0.32872  1.0000
  H   H4569     1.0  0.81022  0.28151  0.34669  1.0000
  H   H4570     1.0  0.82820  0.28828  0.33394  1.0000
  H   H4571     1.0  0.79260  0.35013  0.33171  1.0000
  H   H4572     1.0  0.79631  0.33842  0.34735  1.0000
  H   H4573     1.0  0.81430  0.36106  0.33833  1.0000
  H   H4574     1.0  0.82897  0.33940  0.33969  1.0000
  H   H4575     1.0  0.82438  0.35193  0.32445  1.0000
  C   C2610     1.0  0.60894  0.14736  0.38394  1.0000
  C   C2611     1.0  0.98929  0.21855  0.27757  1.0000
  H   H4576     1.0  0.57313  0.07271  0.38254  1.0000
  H   H4577     1.0  0.74806  0.34112  0.31805  1.0000
  H   H4578     1.0  0.76439  0.33816  0.30350  1.0000
  H   H4579     1.0  0.74787  0.32463  0.30990  1.0000
  H   H4580     1.0  0.83102  0.25626  0.33805  1.0000
  H   H4581     1.0  0.80890  0.25917  0.33525  1.0000
  H   H4582     1.0  0.82665  0.26665  0.32252  1.0000
  H   H4583     1.0  0.90132  0.20377  0.38054  1.0000
  H   H4584     1.0  0.95192  0.34815  0.37880  1.0000
  C   C2612     1.0  0.66789  0.20179  0.19455  1.0000
  C   C2613     1.0  0.59939  0.09182  0.38326  1.0000
  H   H4585     1.0  0.83653  0.33958  0.18905  1.0000
  H   H4586     1.0  0.70657  0.20997  0.30336  1.0000
  H   H4587     1.0  0.66710  0.26550  0.25168  1.0000
  H   H4588     1.0  0.99151  0.15257  0.32705  1.0000
  C   C2614     1.0  0.65193  0.03542  0.37565  1.0000
  H   H4589     1.0  0.59961  0.09969  0.33719  1.0000
  H   H4590     1.0  0.66052  0.41173  0.19039  1.0000
  H   H4591     1.0  0.85636  0.00654  0.26639  1.0000
  H   H4592     1.0  0.77332  0.25158  0.20438  1.0000
  H   H4593     1.0  0.51829  0.04447  0.37838  1.0000
  H   H4594     1.0  0.60222  0.12603  0.36980  1.0000
  C   C2615     1.0  0.97849  0.34312  0.36712  1.0000
  H   H4595     1.0  0.66795  0.15920  0.35886  1.0000
  C   C2616     1.0  0.75366  0.19782  0.21518  1.0000
  H   H4596     1.0  0.77840  0.39183  0.19071  1.0000
  H   H4597     1.0  0.81134  0.22647  0.26695  1.0000
  C   C2617     1.0  0.98583  0.16216  0.33301  1.0000
  H   H4598     1.0  0.88815  0.08122  0.33549  1.0000
  C   C2618     1.0  0.90281  0.27617  0.35156  1.0000
  C   C2619     1.0  0.88466  0.24697  0.38373  1.0000
  H   H4599     1.0  0.95644  0.23905  0.35895  1.0000
  H   H4600     1.0  0.57006  0.15052  0.35911  1.0000
  H   H4601     1.0  0.99855  0.18846  0.34671  1.0000
  C   C2620     1.0  0.63684  0.00821  0.27537  1.0000
  H   H4602     1.0  0.80123  0.20580  0.28752  1.0000
  C   C2621     1.0  0.94434  0.28986  0.38132  1.0000
  H   H4603     1.0  0.59116  0.15573  0.35836  1.0000
  H   H4604     1.0  0.76163  0.17492  0.30729  1.0000
  H   H4605     1.0  0.64191  0.99968  0.35997  1.0000
  H   H4606     1.0  0.69847  0.19169  0.30333  1.0000
  H   H4607     1.0  0.70150  0.03421  0.23344  1.0000
  C   C2622     1.0  0.68507  0.02837  0.25249  1.0000
  H   H4608     1.0  0.99154  0.23146  0.25771  1.0000
  C   C2623     1.0  0.69933  0.20674  0.32935  1.0000
  C   C2624     1.0  0.70722  0.22323  0.32169  1.0000
  C   C2625     1.0  0.71020  0.23314  0.33056  1.0000
  H   H4609     1.0  0.68551  0.21217  0.33434  1.0000
  H   H4610     1.0  0.70685  0.19988  0.33702  1.0000
  H   H4611     1.0  0.69781  0.23259  0.31592  1.0000
  H   H4612     1.0  0.72018  0.21979  0.31511  1.0000
  H   H4613     1.0  0.67315  0.22307  0.31448  1.0000
  H   H4614     1.0  0.71997  0.22446  0.33632  1.0000
  H   H4615     1.0  0.71578  0.24486  0.32493  1.0000
  H   H4616     1.0  0.69732  0.23776  0.33694  1.0000
  H   H4617     1.0  0.66383  0.23332  0.29372  1.0000
  H   H4618     1.0  0.68666  0.23491  0.29200  1.0000
  N   N144      1.0  0.76424  0.11203  0.27690  1.0000
  C   C2626     1.0  0.77084  0.09215  0.27964  1.0000
  C   C2627     1.0  0.77095  0.11938  0.26301  1.0000
  C   C2628     1.0  0.77288  0.11957  0.28417  1.0000
  C   C2629     1.0  0.74411  0.11757  0.28086  1.0000
  C   C2630     1.0  0.73254  0.10592  0.27909  1.0000
  C   C2631     1.0  0.76683  0.08257  0.29381  1.0000
  C   C2632     1.0  0.76747  0.13999  0.28310  1.0000
  C   C2633     1.0  0.76418  0.11380  0.25328  1.0000
  C   C2634     1.0  0.77469  0.11971  0.23984  1.0000
  C   C2635     1.0  0.71254  0.11437  0.28236  1.0000
  C   C2636     1.0  0.76949  0.06258  0.29529  1.0000
  C   C2637     1.0  0.77837  0.14587  0.28993  1.0000
  H   H4619     1.0  0.78570  0.08868  0.27612  1.0000
  H   H4620     1.0  0.76518  0.08590  0.27438  1.0000
  H   H4621     1.0  0.76704  0.13405  0.26076  1.0000
  H   H4622     1.0  0.78595  0.11598  0.26068  1.0000
  H   H4623     1.0  0.78776  0.11594  0.28114  1.0000
  H   H4624     1.0  0.76957  0.11381  0.29449  1.0000
  H   H4625     1.0  0.74025  0.11781  0.29113  1.0000
  H   H4626     1.0  0.73951  0.13141  0.27582  1.0000
  H   H4627     1.0  0.73468  0.09261  0.28538  1.0000
  H   H4628     1.0  0.73570  0.10384  0.26935  1.0000
  H   H4629     1.0  0.77615  0.08452  0.29883  1.0000
  H   H4630     1.0  0.75300  0.08768  0.29880  1.0000
  H   H4631     1.0  0.75305  0.14402  0.28746  1.0000
  H   H4632     1.0  0.76989  0.14761  0.27323  1.0000
  H   H4633     1.0  0.76563  0.09928  0.25504  1.0000
  H   H4634     1.0  0.74991  0.12054  0.25343  1.0000
  H   H4635     1.0  0.78913  0.11309  0.23894  1.0000
  H   H4636     1.0  0.76931  0.11604  0.23296  1.0000
  H   H4637     1.0  0.77345  0.13431  0.23743  1.0000
  H   H4638     1.0  0.70445  0.10588  0.28107  1.0000
  H   H4639     1.0  0.70847  0.11578  0.29238  1.0000
  H   H4640     1.0  0.70950  0.12768  0.27611  1.0000
  H   H4641     1.0  0.78336  0.05696  0.29060  1.0000
  H   H4642     1.0  0.76745  0.05611  0.30550  1.0000
  H   H4643     1.0  0.75971  0.05959  0.29112  1.0000
  H   H4644     1.0  0.77527  0.14010  0.30022  1.0000
  H   H4645     1.0  0.79297  0.14168  0.28615  1.0000
  H   H4646     1.0  0.77501  0.16056  0.28844  1.0000
  H   H4647     1.0  0.92406  0.25281  0.35090  1.0000
  H   H4648     1.0  0.98425  0.39877  0.33897  1.0000
  C   C2638     1.0  0.63637  0.12460  0.38356  1.0000
  H   H4649     1.0  0.67209  0.04455  0.35935  1.0000
  H   H4650     1.0  0.96014  0.31342  0.36144  1.0000
  H   H4651     1.0  0.79876  0.18984  0.30720  1.0000
  H   H4652     1.0  0.97581  0.37846  0.35993  1.0000
  H   H4653     1.0  0.83211  0.19981  0.27727  1.0000
  H   H4654     1.0  0.76917  0.22218  0.21846  1.0000
  H   H4655     1.0  0.83628  0.11905  0.34656  1.0000
  C   C2639     1.0  0.82715  0.17739  0.30009  1.0000
  C   C2640     1.0  0.62171  0.02333  0.27950  1.0000
  H   H4656     1.0  0.67618  0.01435  0.24220  1.0000
  H   H4657     1.0  0.88635  0.03682  0.37032  1.0000
  H   H4658     1.0  0.74982  0.39070  0.21726  1.0000
  H   H4659     1.0  0.98882  0.20580  0.27575  1.0000
  H   H4660     1.0  0.64682  0.02220  0.25641  1.0000
  H   H4661     1.0  0.81651  0.20593  0.31148  1.0000
  C   C2641     1.0  0.91048  0.25892  0.34968  1.0000
  H   H4662     1.0  0.96879  0.23275  0.26664  1.0000
  H   H4663     1.0  0.90625  0.23590  0.34553  1.0000
  H   H4664     1.0  0.93448  0.28937  0.37604  1.0000
  H   H4665     1.0  0.57992  0.09439  0.33526  1.0000
  C   C2642     1.0  0.80138  0.16166  0.31113  1.0000
  H   H4666     1.0  0.68097  0.20565  0.18981  1.0000
  C   C2643     1.0  0.97969  0.34673  0.34475  1.0000
  C   C2644     1.0  0.87813  0.06230  0.32293  1.0000
  H   H4667     1.0  0.69918  0.01336  0.30056  1.0000
  H   H4668     1.0  0.85988  0.18438  0.27355  1.0000
  C   C2645     1.0  0.86699  0.26140  0.38387  1.0000
  H   H4669     1.0  0.82546  0.17434  0.29142  1.0000
  H   H4670     1.0  0.88284  0.42258  0.36419  1.0000
  C   C2646     1.0  0.75423  0.37964  0.21218  1.0000
  H   H4671     1.0  0.63385  0.14982  0.37037  1.0000
  H   H4672     1.0  0.59639  0.07717  0.34245  1.0000
  N   N145      1.0  0.91121  0.28521  0.29998  1.0000
  C   C2647     1.0  0.91832  0.27905  0.28766  1.0000
  C   C2648     1.0  0.90203  0.30456  0.29728  1.0000
  C   C2649     1.0  0.92674  0.28225  0.30622  1.0000
  C   C2650     1.0  0.89759  0.27497  0.30884  1.0000
  C   C2651     1.0  0.88315  0.27274  0.30274  1.0000
  C   C2652     1.0  0.92714  0.25898  0.28888  1.0000
  C   C2653     1.0  0.92272  0.29106  0.31767  1.0000
  C   C2654     1.0  0.91410  0.31757  0.28893  1.0000
  C   C2655     1.0  0.90403  0.33680  0.28869  1.0000
  C   C2656     1.0  0.86917  0.26361  0.31258  1.0000
  C   C2657     1.0  0.93036  0.25340  0.27634  1.0000
  C   C2658     1.0  0.93903  0.28610  0.32372  1.0000
  H   H4673     1.0  0.92878  0.28626  0.28142  1.0000
  H   H4674     1.0  0.90753  0.28254  0.28221  1.0000
  H   H4675     1.0  0.89093  0.30663  0.29238  1.0000
  H   H4676     1.0  0.89529  0.30908  0.30628  1.0000
  H   H4677     1.0  0.93839  0.28688  0.29924  1.0000
  H   H4678     1.0  0.93173  0.26779  0.30966  1.0000
  H   H4679     1.0  0.90419  0.26149  0.31338  1.0000
  H   H4680     1.0  0.89032  0.28150  0.31693  1.0000
  H   H4681     1.0  0.88925  0.26462  0.29550  1.0000
  H   H4682     1.0  0.87621  0.28567  0.29793  1.0000
  H   H4683     1.0  0.94030  0.25615  0.29157  1.0000
  H   H4684     1.0  0.91874  0.25041  0.29612  1.0000
  H   H4685     1.0  0.91121  0.28686  0.32495  1.0000
  H   H4686     1.0  0.91944  0.30572  0.31469  1.0000
  H   H4687     1.0  0.92644  0.31569  0.29244  1.0000
  H   H4688     1.0  0.91810  0.31571  0.27903  1.0000
  H   H4689     1.0  0.89151  0.33951  0.28515  1.0000
  H   H4690     1.0  0.90050  0.33961  0.29834  1.0000
  H   H4691     1.0  0.91264  0.34593  0.28234  1.0000
  H   H4692     1.0  0.85865  0.26287  0.30804  1.0000
  H   H4693     1.0  0.87557  0.24996  0.31677  1.0000
  H   H4694     1.0  0.86260  0.27113  0.32019  1.0000
  H   H4695     1.0  0.93679  0.23908  0.27743  1.0000
  H   H4696     1.0  0.91739  0.25535  0.27355  1.0000
  H   H4697     1.0  0.93926  0.26112  0.26873  1.0000
  C   C2659     1.0  0.85040  0.20950  0.37431  1.0000
  H   H4698     1.0  0.94169  0.27177  0.32817  1.0000
  H   H4699     1.0  0.95112  0.28939  0.31659  1.0000
  H   H4700     1.0  0.72514  0.03075  0.27781  1.0000
  H   H4701     1.0  0.60930  0.01643  0.35951  1.0000
  H   H4702     1.0  0.70066  0.03636  0.29653  1.0000
  C   C2660     1.0  0.95777  0.23245  0.32912  1.0000
  H   H4703     1.0  0.97001  0.31986  0.33624  1.0000
  H   H4704     1.0  0.61643  0.03223  0.27124  1.0000
  H   H4705     1.0  0.87798  0.20023  0.37554  1.0000
  H   H4706     1.0  0.60189  0.37403  0.18671  1.0000
  C   C2661     1.0  0.71915  0.05422  0.30949  1.0000
  C   C2662     1.0  0.70845  0.02263  0.29643  1.0000
  H   H4707     1.0  0.98900  0.30436  0.32964  1.0000
  C   C2663     1.0  0.65223  0.01542  0.26510  1.0000
  H   H4708     1.0  0.67158  0.00589  0.34206  1.0000
  H   H4709     1.0  0.57044  0.00293  0.36692  1.0000
  C   C2664     1.0  0.71601  0.02143  0.28257  1.0000
  C   C2665     1.0  0.86723  0.00199  0.27182  1.0000
  H   H4710     1.0  0.84760  0.99757  0.28870  1.0000
  C   C2666     1.0  0.95706  0.26189  0.36554  1.0000
  H   H4711     1.0  0.93930  0.31911  0.37813  1.0000
  H   H4712     1.0  0.96778  0.44836  0.37524  1.0000
  H   H4713     1.0  0.88075  0.28352  0.37690  1.0000
  H   H4714     1.0  0.72347  0.00774  0.28184  1.0000
  C   C2667     1.0  0.95809  0.19061  0.29962  1.0000
  S   S618      1.0  0.87791  0.33372  0.35565  1.0000
  H   H4715     1.0  0.79327  0.24044  0.19493  1.0000
  H   H4716     1.0  0.95470  0.21699  0.31201  1.0000
  H   H4717     1.0  0.69491  0.00194  0.24859  1.0000
  C   C2668     1.0  0.90089  0.21824  0.37852  1.0000
  H   H4718     1.0  0.97517  0.41773  0.37189  1.0000
  H   H4719     1.0  0.98741  0.34604  0.33529  1.0000
  H   H4720     1.0  0.71107  0.99988  0.34335  1.0000
  N   N146      1.0  0.98137  0.20644  0.30189  1.0000
  C   C2669     1.0  0.98017  0.29695  0.35006  1.0000
  H   H4721     1.0  0.74400  0.20723  0.22085  1.0000
  H   H4722     1.0  0.78808  0.21137  0.20849  1.0000
  N   N147      1.0  0.58442  0.09628  0.37620  1.0000
  H   H4723     1.0  0.96031  0.42867  0.35145  1.0000
  H   H4724     1.0  0.88282  0.01492  0.27846  1.0000
  H   H4725     1.0  0.93455  0.19556  0.37574  1.0000
  H   H4726     1.0  0.68206  0.17565  0.32335  1.0000
  H   H4727     1.0  0.80899  0.10712  0.35853  1.0000
  H   H4728     1.0  0.87651  0.05377  0.34280  1.0000
  H   H4729     1.0  0.80020  0.40782  0.20768  1.0000
  C   C2670     1.0  0.80916  0.21552  0.28713  1.0000
  N   N148      1.0  0.71797  0.02071  0.31721  1.0000
  C   C2671     1.0  0.72363  0.01768  0.30387  1.0000
  C   C2672     1.0  0.73391  0.01480  0.32349  1.0000
  C   C2673     1.0  0.70447  0.00935  0.32446  1.0000
  C   C2674     1.0  0.70885  0.03972  0.31771  1.0000
  C   C2675     1.0  0.69943  0.00754  0.33905  1.0000
  C   C2676     1.0  0.75225  0.01832  0.31511  1.0000
  C   C2677     1.0  0.76602  0.01545  0.32313  1.0000
  C   C2678     1.0  0.52832  0.00738  0.36406  1.0000
  H   H4730     1.0  0.73007  0.00343  0.30407  1.0000
  H   H4731     1.0  0.73413  0.02501  0.29804  1.0000
  H   H4732     1.0  0.73094  0.02081  0.33189  1.0000
  H   H4733     1.0  0.73646  0.00017  0.32723  1.0000
  H   H4734     1.0  0.61498  0.06637  0.37864  1.0000
  H   H4735     1.0  0.69167  0.01452  0.32103  1.0000
  H   H4736     1.0  0.70579  0.04178  0.32753  1.0000
  H   H4737     1.0  0.72966  0.05468  0.31418  1.0000
  H   H4738     1.0  0.83756  0.21684  0.37923  1.0000
  H   H4739     1.0  0.69498  0.02065  0.34168  1.0000
  H   H4740     1.0  0.79225  0.16109  0.19200  1.0000
  H   H4741     1.0  0.75773  0.00896  0.30861  1.0000
  H   H4742     1.0  0.75113  0.03191  0.30927  1.0000
  H   H4743     1.0  0.83804  0.33818  0.20508  1.0000
  N   N149      1.0  0.63466  0.01165  0.37623  1.0000
  H   H4744     1.0  0.77904  0.01773  0.31684  1.0000
  C   C2679     1.0  0.84146  0.34529  0.19509  1.0000
  H   H4745     1.0  0.90207  0.22281  0.36809  1.0000
  C   C2680     1.0  0.98253  0.23328  0.26697  1.0000
  H   H4746     1.0  0.66308  0.00798  0.37580  1.0000
  H   H4747     1.0  0.54161  0.01055  0.36269  1.0000
  C   C2681     1.0  0.95579  0.17256  0.29900  1.0000
  C   C2682     1.0  0.74291  0.17269  0.23249  1.0000
  C   C2683     1.0  0.81496  0.10631  0.34849  1.0000
  H   H4748     1.0  0.97512  0.23816  0.31089  1.0000
  H   H4749     1.0  0.95266  0.38765  0.34899  1.0000
  H   H4750     1.0  0.95492  0.40969  0.34149  1.0000
  H   H4751     1.0  0.65645  0.18078  0.35172  1.0000
  H   H4752     1.0  0.76588  0.19395  0.21917  1.0000
  H   H4753     1.0  0.59431  0.04853  0.35819  1.0000
  C   C2684     1.0  0.66985  0.04112  0.36986  1.0000
  H   H4754     1.0  0.60440  0.09578  0.35873  1.0000
  C   C2685     1.0  0.77473  0.37439  0.20878  1.0000
  H   H4755     1.0  0.57250  0.10936  0.35306  1.0000
  C   C2686     1.0  0.83244  0.22690  0.31738  1.0000
  H   H4756     1.0  0.83444  0.22908  0.29768  1.0000
  H   H4757     1.0  0.75205  0.30766  0.36637  1.0000
  C   C2687     1.0  0.80614  0.38285  0.22041  1.0000
  H   H4758     1.0  0.96169  0.24182  0.33303  1.0000
  C   C2688     1.0  0.81250  0.36905  0.19640  1.0000
  C   C2689     1.0  0.74601  0.18087  0.21829  1.0000
  C   C2690     1.0  0.57928  0.09516  0.35459  1.0000
  C   C2691     1.0  0.81550  0.38850  0.22845  1.0000
  H   H4759     1.0  0.84017  0.09291  0.36377  1.0000
  C   C2692     1.0  0.84527  0.09047  0.35398  1.0000
  H   H4760     1.0  0.93569  0.21546  0.36345  1.0000
  H   H4761     1.0  0.68116  0.03044  0.37279  1.0000
  C   C2693     1.0  0.83881  0.21871  0.30570  1.0000
  C   C2694     1.0  0.85557  0.18743  0.29318  1.0000
  H   H4762     1.0  0.00100  0.28311  0.36705  1.0000
  C   C2695     1.0  0.66644  0.16861  0.34972  1.0000
  Fe  Fe316     1.0  0.64999  0.00232  0.31339  1.0000
  H   H4763     1.0  0.80810  0.35965  0.20524  1.0000
  H   H4764     1.0  0.81193  0.36858  0.22064  1.0000
  H   H4765     1.0  0.79172  0.38462  0.22512  1.0000
  H   H4766     1.0  0.76149  0.02491  0.32956  1.0000
  H   H4767     1.0  0.83918  0.23802  0.31581  1.0000
  C   C2696     1.0  0.57723  0.11610  0.37430  1.0000
  H   H4768     1.0  0.83639  0.16543  0.30429  1.0000
  C   C2697     1.0  0.77032  0.19497  0.19315  1.0000
  H   H4769     1.0  0.77963  0.36968  0.21769  1.0000
  H   H4770     1.0  0.52432  0.01114  0.35477  1.0000
  H   H4771     1.0  0.89332  0.25135  0.37438  1.0000
  H   H4772     1.0  0.88744  0.06667  0.35687  1.0000
  H   H4773     1.0  0.83019  0.38648  0.22447  1.0000
  H   H4774     1.0  0.80994  0.40265  0.22894  1.0000
  H   H4775     1.0  0.81336  0.38026  0.23822  1.0000
  H   H4776     1.0  0.83741  0.21694  0.28160  1.0000
  C   C2698     1.0  0.98844  0.34277  0.35480  1.0000
  C   C2699     1.0  0.83117  0.20198  0.30790  1.0000
  H   H4777     1.0  0.81094  0.17747  0.31935  1.0000
  H   H4778     1.0  0.85890  0.05255  0.36177  1.0000
  S   S619      1.0  0.78551  0.31309  0.19275  1.0000
  H   H4779     1.0  0.64182  0.99989  0.28388  1.0000
  H   H4780     1.0  0.66749  0.20588  0.30974  1.0000
  H   H4781     1.0  0.89291  0.06110  0.32068  1.0000
  C   C2700     1.0  0.76407  0.22366  0.19985  1.0000
  N   N150      1.0  0.71789  0.29092  0.24261  1.0000
  C   C2701     1.0  0.70944  0.27642  0.24215  1.0000
  C   C2702     1.0  0.73762  0.28669  0.23657  1.0000
  C   C2703     1.0  0.71641  0.29048  0.25641  1.0000
  C   C2704     1.0  0.70889  0.30917  0.23637  1.0000
  C   C2705     1.0  0.70098  0.31050  0.22479  1.0000
  C   C2706     1.0  0.68986  0.27697  0.24980  1.0000
  C   C2707     1.0  0.72651  0.30279  0.25905  1.0000
  C   C2708     1.0  0.74250  0.28741  0.22217  1.0000
  C   C2709     1.0  0.76266  0.28096  0.21767  1.0000
  C   C2710     1.0  0.69659  0.32971  0.21756  1.0000
  C   C2711     1.0  0.71980  0.30569  0.27257  1.0000
  H   H4782     1.0  0.71743  0.26321  0.24596  1.0000
  H   H4783     1.0  0.70984  0.27614  0.23226  1.0000
  H   H4784     1.0  0.74460  0.29625  0.23768  1.0000
  H   H4785     1.0  0.74407  0.27337  0.24144  1.0000
  H   H4786     1.0  0.72148  0.27672  0.26152  1.0000
  H   H4787     1.0  0.70208  0.29420  0.26118  1.0000
  H   H4788     1.0  0.69755  0.31530  0.24328  1.0000
  H   H4789     1.0  0.71847  0.31822  0.23334  1.0000
  H   H4790     1.0  0.68837  0.30551  0.22795  1.0000
  H   H4791     1.0  0.71016  0.30268  0.21797  1.0000
  H   H4792     1.0  0.68980  0.27202  0.26007  1.0000
  H   H4793     1.0  0.68155  0.29063  0.24847  1.0000
  H   H4794     1.0  0.72486  0.31597  0.25250  1.0000
  H   H4795     1.0  0.74107  0.29661  0.25790  1.0000
  H   H4796     1.0  0.73556  0.27921  0.21946  1.0000
  H   H4797     1.0  0.73894  0.30130  0.21698  1.0000
  H   H4798     1.0  0.76702  0.26695  0.22247  1.0000
  H   H4799     1.0  0.76577  0.28181  0.20729  1.0000
  H   H4800     1.0  0.77018  0.28943  0.21959  1.0000
  H   H4801     1.0  0.70901  0.33506  0.21369  1.0000
  H   H4802     1.0  0.69066  0.33031  0.20950  1.0000
  H   H4803     1.0  0.68679  0.33811  0.22386  1.0000
  H   H4804     1.0  0.72829  0.31327  0.27447  1.0000
  H   H4805     1.0  0.70567  0.31328  0.27397  1.0000
  H   H4806     1.0  0.72061  0.29279  0.27945  1.0000
  H   H4807     1.0  0.69550  0.04288  0.31528  1.0000
  H   H4808     1.0  0.81769  0.23215  0.31908  1.0000
  H   H4809     1.0  0.94191  0.17373  0.29799  1.0000
  N   N151      1.0  0.80304  0.38796  0.19709  1.0000
  H   H4810     1.0  0.79091  0.23582  0.27676  1.0000
  H   H4811     1.0  0.68631  0.02734  0.26229  1.0000
  H   H4812     1.0  0.59138  0.22975  0.20656  1.0000
  H   H4813     1.0  0.84071  0.07851  0.35408  1.0000
  H   H4814     1.0  0.83631  0.19208  0.31596  1.0000
  H   H4815     1.0  0.80413  0.22099  0.29579  1.0000
  H   H4816     1.0  0.95800  0.16265  0.30783  1.0000
  H   H4817     1.0  0.73283  0.19401  0.30517  1.0000
  C   C2712     1.0  0.86293  0.05836  0.36819  1.0000
  H   H4818     1.0  0.87801  0.04841  0.38325  1.0000
  C   C2713     1.0  0.83502  0.10620  0.34531  1.0000
  H   H4819     1.0  0.86077  0.17938  0.30176  1.0000
  H   H4820     1.0  0.85705  0.16438  0.28526  1.0000
  H   H4821     1.0  0.74661  0.16128  0.30781  1.0000
  C   C2714     1.0  0.87331  0.08268  0.33790  1.0000
  H   H4822     1.0  0.98635  0.28288  0.34989  1.0000
  C   C2715     1.0  0.87125  0.01854  0.27378  1.0000
  C   C2716     1.0  0.88574  0.41122  0.37172  1.0000
  H   H4823     1.0  0.71486  0.16913  0.31674  1.0000
  H   H4824     1.0  0.79718  0.19727  0.19316  1.0000
  H   H4825     1.0  0.78845  0.16222  0.31819  1.0000
  H   H4826     1.0  0.87530  0.04991  0.32204  1.0000
  H   H4827     1.0  0.67359  0.03950  0.25047  1.0000
  H   H4828     1.0  0.85541  0.06556  0.33832  1.0000
  H   H4829     1.0  0.59869  0.01177  0.37601  1.0000
  C   C2717     1.0  0.97543  0.29089  0.38002  1.0000
  H   H4830     1.0  0.80301  0.42588  0.18857  1.0000
  C   C2718     1.0  0.59500  0.21521  0.20727  1.0000
  H   H4831     1.0  0.60448  0.20928  0.21374  1.0000
  H   H4832     1.0  0.79895  0.16129  0.30192  1.0000
  C   C2719     1.0  0.82306  0.27442  0.18811  1.0000
  C   C2720     1.0  0.77673  0.22294  0.20851  1.0000
  S   S620      1.0  0.91737  0.33227  0.36004  1.0000
  C   C2721     1.0  0.97304  0.22632  0.31849  1.0000
  H   H4833     1.0  0.98023  0.17890  0.30918  1.0000
  H   H4834     1.0  0.60186  0.16051  0.38017  1.0000
  H   H4835     1.0  0.80798  0.11802  0.34236  1.0000
  C   C2722     1.0  0.60445  0.02183  0.36827  1.0000
  H   H4836     1.0  0.56765  0.21410  0.20754  1.0000
  C   C2723     1.0  0.80559  0.23091  0.27600  1.0000
  H   H4837     1.0  0.77400  0.28950  0.24185  1.0000
  H   H4838     1.0  0.76814  0.00163  0.32880  1.0000
  H   H4839     1.0  0.84889  0.19592  0.37484  1.0000
  C   C2724     1.0  0.94877  0.40148  0.35049  1.0000
  H   H4840     1.0  0.57591  0.15132  0.37343  1.0000
  H   H4841     1.0  0.96711  0.29901  0.33478  1.0000
  C   C2725     1.0  0.62018  0.02674  0.37141  1.0000
  C   C2726     1.0  0.96865  0.21193  0.31359  1.0000
  C   C2727     1.0  0.65210  0.01807  0.37194  1.0000
  C   C2728     1.0  0.78286  0.38997  0.19970  1.0000
  H   H4842     1.0  0.74422  0.33106  0.36604  1.0000
  H   H4843     1.0  0.61056  0.01776  0.28639  1.0000
  H   H4844     1.0  0.57220  0.21160  0.22289  1.0000
  H   H4845     1.0  0.68194  0.99504  0.35546  1.0000
  H   H4846     1.0  0.87225  0.07341  0.31587  1.0000
  H   H4847     1.0  0.87458  0.02764  0.26448  1.0000
  C   C2729     1.0  0.87348  0.07318  0.36090  1.0000
  N   N152      1.0  0.82564  0.26462  0.22391  1.0000
  C   C2730     1.0  0.83801  0.27075  0.22920  1.0000
  C   C2731     1.0  0.83033  0.24460  0.22632  1.0000
  C   C2732     1.0  0.82943  0.27148  0.20970  1.0000
  C   C2733     1.0  0.80597  0.27134  0.22923  1.0000
  C   C2734     1.0  0.80080  0.27378  0.24310  1.0000
  C   C2735     1.0  0.83747  0.29095  0.22542  1.0000
  C   C2736     1.0  0.81883  0.26579  0.20221  1.0000
  C   C2737     1.0  0.82847  0.23445  0.24030  1.0000
  C   C2738     1.0  0.83688  0.21470  0.24121  1.0000
  C   C2739     1.0  0.78046  0.27742  0.24795  1.0000
  C   C2740     1.0  0.84576  0.29662  0.23410  1.0000
  H   H4848     1.0  0.87133  0.23371  0.36932  1.0000
  H   H4849     1.0  0.85222  0.26391  0.22611  1.0000
  H   H4850     1.0  0.83533  0.26691  0.23969  1.0000
  H   H4851     1.0  0.82153  0.23958  0.22252  1.0000
  H   H4852     1.0  0.84435  0.24007  0.22119  1.0000
  H   H4853     1.0  0.84404  0.26747  0.20559  1.0000
  H   H4854     1.0  0.82611  0.28625  0.20737  1.0000
  H   H4855     1.0  0.80086  0.28459  0.22349  1.0000
  H   H4856     1.0  0.79784  0.26246  0.22845  1.0000
  H   H4857     1.0  0.80548  0.28537  0.24361  1.0000
  H   H4858     1.0  0.80676  0.26209  0.24969  1.0000
  H   H4859     1.0  0.84527  0.29445  0.21559  1.0000
  H   H4860     1.0  0.82351  0.29872  0.22580  1.0000
  H   H4861     1.0  0.80412  0.26975  0.20580  1.0000
  H   H4862     1.0  0.82249  0.25128  0.20283  1.0000
  H   H4863     1.0  0.83517  0.23931  0.24576  1.0000
  H   H4864     1.0  0.81401  0.23561  0.24486  1.0000
  H   H4865     1.0  0.83532  0.20774  0.25132  1.0000
  H   H4866     1.0  0.83008  0.20870  0.23649  1.0000
  H   H4867     1.0  0.85145  0.21266  0.23683  1.0000
  H   H4868     1.0  0.98113  0.39190  0.36778  1.0000
  H   H4869     1.0  0.98242  0.24651  0.26835  1.0000
  C   C2741     1.0  0.67761  0.22553  0.29433  1.0000
  C   C2742     1.0  0.58945  0.09134  0.34161  1.0000
  H   H4870     1.0  0.95136  0.29888  0.35685  1.0000
  H   H4871     1.0  0.70357  0.04614  0.24432  1.0000
  H   H4872     1.0  0.58331  0.04330  0.37474  1.0000
  C   C2743     1.0  0.88527  0.28403  0.34998  1.0000
  C   C2744     1.0  0.87510  0.27432  0.34715  1.0000
  H   H4873     1.0  0.87929  0.29736  0.35140  1.0000
  H   H4874     1.0  0.86131  0.28019  0.34639  1.0000
  S   S621      1.0  0.88848  0.19378  0.34913  1.0000
  H   H4875     1.0  0.85368  0.21527  0.30378  1.0000
  C   C2745     1.0  0.91834  0.21993  0.38153  1.0000
  C   C2746     1.0  0.74944  0.16994  0.31293  1.0000
  C   C2747     1.0  0.68100  0.26506  0.24596  1.0000
  H   H4876     1.0  0.72871  0.21825  0.20429  1.0000
  C   C2748     1.0  0.67758  0.21417  0.30768  1.0000
  C   C2749     1.0  0.98984  0.18237  0.34409  1.0000
  H   H4877     1.0  0.92104  0.39853  0.35974  1.0000
  C   C2750     1.0  0.96371  0.44535  0.36745  1.0000
  H   H4878     1.0  0.56903  0.08689  0.35835  1.0000
  C   C2751     1.0  0.94471  0.39389  0.37363  1.0000
  C   C2752     1.0  0.86582  0.20838  0.38047  1.0000
  C   C2753     1.0  0.86865  0.22713  0.37953  1.0000
  C   C2754     1.0  0.98825  0.39956  0.34751  1.0000
  H   H4879     1.0  0.90897  0.11961  0.34866  1.0000
  H   H4880     1.0  0.88722  0.13240  0.34624  1.0000
  H   H4881     1.0  0.79229  0.23946  0.21138  1.0000
  C   C2755     1.0  0.88262  0.25693  0.34555  1.0000
  H   H4882     1.0  0.72545  0.05217  0.29978  1.0000
  C   C2756     1.0  0.96176  0.42607  0.37096  1.0000
  C   C2757     1.0  0.92275  0.40644  0.33983  1.0000
  C   C2758     1.0  0.95413  0.42187  0.36104  1.0000
  H   H4883     1.0  0.85321  0.21627  0.36416  1.0000
  N   N153      1.0  0.86555  0.08742  0.35069  1.0000
  H   H4884     1.0  0.68868  0.25112  0.24766  1.0000
  S   S622      1.0  0.98918  0.33906  0.37977  1.0000
  H   H4885     1.0  0.76426  0.18396  0.19317  1.0000
  C   C2759     1.0  0.70645  0.07243  0.30820  1.0000
  N   N154      1.0  0.69895  0.19354  0.32207  1.0000
  C   C2760     1.0  0.69632  0.20209  0.30875  1.0000
  H   H4886     1.0  0.68876  0.18004  0.34813  1.0000
  C   C2761     1.0  0.86288  0.17632  0.28276  1.0000
  C   C2762     1.0  0.59214  0.09046  0.36378  1.0000
  H   H4887     1.0  0.59694  0.07584  0.36538  1.0000
  H   H4888     1.0  0.76587  0.31990  0.36963  1.0000
  H   H4889     1.0  0.71175  0.40808  0.18832  1.0000
  H   H4890     1.0  0.96805  0.20025  0.32161  1.0000
  H   H4891     1.0  0.65639  0.02031  0.36141  1.0000
  C   C2763     1.0  0.89438  0.11969  0.35130  1.0000
  H   H4892     1.0  0.86240  0.26357  0.37493  1.0000
  H   H4893     1.0  0.82242  0.39615  0.20345  1.0000
  C   C2764     1.0  0.58927  0.03801  0.36599  1.0000
  C   C2765     1.0  0.80897  0.17782  0.30984  1.0000
  H   H4894     1.0  0.97417  0.44765  0.35868  1.0000
  H   H4895     1.0  0.93639  0.29369  0.33120  1.0000
  H   H4896     1.0  0.69810  0.07440  0.31760  1.0000
  H   H4897     1.0  0.83818  0.36973  0.20043  1.0000
  H   H4898     1.0  0.63163  0.21303  0.20302  1.0000
  H   H4899     1.0  0.67058  0.19441  0.33001  1.0000
  C   C2766     1.0  0.90044  0.24938  0.34656  1.0000
  H   H4900     1.0  0.85544  0.23477  0.38363  1.0000
  S   S623      1.0  0.88288  0.35927  0.38102  1.0000
  C   C2767     1.0  0.96288  0.29943  0.36054  1.0000
  H   H4901     1.0  0.88972  0.11893  0.36166  1.0000
  H   H4902     1.0  0.69747  0.07377  0.30177  1.0000
  H   H4903     1.0  0.68040  0.26956  0.23578  1.0000
  H   H4904     1.0  0.71799  0.17211  0.33108  1.0000
  C   C2768     1.0  0.97629  0.30561  0.33689  1.0000
  S   S624      1.0  0.62373  0.99878  0.31177  1.0000
  H   H4905     1.0  0.83591  0.21694  0.32589  1.0000
  C   C2769     1.0  0.92810  0.40739  0.35169  1.0000
  H   H4906     1.0  0.94036  0.38268  0.37209  1.0000
  H   H4907     1.0  0.89708  0.10466  0.33748  1.0000
  H   H4908     1.0  0.86378  0.10922  0.35916  1.0000
  C   C2770     1.0  0.73365  0.18561  0.31467  1.0000
  H   H4909     1.0  0.68209  0.21704  0.28725  1.0000
  H   H4910     1.0  0.77589  0.40216  0.20343  1.0000
  H   H4911     1.0  0.86850  0.09365  0.33034  1.0000
  H   H4912     1.0  0.66968  0.05305  0.37315  1.0000
  C   C2771     1.0  0.82934  0.20650  0.28528  1.0000
  S   S625      1.0  0.67260  0.23897  0.20338  1.0000
  C   C2772     1.0  0.89103  0.10396  0.34772  1.0000
  H   H4913     1.0  0.96532  0.16785  0.29072  1.0000
  H   H4914     1.0  0.81265  0.09421  0.34671  1.0000
  H   H4915     1.0  0.77837  0.36305  0.20407  1.0000
  C   C2773     1.0  0.88392  0.39454  0.37108  1.0000
  H   H4916     1.0  0.51828  0.01545  0.37044  1.0000
  C   C2774     1.0  0.71597  0.17931  0.32144  1.0000
  C   C2775     1.0  0.68349  0.18447  0.32898  1.0000
  H   H4917     1.0  0.75223  0.16207  0.32225  1.0000
  H   H4918     1.0  0.85940  0.02572  0.27970  1.0000
  H   H4919     1.0  0.92303  0.42117  0.35311  1.0000
  H   H4920     1.0  0.81158  0.24197  0.27594  1.0000
  H   H4921     1.0  0.88701  0.16128  0.28971  1.0000
  H   H4922     1.0  0.65497  0.02602  0.26854  1.0000
  H   H4923     1.0  0.86574  0.11523  0.34248  1.0000
  H   H4924     1.0  0.78839  0.18102  0.20647  1.0000
  S   S626      1.0  0.91488  0.28722  0.35670  1.0000
  H   H4925     1.0  0.88823  0.16215  0.27331  1.0000
  H   H4926     1.0  0.89836  0.09173  0.35313  1.0000
  H   H4927     1.0  0.73759  0.16053  0.23444  1.0000
  C   C2776     1.0  0.78912  0.18689  0.19625  1.0000
  H   H4928     1.0  0.84012  0.10547  0.33525  1.0000
  C   C2777     1.0  0.68459  0.17309  0.34247  1.0000
  H   H4929     1.0  0.66127  0.16230  0.34415  1.0000
  C   C2778     1.0  0.96505  0.24295  0.36361  1.0000
  S   S627      1.0  0.86917  0.24441  0.34325  1.0000
  H   H4930     1.0  0.87478  0.07916  0.36841  1.0000
  H   H4931     1.0  0.61435  0.03566  0.37824  1.0000
  C   C2779     1.0  0.88327  0.16994  0.28084  1.0000
  H   H4932     1.0  0.88992  0.18139  0.27795  1.0000
  C   C2780     1.0  0.87058  0.10452  0.35021  1.0000
  C   C2781     1.0  0.65364  0.21272  0.18701  1.0000
  S   S628      1.0  0.76234  0.99966  0.28337  1.0000
  H   H4933     1.0  0.98537  0.22096  0.32241  1.0000
  H   H4934     1.0  0.70481  0.02497  0.27756  1.0000
  C   C2782     1.0  0.93493  0.20982  0.37374  1.0000
  H   H4935     1.0  0.74859  0.38365  0.20352  1.0000
  H   H4936     1.0  0.62604  0.03526  0.36245  1.0000
  H   H4937     1.0  0.98273  0.26411  0.36729  1.0000
  H   H4938     1.0  0.00112  0.19746  0.31368  1.0000
  N   N155      1.0  0.75737  0.20706  0.20139  1.0000
  H   H4939     1.0  0.60652  0.19569  0.19587  1.0000
  C   C2783     1.0  0.62701  0.14133  0.37840  1.0000
  H   H4940     1.0  0.98650  0.18448  0.29255  1.0000
  H   H4941     1.0  0.84082  0.42790  0.37841  1.0000
  N   N156      1.0  0.96321  0.28693  0.37331  1.0000
  H   H4942     1.0  0.62022  0.36299  0.19464  1.0000
  C   C2784     1.0  0.55024  0.09494  0.38333  1.0000
  H   H4943     1.0  0.62775  0.47873  0.18918  1.0000
  H   H4944     1.0  0.75252  0.23479  0.20193  1.0000
  H   H4945     1.0  0.54856  0.09836  0.37343  1.0000
  H   H4946     1.0  0.85050  0.06386  0.37461  1.0000
  H   H4947     1.0  0.98053  0.23371  0.29188  1.0000
  H   H4948     1.0  0.73287  0.18394  0.21555  1.0000
  C   C2785     1.0  0.57788  0.20812  0.21346  1.0000
  N   N157      1.0  0.66934  0.00186  0.26202  1.0000
  H   H4949     1.0  0.64138  0.04655  0.37221  1.0000
  H   H4950     1.0  0.94318  0.26229  0.37126  1.0000
  C   C2786     1.0  0.87407  0.04331  0.37635  1.0000
  C   C2787     1.0  0.99718  0.17008  0.33633  1.0000
  H   H4951     1.0  0.91965  0.23394  0.37924  1.0000
  H   H4952     1.0  0.67354  0.00444  0.27979  1.0000
  H   H4953     1.0  0.86602  0.03319  0.38170  1.0000
  H   H4954     1.0  0.73057  0.99780  0.23446  1.0000
  H   H4955     1.0  0.61073  0.09819  0.37754  1.0000
  C   C2788     1.0  0.88700  0.37988  0.38095  1.0000
  H   H4956     1.0  0.75547  0.17068  0.21333  1.0000
  H   H4957     1.0  0.95236  0.42408  0.38032  1.0000
  H   H4958     1.0  0.97872  0.24204  0.35743  1.0000
  C   C2789     1.0  0.83336  0.36514  0.19374  1.0000
  H   H4959     1.0  0.54882  0.04120  0.38108  1.0000
  H   H4960     1.0  0.63092  0.00012  0.27164  1.0000
  S   S629      1.0  0.65941  0.11772  0.37782  1.0000
  H   H4961     1.0  0.94726  0.21079  0.37619  1.0000
  H   H4962     1.0  0.87960  0.99528  0.26608  1.0000
  H   H4963     1.0  0.97456  0.30547  0.37805  1.0000
  H   H4964     1.0  0.57257  0.12002  0.38367  1.0000
  C   C2790     1.0  0.60340  0.21042  0.19411  1.0000
  C   C2791     1.0  0.89114  0.41331  0.38206  1.0000
  H   H4965     1.0  0.96442  0.37374  0.38332  1.0000
  H   H4966     1.0  0.80859  0.36504  0.18894  1.0000
  C   C2792     1.0  0.68413  0.99771  0.34500  1.0000
  H   H4967     1.0  0.96588  0.23355  0.37284  1.0000
  H   H4968     1.0  0.69964  0.26028  0.19501  1.0000
  C   C2793     1.0  0.67727  0.99448  0.27372  1.0000
  H   H4969     1.0  0.64984  0.18087  0.38467  1.0000
  H   H4970     1.0  0.70952  0.99565  0.32273  1.0000
  H   H4971     1.0  0.73576  0.20064  0.19619  1.0000
  S   S630      1.0  0.74239  0.99340  0.25713  1.0000
  H   H4972     1.0  0.77079  0.22816  0.18980  1.0000
  H   H4973     1.0  0.85364  0.44198  0.38039  1.0000
  H   H4974     1.0  0.59284  0.21480  0.18840  1.0000
  H   H4975     1.0  0.61555  0.24067  0.19461  1.0000
  H   H4976     1.0  0.63614  0.19409  0.19659  1.0000
  C   C2794     1.0  0.00047  0.20309  0.30354  1.0000
  H   H4977     1.0  0.96805  0.25896  0.38191  1.0000
  H   H4978     1.0  0.99723  0.26723  0.38167  1.0000
  C   C2795     1.0  0.57004  0.08632  0.38435  1.0000
  H   H4979     1.0  0.54358  0.01967  0.38457  1.0000
  S   S631      1.0  0.76447  0.35497  0.18573  1.0000
  H   H4980     1.0  0.58735  0.24466  0.18600  1.0000
  H   H4981     1.0  0.66415  0.20430  0.20428  1.0000
  C   C2796     1.0  0.79935  0.17223  0.18905  1.0000
  H   H4982     1.0  0.82041  0.28908  0.18663  1.0000
  C   C2797     1.0  0.63486  0.20873  0.19388  1.0000
  S   S632      1.0  0.59439  0.99233  0.34505  1.0000
  C   C2798     1.0  0.84174  0.43591  0.38479  1.0000
  H   H4983     1.0  0.59661  0.27089  0.18848  1.0000
  H   H4984     1.0  0.66956  0.18742  0.19510  1.0000
  N   N158      1.0  0.88337  0.22791  0.38544  1.0000
  N   N159      1.0  0.61993  0.21746  0.18680  1.0000
  H   H4985     1.0  0.65433  0.38519  0.18647  1.0000
  H   H4986     1.0  0.64931  0.15835  0.38526  1.0000
  H   H4987     1.0  0.85732  0.28942  0.38407  1.0000
  C   C2799     1.0  0.95378  0.38558  0.38517  1.0000
  H   H4988     1.0  0.71030  0.22966  0.18639  1.0000
  C   C2800     1.0  0.57993  0.99109  0.37006  1.0000
  H   H4989     1.0  0.62475  0.99149  0.37195  1.0000
  C   C2801     1.0  0.86984  0.27911  0.38475  1.0000
  C   C2802     1.0  0.61594  0.36624  0.18549  1.0000
  H   H4990     1.0  0.73825  0.23969  0.18560  1.0000
  H   H4991     1.0  0.58295  0.15492  0.43910  1.0000
  S   S633      1.0  0.98328  0.43485  0.51058  1.0000
  H   H4992     1.0  0.51877  0.01629  0.54284  1.0000
  S   S634      1.0  0.90184  0.42668  0.54696  1.0000
  S   S635      1.0  0.94034  0.41714  0.51670  1.0000
  Fe  Fe317     1.0  0.57390  0.10189  0.53718  1.0000
  S   S636      1.0  0.58678  0.12558  0.53076  1.0000
  Fe  Fe318     1.0  0.60934  0.07616  0.53043  1.0000
  S   S637      1.0  0.62540  0.09722  0.52360  1.0000
  S   S638      1.0  0.62107  0.04732  0.53053  1.0000
  Fe  Fe319     1.0  0.60877  0.10802  0.54065  1.0000
  S   S639      1.0  0.61787  0.11237  0.55690  1.0000
  Fe  Fe320     1.0  0.60246  0.11294  0.51416  1.0000
  S   S640      1.0  0.60892  0.12461  0.49310  1.0000
  S   S641      1.0  0.59462  0.08536  0.54815  1.0000
  S   S642      1.0  0.58767  0.09093  0.51988  1.0000
  S   S643      1.0  0.55595  0.01546  0.53126  1.0000
  S   S644      1.0  0.54482  0.08901  0.44360  1.0000
  H   H4993     1.0  0.51708  0.10063  0.48030  1.0000
  H   H4994     1.0  0.64856  0.01848  0.54646  1.0000
  H   H4995     1.0  0.94915  0.47739  0.53971  1.0000
  C   C2803     1.0  0.88288  0.47106  0.48472  1.0000
  H   H4996     1.0  0.84715  0.01795  0.56778  1.0000
  C   C2804     1.0  0.59259  0.00081  0.57481  1.0000
  S   S645      1.0  0.68834  0.13425  0.55814  1.0000
  C   C2805     1.0  0.83438  0.10909  0.57394  1.0000
  S   S646      1.0  0.76880  0.12424  0.56817  1.0000
  H   H4997     1.0  0.98253  0.40453  0.50254  1.0000
  H   H4998     1.0  0.91310  0.32312  0.39538  1.0000
  Fe  Fe321     1.0  0.90973  0.47299  0.40459  1.0000
  S   S647      1.0  0.88554  0.46088  0.40978  1.0000
  Fe  Fe322     1.0  0.93491  0.43708  0.40775  1.0000
  S   S648      1.0  0.91318  0.42166  0.41367  1.0000
  S   S649      1.0  0.96408  0.42437  0.40419  1.0000
  Fe  Fe323     1.0  0.90201  0.44131  0.39777  1.0000
  H   H4999     1.0  0.93339  0.48696  0.41533  1.0000
  Fe  Fe324     1.0  0.89862  0.44222  0.42526  1.0000
  S   S650      1.0  0.88253  0.43656  0.44527  1.0000
  H   H5000     1.0  0.57523  0.99991  0.46787  1.0000
  S   S651      1.0  0.92157  0.45570  0.42090  1.0000
  H   H5001     1.0  0.61370  0.00654  0.48537  1.0000
  Fe  Fe325     1.0  0.56693  0.08564  0.42660  1.0000
  S   S652      1.0  0.58068  0.05934  0.42152  1.0000
  Fe  Fe326     1.0  0.55819  0.10890  0.44584  1.0000
  S   S653      1.0  0.55616  0.10839  0.46628  1.0000
  S   S654      1.0  0.58186  0.10329  0.43013  1.0000
  H   H5002     1.0  0.85114  0.22623  0.40426  1.0000
  H   H5003     1.0  0.81662  0.02889  0.56401  1.0000
  H   H5004     1.0  0.97012  0.48831  0.52041  1.0000
  H   H5005     1.0  0.67939  0.15184  0.57793  1.0000
  H   H5006     1.0  0.93474  0.39990  0.54231  1.0000
  H   H5007     1.0  0.61534  0.06062  0.56715  1.0000
  N   N160      1.0  0.99684  0.36408  0.41735  1.0000
  H   H5008     1.0  0.98603  0.37361  0.50522  1.0000
  C   C2806     1.0  0.53693  0.02983  0.42587  1.0000
  C   C2807     1.0  0.55500  0.02160  0.42236  1.0000
  C   C2808     1.0  0.56855  0.03082  0.42063  1.0000
  C   C2809     1.0  0.56400  0.04826  0.42234  1.0000
  C   C2810     1.0  0.54594  0.05670  0.42521  1.0000
  C   C2811     1.0  0.53248  0.04748  0.42703  1.0000
  H   H5009     1.0  0.53345  0.05434  0.45236  1.0000
  H   H5010     1.0  0.58252  0.02431  0.41826  1.0000
  C   C2812     1.0  0.97381  0.42756  0.41543  1.0000
  C   C2813     1.0  0.96361  0.42874  0.42755  1.0000
  C   C2814     1.0  0.97147  0.43088  0.43665  1.0000
  C   C2815     1.0  0.59094  0.00111  0.56127  1.0000
  H   H5011     1.0  0.85537  0.41299  0.39611  1.0000
  C   C2816     1.0  0.96737  0.40600  0.56030  1.0000
  H   H5012     1.0  0.94972  0.42779  0.42998  1.0000
  H   H5013     1.0  0.96354  0.43167  0.44600  1.0000
  H   H5014     1.0  0.99068  0.38871  0.56711  1.0000
  H   H5015     1.0  0.50639  0.11676  0.46006  1.0000
  H   H5016     1.0  0.50746  0.04490  0.56861  1.0000
  C   C2817     1.0  0.69567  0.17923  0.56652  1.0000
  H   H5017     1.0  0.98708  0.42654  0.46999  1.0000
  H   H5018     1.0  0.56721  0.01436  0.48300  1.0000
  H   H5019     1.0  0.94931  0.46582  0.57586  1.0000
  H   H5020     1.0  0.59299  0.00090  0.49482  1.0000
  S   S655      1.0  0.55193  0.10640  0.41310  1.0000
  H   H5021     1.0  0.96460  0.35618  0.43669  1.0000
  H   H5022     1.0  0.56273  0.99987  0.56523  1.0000
  H   H5023     1.0  0.89916  0.39996  0.39965  1.0000
  H   H5024     1.0  0.52314  0.05786  0.50088  1.0000
  C   C2818     1.0  0.91523  0.47118  0.46442  1.0000
  H   H5025     1.0  0.64212  0.00056  0.56895  1.0000
  Fe  Fe327     1.0  0.95377  0.43999  0.51170  1.0000
  C   C2819     1.0  0.98948  0.43210  0.43360  1.0000
  C   C2820     1.0  0.59606  0.06418  0.47434  1.0000
  H   H5026     1.0  0.85446  0.46556  0.43437  1.0000
  H   H5027     1.0  0.78146  0.07686  0.55730  1.0000
  H   H5028     1.0  0.53713  0.03487  0.57323  1.0000
  H   H5029     1.0  0.63300  0.07518  0.38964  1.0000
  C   C2821     1.0  0.78881  0.14404  0.57231  1.0000
  C   C2822     1.0  0.57280  0.00720  0.45840  1.0000
  H   H5030     1.0  0.98668  0.37968  0.48392  1.0000
  H   H5031     1.0  0.78901  0.15090  0.56255  1.0000
  H   H5032     1.0  0.55323  0.02663  0.44924  1.0000
  C   C2823     1.0  0.52434  0.11453  0.51574  1.0000
  C   C2824     1.0  0.50850  0.09551  0.47636  1.0000
  C   C2825     1.0  0.57442  0.02370  0.53110  1.0000
  C   C2826     1.0  0.59209  0.01419  0.52806  1.0000
  C   C2827     1.0  0.60654  0.02136  0.52788  1.0000
  C   C2828     1.0  0.60328  0.03790  0.53096  1.0000
  C   C2829     1.0  0.58560  0.04709  0.53433  1.0000
  C   C2830     1.0  0.57127  0.04015  0.53423  1.0000
  C   C2831     1.0  0.99194  0.42838  0.41243  1.0000
  H   H5033     1.0  0.62018  0.01413  0.52527  1.0000
  H   H5034     1.0  0.58284  0.05953  0.53720  1.0000
  H   H5035     1.0  0.55770  0.04760  0.53666  1.0000
  C   C2832     1.0  0.59420  0.12111  0.48517  1.0000
  C   C2833     1.0  0.59998  0.11943  0.47248  1.0000
  C   C2834     1.0  0.58833  0.11605  0.46630  1.0000
  C   C2835     1.0  0.57093  0.11431  0.47285  1.0000
  C   C2836     1.0  0.56523  0.11616  0.48543  1.0000
  C   C2837     1.0  0.57675  0.11959  0.49157  1.0000
  H   H5036     1.0  0.61360  0.12031  0.46759  1.0000
  H   H5037     1.0  0.59284  0.11429  0.45668  1.0000
  H   H5038     1.0  0.55184  0.11473  0.49048  1.0000
  H   H5039     1.0  0.57205  0.12115  0.50126  1.0000
  C   C2838     1.0  0.63879  0.11666  0.55640  1.0000
  C   C2839     1.0  0.64587  0.11056  0.56739  1.0000
  C   C2840     1.0  0.66165  0.11505  0.56781  1.0000
  C   C2841     1.0  0.67012  0.12617  0.55735  1.0000
  C   C2842     1.0  0.66326  0.13198  0.54628  1.0000
  C   C2843     1.0  0.64775  0.12706  0.54574  1.0000
  C   C2844     1.0  0.64421  0.16440  0.57516  1.0000
  H   H5040     1.0  0.87233  0.21295  0.42553  1.0000
  H   H5041     1.0  0.66975  0.14061  0.53816  1.0000
  H   H5042     1.0  0.64229  0.13197  0.53728  1.0000
  C   C2845     1.0  0.91819  0.42103  0.47420  1.0000
  C   C2846     1.0  0.89953  0.42609  0.47808  1.0000
  C   C2847     1.0  0.88854  0.43035  0.46924  1.0000
  C   C2848     1.0  0.89622  0.43013  0.45645  1.0000
  C   C2849     1.0  0.91483  0.42495  0.45262  1.0000
  C   C2850     1.0  0.92575  0.42018  0.46150  1.0000
  H   H5043     1.0  0.89360  0.42635  0.48793  1.0000
  H   H5044     1.0  0.87411  0.43405  0.47227  1.0000
  H   H5045     1.0  0.92080  0.42433  0.44285  1.0000
  H   H5046     1.0  0.96200  0.48096  0.55463  1.0000
  H   H5047     1.0  0.86431  0.45337  0.48929  1.0000
  H   H5048     1.0  0.52164  0.02774  0.45555  1.0000
  H   H5049     1.0  0.61520  0.07460  0.40379  1.0000
  C   C2851     1.0  0.98976  0.44091  0.52220  1.0000
  H   H5050     1.0  0.62676  0.05450  0.39840  1.0000
  H   H5051     1.0  0.54329  0.02961  0.39732  1.0000
  H   H5052     1.0  0.86055  0.20017  0.42080  1.0000
  C   C2852     1.0  0.99856  0.38972  0.39721  1.0000
  H   H5053     1.0  0.89485  0.37066  0.39897  1.0000
  H   H5054     1.0  0.59438  0.09715  0.39206  1.0000
  N   N161      1.0  0.84727  0.42431  0.42001  1.0000
  C   C2853     1.0  0.84591  0.43453  0.40672  1.0000
  C   C2854     1.0  0.84919  0.43624  0.42776  1.0000
  C   C2855     1.0  0.86418  0.40992  0.41893  1.0000
  C   C2856     1.0  0.83160  0.41550  0.42650  1.0000
  C   C2857     1.0  0.81265  0.42771  0.42739  1.0000
  H   H5055     1.0  0.57521  0.06713  0.57419  1.0000
  C   C2858     1.0  0.86973  0.39917  0.43158  1.0000
  C   C2859     1.0  0.83908  0.45596  0.42517  1.0000
  C   C2860     1.0  0.84024  0.46559  0.43486  1.0000
  C   C2861     1.0  0.79809  0.41681  0.43209  1.0000
  H   H5056     1.0  0.96341  0.44493  0.53427  1.0000
  C   C2862     1.0  0.88623  0.38428  0.42925  1.0000
  H   H5057     1.0  0.85808  0.44024  0.40212  1.0000
  H   H5058     1.0  0.83449  0.44614  0.40674  1.0000
  H   H5059     1.0  0.84535  0.43050  0.43808  1.0000
  H   H5060     1.0  0.86353  0.43688  0.42613  1.0000
  H   H5061     1.0  0.87575  0.41582  0.41295  1.0000
  H   H5062     1.0  0.86298  0.40005  0.41408  1.0000
  H   H5063     1.0  0.83209  0.40464  0.42191  1.0000
  H   H5064     1.0  0.83252  0.40883  0.43644  1.0000
  H   H5065     1.0  0.81065  0.43635  0.41813  1.0000
  H   H5066     1.0  0.81045  0.43601  0.43436  1.0000
  H   H5067     1.0  0.93434  0.48367  0.44812  1.0000
  H   H5068     1.0  0.91757  0.44455  0.57737  1.0000
  H   H5069     1.0  0.85887  0.39287  0.43812  1.0000
  H   H5070     1.0  0.87312  0.40779  0.43644  1.0000
  H   H5071     1.0  0.84526  0.46300  0.41567  1.0000
  H   H5072     1.0  0.82474  0.45738  0.42537  1.0000
  H   H5073     1.0  0.51057  0.02874  0.47142  1.0000
  H   H5074     1.0  0.99063  0.33974  0.43005  1.0000
  H   H5075     1.0  0.93673  0.48620  0.58026  1.0000
  H   H5076     1.0  0.79919  0.40808  0.44153  1.0000
  H   H5077     1.0  0.78462  0.42585  0.43297  1.0000
  H   H5078     1.0  0.79923  0.40854  0.42529  1.0000
  H   H5079     1.0  0.83905  0.00675  0.58369  1.0000
  H   H5080     1.0  0.88403  0.48193  0.48860  1.0000
  H   H5081     1.0  0.90937  0.30981  0.38616  1.0000
  H   H5082     1.0  0.88336  0.37486  0.42477  1.0000
  H   H5083     1.0  0.89785  0.38974  0.42303  1.0000
  H   H5084     1.0  0.88995  0.37690  0.43841  1.0000
  C   C2863     1.0  0.61712  0.01797  0.56466  1.0000
  H   H5085     1.0  0.78483  0.08570  0.56943  1.0000
  C   C2864     1.0  0.56661  0.17206  0.42634  1.0000
  H   H5086     1.0  0.62847  0.01849  0.39455  1.0000
  C   C2865     1.0  0.53575  0.11185  0.52401  1.0000
  C   C2866     1.0  0.78785  0.05712  0.57409  1.0000
  H   H5087     1.0  0.62265  0.02888  0.56547  1.0000
  H   H5088     1.0  0.58785  0.01464  0.55553  1.0000
  H   H5089     1.0  0.51867  0.17234  0.46301  1.0000
  H   H5090     1.0  0.99222  0.39941  0.46037  1.0000
  S   S656      1.0  0.93239  0.41487  0.48499  1.0000
  N   N162      1.0  0.97101  0.39492  0.58390  1.0000
  H   H5091     1.0  0.56792  0.18453  0.42818  1.0000
  H   H5092     1.0  0.58335  0.02988  0.50125  1.0000
  H   H5093     1.0  0.52787  0.12147  0.50603  1.0000
  C   C2867     1.0  0.99545  0.45364  0.47565  1.0000
  C   C2868     1.0  0.71274  0.03187  0.58257  1.0000
  H   H5094     1.0  0.95769  0.38506  0.47238  1.0000
  H   H5095     1.0  0.86300  0.10894  0.57028  1.0000
  H   H5096     1.0  0.89162  0.21987  0.40338  1.0000
  H   H5097     1.0  0.63434  0.17787  0.40730  1.0000
  Fe  Fe328     1.0  0.92829  0.43079  0.49971  1.0000
  S   S657      1.0  0.93191  0.45684  0.52335  1.0000
  H   H5098     1.0  0.55710  0.08790  0.50841  1.0000
  H   H5099     1.0  0.94725  0.37195  0.40482  1.0000
  C   C2869     1.0  0.90309  0.40269  0.56941  1.0000
  H   H5100     1.0  0.98444  0.47088  0.42655  1.0000
  H   H5101     1.0  0.52358  0.05637  0.46845  1.0000
  S   S658      1.0  0.94374  0.45232  0.49386  1.0000
  S   S659      1.0  0.71709  0.13556  0.58188  1.0000
  H   H5102     1.0  0.58772  0.03221  0.48429  1.0000
  H   H5103     1.0  0.00186  0.31294  0.41178  1.0000
  H   H5104     1.0  0.50526  0.07600  0.45320  1.0000
  C   C2870     1.0  0.51790  0.03766  0.56186  1.0000
  H   H5105     1.0  0.99990  0.42759  0.40303  1.0000
  C   C2871     1.0  0.50463  0.06180  0.45697  1.0000
  H   H5106     1.0  0.55475  0.06554  0.51613  1.0000
  H   H5107     1.0  0.52582  0.99824  0.47968  1.0000
  Fe  Fe329     1.0  0.56546  0.12444  0.41758  1.0000
  N   N163      1.0  0.53945  0.01939  0.46883  1.0000
  H   H5108     1.0  0.51735  0.02341  0.56470  1.0000
  H   H5109     1.0  0.51306  0.06042  0.54663  1.0000
  C   C2872     1.0  0.52298  0.03108  0.46419  1.0000
  H   H5110     1.0  0.94011  0.41601  0.45848  1.0000
  C   C2873     1.0  0.62257  0.06296  0.57355  1.0000
  H   H5111     1.0  0.95083  0.46629  0.46557  1.0000
  H   H5112     1.0  0.54023  0.07914  0.50564  1.0000
  C   C2874     1.0  0.97951  0.39907  0.46757  1.0000
  H   H5113     1.0  0.61079  0.03656  0.50090  1.0000
  C   C2875     1.0  0.93170  0.45777  0.55919  1.0000
  C   C2876     1.0  0.64967  0.16755  0.39097  1.0000
  H   H5114     1.0  0.94502  0.45325  0.56170  1.0000
  H   H5115     1.0  0.90981  0.48048  0.55798  1.0000
  C   C2877     1.0  0.89679  0.48586  0.44826  1.0000
  C   C2878     1.0  0.94991  0.38258  0.43751  1.0000
  H   H5116     1.0  0.55312  0.99846  0.49102  1.0000
  C   C2879     1.0  0.99568  0.34490  0.41981  1.0000
  H   H5117     1.0  0.79417  0.01244  0.56347  1.0000
  H   H5118     1.0  0.97763  0.38897  0.41899  1.0000
  H   H5119     1.0  0.80252  0.05505  0.57012  1.0000
  C   C2880     1.0  0.52501  0.15857  0.46181  1.0000
  S   S660      1.0  0.92487  0.45537  0.39104  1.0000
  H   H5120     1.0  0.59313  0.02234  0.45565  1.0000
  H   H5121     1.0  0.96937  0.39808  0.48764  1.0000
  H   H5122     1.0  0.56490  0.05611  0.49594  1.0000
  N   N164      1.0  0.89823  0.48426  0.46169  1.0000
  C   C2881     1.0  0.99031  0.42263  0.47944  1.0000
  H   H5123     1.0  0.51089  0.09124  0.55085  1.0000
  H   H5124     1.0  0.89439  0.45984  0.48625  1.0000
  H   H5125     1.0  0.93041  0.39106  0.40015  1.0000
  H   H5126     1.0  0.62057  0.03447  0.48515  1.0000
  H   H5127     1.0  0.57093  0.99749  0.45371  1.0000
  C   C2882     1.0  0.77913  0.07562  0.56768  1.0000
  H   H5128     1.0  0.96768  0.39030  0.45575  1.0000
  C   C2883     1.0  0.61316  0.99932  0.39669  1.0000
  H   H5129     1.0  0.91564  0.29947  0.40125  1.0000
  H   H5130     1.0  0.82100  0.00525  0.56954  1.0000
  H   H5131     1.0  0.97585  0.36925  0.44151  1.0000
  H   H5132     1.0  0.97035  0.41228  0.46586  1.0000
  C   C2884     1.0  0.89245  0.38195  0.39130  1.0000
  H   H5133     1.0  0.61182  0.02323  0.55589  1.0000
  H   H5134     1.0  0.98417  0.39254  0.39688  1.0000
  C   C2885     1.0  0.56736  0.06894  0.49608  1.0000
  H   H5135     1.0  0.96960  0.37354  0.41467  1.0000
  C   C2886     1.0  0.50400  0.02144  0.54530  1.0000
  C   C2887     1.0  0.62554  0.06488  0.49666  1.0000
  N   N165      1.0  0.99633  0.40275  0.48334  1.0000
  H   H5136     1.0  0.56140  0.01029  0.50600  1.0000
  Fe  Fe330     1.0  0.74257  0.11571  0.57725  1.0000
  H   H5137     1.0  0.60376  0.99405  0.55611  1.0000
  H   H5138     1.0  0.56421  0.07862  0.48741  1.0000
  H   H5139     1.0  0.78524  0.04249  0.56154  1.0000
  H   H5140     1.0  0.61497  0.06910  0.50463  1.0000
  H   H5141     1.0  0.83424  0.45915  0.44461  1.0000
  H   H5142     1.0  0.51927  0.13271  0.46753  1.0000
  H   H5143     1.0  0.62926  0.06209  0.47766  1.0000
  H   H5144     1.0  0.50586  0.05408  0.41107  1.0000
  C   C2888     1.0  0.94020  0.37943  0.39706  1.0000
  S   S661      1.0  0.51972  0.01825  0.42933  1.0000
  H   H5145     1.0  0.87334  0.27794  0.39392  1.0000
  H   H5146     1.0  0.76535  0.04765  0.57280  1.0000
  H   H5147     1.0  0.63182  0.05073  0.49981  1.0000
  C   C2889     1.0  0.86097  0.21373  0.42121  1.0000
  H   H5148     1.0  0.61353  0.15885  0.46351  1.0000
  H   H5149     1.0  0.91868  0.21431  0.39165  1.0000
  C   C2890     1.0  0.60963  0.05640  0.46333  1.0000
  H   H5150     1.0  0.94313  0.27897  0.38992  1.0000
  H   H5151     1.0  0.80633  0.15851  0.57494  1.0000
  H   H5152     1.0  0.87218  0.08593  0.56088  1.0000
  C   C2891     1.0  0.59399  0.02841  0.49259  1.0000
  H   H5153     1.0  0.65126  0.07150  0.48616  1.0000
  H   H5154     1.0  0.61427  0.08214  0.48084  1.0000
  S   S662      1.0  0.99870  0.43616  0.44480  1.0000
  H   H5155     1.0  0.59758  0.06401  0.39274  1.0000
  C   C2892     1.0  0.56782  0.05911  0.57162  1.0000
  H   H5156     1.0  0.58795  0.08121  0.49622  1.0000
  H   H5157     1.0  0.85298  0.08044  0.58410  1.0000
  H   H5158     1.0  0.58874  0.05995  0.50647  1.0000
  H   H5159     1.0  0.83410  0.03078  0.57941  1.0000
  H   H5160     1.0  0.99089  0.45738  0.46656  1.0000
  C   C2893     1.0  0.97793  0.37462  0.42087  1.0000
  C   C2894     1.0  0.60769  0.03966  0.49134  1.0000
  N   N166      1.0  0.66987  0.06142  0.55043  1.0000
  C   C2895     1.0  0.67333  0.06945  0.53640  1.0000
  C   C2896     1.0  0.67586  0.04141  0.55278  1.0000
  C   C2897     1.0  0.64977  0.06588  0.55543  1.0000
  C   C2898     1.0  0.67861  0.06910  0.55748  1.0000
  C   C2899     1.0  0.69917  0.06742  0.55314  1.0000
  C   C2900     1.0  0.66864  0.09001  0.53268  1.0000
  C   C2901     1.0  0.64281  0.05661  0.56931  1.0000
  C   C2902     1.0  0.69313  0.03349  0.54385  1.0000
  C   C2903     1.0  0.69895  0.01348  0.54852  1.0000
  C   C2904     1.0  0.70538  0.08024  0.55805  1.0000
  C   C2905     1.0  0.67317  0.09657  0.51831  1.0000
  H   H5161     1.0  0.85379  0.47566  0.49161  1.0000
  H   H5162     1.0  0.66572  0.06427  0.53167  1.0000
  H   H5163     1.0  0.68761  0.06547  0.53178  1.0000
  H   H5164     1.0  0.67760  0.03596  0.56273  1.0000
  H   H5165     1.0  0.66522  0.03545  0.55185  1.0000
  H   H5166     1.0  0.64255  0.06263  0.54936  1.0000
  H   H5167     1.0  0.64496  0.08033  0.55498  1.0000
  H   H5168     1.0  0.67210  0.08329  0.55729  1.0000
  H   H5169     1.0  0.67632  0.06267  0.56769  1.0000
  H   H5170     1.0  0.70371  0.07037  0.54272  1.0000
  H   H5171     1.0  0.70605  0.05377  0.55704  1.0000
  H   H5172     1.0  0.65414  0.09524  0.53601  1.0000
  H   H5173     1.0  0.67638  0.09590  0.53674  1.0000
  H   H5174     1.0  0.89146  0.24813  0.39086  1.0000
  C   C2906     1.0  0.63325  0.00231  0.56238  1.0000
  H   H5175     1.0  0.69054  0.03566  0.53423  1.0000
  H   H5176     1.0  0.70453  0.03951  0.54298  1.0000
  H   H5177     1.0  0.70054  0.01241  0.58012  1.0000
  H   H5178     1.0  0.50978  0.10982  0.40870  1.0000
  C   C2907     1.0  0.61183  0.99196  0.41090  1.0000
  H   H5179     1.0  0.72028  0.07738  0.55604  1.0000
  H   H5180     1.0  0.70049  0.09416  0.55329  1.0000
  H   H5181     1.0  0.70031  0.07888  0.56843  1.0000
  H   H5182     1.0  0.93058  0.46350  0.44654  1.0000
  H   H5183     1.0  0.66602  0.09091  0.51361  1.0000
  H   H5184     1.0  0.66893  0.11126  0.51593  1.0000
  H   H5185     1.0  0.81564  0.07407  0.57689  1.0000
  C   C2908     1.0  0.62845  0.15508  0.57730  1.0000
  H   H5186     1.0  0.86276  0.23909  0.40906  1.0000
  H   H5187     1.0  0.54122  0.03786  0.47920  1.0000
  C   C2909     1.0  0.63037  0.00674  0.39051  1.0000
  Fe  Fe331     1.0  0.91740  0.43482  0.52711  1.0000
  H   H5188     1.0  0.89484  0.05827  0.56521  1.0000
  C   C2910     1.0  0.51470  0.09760  0.54101  1.0000
  H   H5189     1.0  0.60249  0.11060  0.40671  1.0000
  C   C2911     1.0  0.92274  0.47683  0.56123  1.0000
  H   H5190     1.0  0.59064  0.04685  0.55921  1.0000
  H   H5191     1.0  0.92668  0.43111  0.56564  1.0000
  H   H5192     1.0  0.94790  0.44622  0.46291  1.0000
  H   H5193     1.0  0.76447  0.07843  0.57171  1.0000
  H   H5194     1.0  0.62191  0.06191  0.46044  1.0000
  H   H5195     1.0  0.64191  0.99705  0.39405  1.0000
  C   C2912     1.0  0.99585  0.39824  0.49736  1.0000
  H   H5196     1.0  0.51744  0.08642  0.47029  1.0000
  H   H5197     1.0  0.68826  0.00673  0.54880  1.0000
  C   C2913     1.0  0.88082  0.21873  0.39924  1.0000
  H   H5198     1.0  0.98386  0.45711  0.48338  1.0000
  H   H5199     1.0  0.96093  0.46030  0.45051  1.0000
  H   H5200     1.0  0.61762  0.15813  0.58548  1.0000
  N   N167      1.0  0.78408  0.02428  0.57993  1.0000
  H   H5201     1.0  0.88537  0.06732  0.57923  1.0000
  S   S663      1.0  0.54539  0.09965  0.54701  1.0000
  H   H5202     1.0  0.94513  0.30780  0.39298  1.0000
  C   C2914     1.0  0.60003  0.13635  0.39427  1.0000
  C   C2915     1.0  0.98267  0.39438  0.48128  1.0000
  H   H5203     1.0  0.63475  0.10075  0.39793  1.0000
  H   H5204     1.0  0.68787  0.09284  0.51458  1.0000
  H   H5205     1.0  0.95225  0.39598  0.43645  1.0000
  C   C2916     1.0  0.58054  0.04249  0.56770  1.0000
  H   H5206     1.0  0.64530  0.07322  0.50254  1.0000
  C   C2917     1.0  0.51495  0.04576  0.54817  1.0000
  C   C2918     1.0  0.97058  0.38581  0.46539  1.0000
  H   H5207     1.0  0.59750  0.07563  0.44858  1.0000
  C   C2919     1.0  0.63191  0.14999  0.41040  1.0000
  N   N168      1.0  0.60187  0.05941  0.48682  1.0000
  C   C2920     1.0  0.91772  0.31006  0.39261  1.0000
  H   H5208     1.0  0.99560  0.44531  0.57803  1.0000
  H   H5209     1.0  0.62761  0.17096  0.45049  1.0000
  H   H5210     1.0  0.59898  0.16113  0.41043  1.0000
  H   H5211     1.0  0.90682  0.44824  0.56432  1.0000
  C   C2921     1.0  0.64441  0.00560  0.54889  1.0000
  C   C2922     1.0  0.84851  0.13586  0.56837  1.0000
  H   H5212     1.0  0.61350  0.04173  0.46601  1.0000
  C   C2923     1.0  0.60048  0.16148  0.41995  1.0000
  H   H5213     1.0  0.60997  0.15250  0.56704  1.0000
  C   C2924     1.0  0.53747  0.00045  0.47165  1.0000
  H   H5214     1.0  0.51862  0.05404  0.42949  1.0000
  H   H5215     1.0  0.94808  0.37282  0.55642  1.0000
  H   H5216     1.0  0.63896  0.10252  0.57568  1.0000
  C   C2925     1.0  0.93209  0.47043  0.45342  1.0000
  H   H5217     1.0  0.96778  0.41119  0.54021  1.0000
  S   S664      1.0  0.54289  0.13174  0.43367  1.0000
  H   H5218     1.0  0.66224  0.16281  0.39462  1.0000
  H   H5219     1.0  0.80511  0.09673  0.57705  1.0000
  H   H5220     1.0  0.55127  0.03258  0.49916  1.0000
  H   H5221     1.0  0.53697  0.15380  0.46618  1.0000
  C   C2926     1.0  0.51050  0.05845  0.50822  1.0000
  H   H5222     1.0  0.71131  0.00818  0.54197  1.0000
  H   H5223     1.0  0.88237  0.20422  0.40029  1.0000
  H   H5224     1.0  0.59273  0.07887  0.47110  1.0000
  H   H5225     1.0  0.55412  0.16835  0.43263  1.0000
  H   H5226     1.0  0.61920  0.07732  0.57358  1.0000
  H   H5227     1.0  0.55859  0.00810  0.42114  1.0000
  C   C2927     1.0  0.51180  0.14638  0.46823  1.0000
  C   C2928     1.0  0.52239  0.05131  0.46055  1.0000
  C   C2929     1.0  0.63998  0.07557  0.49389  1.0000
  S   S665      1.0  0.57764  0.14426  0.40144  1.0000
  H   H5228     1.0  0.54224  0.07030  0.42618  1.0000
  N   N169      1.0  0.60249  0.01373  0.57610  1.0000
  H   H5229     1.0  0.85600  0.25769  0.39184  1.0000
  H   H5230     1.0  0.64919  0.05943  0.57599  1.0000
  C   C2930     1.0  0.55410  0.07575  0.50728  1.0000
  H   H5231     1.0  0.56014  0.03456  0.45994  1.0000
  C   C2931     1.0  0.55611  0.02282  0.45892  1.0000
  C   C2932     1.0  0.78012  0.04270  0.57178  1.0000
  C   C2933     1.0  0.86581  0.46474  0.49249  1.0000
  H   H5232     1.0  0.58933  0.05535  0.45380  1.0000
  H   H5233     1.0  0.97748  0.42736  0.48588  1.0000
  H   H5234     1.0  0.69813  0.19142  0.55935  1.0000
  C   C2934     1.0  0.88233  0.47717  0.47044  1.0000
  C   C2935     1.0  0.76596  0.01197  0.56934  1.0000
  H   H5235     1.0  0.98096  0.48517  0.44477  1.0000
  C   C2936     1.0  0.61783  0.06759  0.48476  1.0000
  H   H5236     1.0  0.58815  0.02111  0.44112  1.0000
  H   H5237     1.0  0.61227  0.00226  0.41566  1.0000
  C   C2937     1.0  0.60926  0.11936  0.39901  1.0000
  H   H5238     1.0  0.93335  0.45709  0.54920  1.0000
  C   C2938     1.0  0.58707  0.06737  0.49677  1.0000
  C   C2939     1.0  0.51483  0.05104  0.52136  1.0000
  H   H5239     1.0  0.84579  0.06417  0.57984  1.0000
  H   H5240     1.0  0.94264  0.37833  0.44740  1.0000
  C   C2940     1.0  0.93555  0.38118  0.56008  1.0000
  C   C2941     1.0  0.53606  0.03929  0.56315  1.0000
  H   H5241     1.0  0.54704  0.03071  0.55761  1.0000
  C   C2942     1.0  0.89482  0.39854  0.39174  1.0000
  H   H5242     1.0  0.62121  0.17458  0.39768  1.0000
  C   C2943     1.0  0.53104  0.10326  0.53663  1.0000
  H   H5243     1.0  0.54812  0.11658  0.52064  1.0000
  S   S666      1.0  0.93717  0.35788  0.58282  1.0000
  H   H5244     1.0  0.66686  0.11044  0.57636  1.0000
  H   H5245     1.0  0.59466  0.00135  0.52585  1.0000
  H   H5246     1.0  0.72611  0.02580  0.57820  1.0000
  H   H5247     1.0  0.50787  0.14669  0.47841  1.0000
  C   C2944     1.0  0.83472  0.09258  0.55788  1.0000
  H   H5248     1.0  0.78853  0.99719  0.57789  1.0000
  H   H5249     1.0  0.84612  0.13599  0.57856  1.0000
  H   H5250     1.0  0.57881  0.00261  0.58088  1.0000
  H   H5251     1.0  0.97350  0.45382  0.55031  1.0000
  C   C2945     1.0  0.81970  0.10675  0.55208  1.0000
  H   H5252     1.0  0.58342  0.05998  0.47534  1.0000
  C   C2946     1.0  0.86747  0.07363  0.56613  1.0000
  H   H5253     1.0  0.83140  0.41835  0.40166  1.0000
  H   H5254     1.0  0.61135  0.05569  0.44379  1.0000
  C   C2947     1.0  0.82180  0.10655  0.53818  1.0000
  C   C2948     1.0  0.60142  0.06104  0.45168  1.0000
  H   H5255     1.0  0.83411  0.07943  0.55665  1.0000
  H   H5256     1.0  0.84758  0.09543  0.55170  1.0000
  C   C2949     1.0  0.92798  0.39652  0.55206  1.0000
  H   H5257     1.0  0.97471  0.38817  0.54718  1.0000
  C   C2950     1.0  0.86295  0.22570  0.40797  1.0000
  H   H5258     1.0  0.75544  0.00260  0.55696  1.0000
  H   H5259     1.0  0.82208  0.11897  0.57196  1.0000
  H   H5260     1.0  0.84826  0.21923  0.42738  1.0000
  H   H5261     1.0  0.85348  0.11776  0.55630  1.0000
  C   C2951     1.0  0.91072  0.38744  0.57745  1.0000
  H   H5262     1.0  0.80618  0.10429  0.55702  1.0000
  H   H5263     1.0  0.82018  0.12029  0.55247  1.0000
  C   C2952     1.0  0.94895  0.46017  0.45842  1.0000
  H   H5264     1.0  0.52957  0.15846  0.45156  1.0000
  H   H5265     1.0  0.86551  0.06713  0.55917  1.0000
  C   C2953     1.0  0.58959  0.03073  0.57861  1.0000
  H   H5266     1.0  0.75827  0.02581  0.56715  1.0000
  C   C2954     1.0  0.55365  0.01267  0.48849  1.0000
  H   H5267     1.0  0.91882  0.47336  0.47275  1.0000
  Fe  Fe332     1.0  0.70450  0.12086  0.57332  1.0000
  C   C2955     1.0  0.97544  0.40181  0.54716  1.0000
  H   H5268     1.0  0.87842  0.04842  0.57774  1.0000
  H   H5269     1.0  0.81084  0.11673  0.53431  1.0000
  H   H5270     1.0  0.83487  0.10966  0.53251  1.0000
  H   H5271     1.0  0.82090  0.09340  0.53723  1.0000
  H   H5272     1.0  0.89904  0.47235  0.44640  1.0000
  N   N170      1.0  0.83425  0.09148  0.57162  1.0000
  H   H5273     1.0  0.56542  0.17433  0.41636  1.0000
  H   H5274     1.0  0.52784  0.04143  0.54170  1.0000
  H   H5275     1.0  0.86966  0.48734  0.46983  1.0000
  C   C2956     1.0  0.80210  0.01959  0.58355  1.0000
  H   H5276     1.0  0.98586  0.34368  0.41474  1.0000
  H   H5277     1.0  0.70192  0.01039  0.55810  1.0000
  H   H5278     1.0  0.95019  0.41850  0.58013  1.0000
  H   H5279     1.0  0.62934  0.14228  0.40443  1.0000
  H   H5280     1.0  0.56165  0.06738  0.56358  1.0000
  C   C2957     1.0  0.99981  0.43045  0.42156  1.0000
  C   C2958     1.0  0.55073  0.01844  0.50090  1.0000
  C   C2959     1.0  0.97584  0.39149  0.57063  1.0000
  H   H5281     1.0  0.53751  0.01649  0.50704  1.0000
  C   C2960     1.0  0.81867  0.01807  0.57239  1.0000
  H   H5282     1.0  0.83701  0.14481  0.56441  1.0000
  C   C2961     1.0  0.84968  0.07730  0.57603  1.0000
  C   C2962     1.0  0.60304  0.00877  0.49389  1.0000
  H   H5283     1.0  0.61359  0.17469  0.56399  1.0000
  H   H5284     1.0  0.97959  0.37246  0.46614  1.0000
  C   C2963     1.0  0.79868  0.14828  0.57930  1.0000
  H   H5285     1.0  0.54177  0.06981  0.38801  1.0000
  H   H5286     1.0  0.63651  0.00569  0.54207  1.0000
  H   H5287     1.0  0.96468  0.48873  0.46311  1.0000
  H   H5288     1.0  0.50683  0.00194  0.46336  1.0000
  H   H5289     1.0  0.52253  0.03719  0.52185  1.0000
  H   H5290     1.0  0.97152  0.37930  0.57069  1.0000
  H   H5291     1.0  0.65472  0.15867  0.56760  1.0000
  H   H5292     1.0  0.88503  0.48709  0.42717  1.0000
  C   C2964     1.0  0.91997  0.44466  0.56716  1.0000
  C   C2965     1.0  0.84361  0.42397  0.39774  1.0000
  C   C2966     1.0  0.91171  0.40731  0.55670  1.0000
  H   H5293     1.0  0.60109  0.01008  0.39554  1.0000
  H   H5294     1.0  0.60126  0.00210  0.44989  1.0000
  C   C2967     1.0  0.60784  0.07180  0.38716  1.0000
  H   H5295     1.0  0.52365  0.05894  0.52245  1.0000
  H   H5296     1.0  0.97795  0.47604  0.57238  1.0000
  H   H5297     1.0  0.95273  0.40661  0.56225  1.0000
  H   H5298     1.0  0.64549  0.04204  0.57030  1.0000
  H   H5299     1.0  0.63065  0.15776  0.55709  1.0000
  Fe  Fe333     1.0  0.53092  0.11143  0.43039  1.0000
  C   C2968     1.0  0.53925  0.02414  0.48101  1.0000
  C   C2969     1.0  0.97728  0.44551  0.53290  1.0000
  C   C2970     1.0  0.78414  0.01098  0.57259  1.0000
  H   H5300     1.0  0.56999  0.08423  0.39459  1.0000
  H   H5301     1.0  0.77471  0.01237  0.54914  1.0000
  H   H5302     1.0  0.60904  0.00388  0.50240  1.0000
  H   H5303     1.0  0.86082  0.14102  0.56335  1.0000
  H   H5304     1.0  0.63980  0.17865  0.57077  1.0000
  C   C2971     1.0  0.58984  0.01367  0.45078  1.0000
  H   H5305     1.0  0.52588  0.02379  0.48757  1.0000
  N   N171      1.0  0.61798  0.14942  0.42270  1.0000
  C   C2972     1.0  0.61567  0.13051  0.42763  1.0000
  C   C2973     1.0  0.88241  0.06114  0.57248  1.0000
  C   C2974     1.0  0.53595  0.99389  0.46024  1.0000
  C   C2975     1.0  0.62484  0.15563  0.43170  1.0000
  C   C2976     1.0  0.61269  0.15599  0.44501  1.0000
  C   C2977     1.0  0.63275  0.11628  0.43019  1.0000
  C   C2978     1.0  0.99653  0.43114  0.58284  1.0000
  C   C2979     1.0  0.58275  0.15714  0.42899  1.0000
  C   C2980     1.0  0.62272  0.15840  0.45410  1.0000
  C   C2981     1.0  0.62860  0.09776  0.43500  1.0000
  H   H5306     1.0  0.61032  0.12665  0.42082  1.0000
  H   H5307     1.0  0.60538  0.12909  0.43653  1.0000
  H   H5308     1.0  0.63425  0.08998  0.49115  1.0000
  H   H5309     1.0  0.75765  0.00443  0.57755  1.0000
  Fe  Fe334     1.0  0.92045  0.46720  0.50594  1.0000
  H   H5310     1.0  0.64555  0.14346  0.41226  1.0000
  H   H5311     1.0  0.63840  0.14757  0.43279  1.0000
  H   H5312     1.0  0.62692  0.16937  0.42770  1.0000
  H   H5313     1.0  0.60780  0.14361  0.44929  1.0000
  H   H5314     1.0  0.60100  0.16734  0.44439  1.0000
  H   H5315     1.0  0.64335  0.11588  0.42142  1.0000
  H   H5316     1.0  0.63813  0.11891  0.43750  1.0000
  H   H5317     1.0  0.86657  0.46033  0.50264  1.0000
  H   H5318     1.0  0.58035  0.14490  0.42751  1.0000
  C   C2982     1.0  0.77880  0.13089  0.57783  1.0000
  H   H5319     1.0  0.63428  0.14707  0.45544  1.0000
  H   H5320     1.0  0.62360  0.09425  0.42785  1.0000
  H   H5321     1.0  0.64102  0.08784  0.43673  1.0000
  H   H5322     1.0  0.61840  0.09708  0.44402  1.0000
  H   H5323     1.0  0.00102  0.28939  0.39286  1.0000
  C   C2983     1.0  0.62019  0.16040  0.56563  1.0000
  C   C2984     1.0  0.81690  0.08619  0.57930  1.0000
  H   H5324     1.0  0.88070  0.46570  0.46739  1.0000
  H   H5325     1.0  0.91300  0.45742  0.46717  1.0000
  C   C2985     1.0  0.98292  0.45060  0.54194  1.0000
  H   H5326     1.0  0.57232  0.03529  0.56524  1.0000
  S   S667      1.0  0.73062  0.10285  0.56708  1.0000
  H   H5327     1.0  0.94131  0.38332  0.43095  1.0000
  C   C2986     1.0  0.62750  0.11366  0.39390  1.0000
  H   H5328     1.0  0.97097  0.28670  0.39048  1.0000
  S   S668      1.0  0.90386  0.44664  0.51054  1.0000
  C   C2987     1.0  0.50807  0.02864  0.39694  1.0000
  H   H5329     1.0  0.63345  0.14049  0.57910  1.0000
  H   H5330     1.0  0.60060  0.17551  0.41946  1.0000
  H   H5331     1.0  0.83285  0.47959  0.43281  1.0000
  C   C2988     1.0  0.63323  0.16866  0.40191  1.0000
  C   C2989     1.0  0.76862  0.00384  0.55795  1.0000
  H   H5332     1.0  0.89043  0.41089  0.57305  1.0000
  C   C2990     1.0  0.92703  0.37671  0.57282  1.0000
  C   C2991     1.0  0.96779  0.36943  0.43478  1.0000
  H   H5333     1.0  0.93294  0.37059  0.39525  1.0000
  C   C2992     1.0  0.83574  0.01847  0.57609  1.0000
  C   C2993     1.0  0.85097  0.11705  0.56660  1.0000
  C   C2994     1.0  0.98925  0.48244  0.41979  1.0000
  H   H5334     1.0  0.66981  0.18174  0.56296  1.0000
  H   H5335     1.0  0.98787  0.42468  0.56855  1.0000
  H   H5336     1.0  0.53766  0.05327  0.55973  1.0000
  H   H5337     1.0  0.51078  0.01774  0.39186  1.0000
  H   H5338     1.0  0.53926  0.00309  0.45104  1.0000
  H   H5339     1.0  0.91877  0.47596  0.57159  1.0000
  H   H5340     1.0  0.99245  0.38270  0.52287  1.0000
  C   C2995     1.0  0.50836  0.10837  0.51994  1.0000
  H   H5341     1.0  0.70192  0.16766  0.56197  1.0000
  C   C2996     1.0  0.62155  0.06892  0.39523  1.0000
  H   H5342     1.0  0.51773  0.05382  0.39128  1.0000
  H   H5343     1.0  0.53797  0.07984  0.40139  1.0000
  H   H5344     1.0  0.54564  0.10728  0.38707  1.0000
  C   C2997     1.0  0.96519  0.48190  0.57833  1.0000
  H   H5345     1.0  0.51319  0.02237  0.40575  1.0000
  H   H5346     1.0  0.59654  0.03905  0.58133  1.0000
  C   C2998     1.0  0.94904  0.48016  0.57411  1.0000
  H   H5347     1.0  0.70217  0.17795  0.57443  1.0000
  H   H5348     1.0  0.96914  0.41933  0.55994  1.0000
  H   H5349     1.0  0.87685  0.35720  0.57975  1.0000
  C   C2999     1.0  0.67547  0.18037  0.57129  1.0000
  H   H5350     1.0  0.99830  0.39673  0.58253  1.0000
  H   H5351     1.0  0.86793  0.48860  0.44972  1.0000
  C   C3000     1.0  0.52042  0.04121  0.38822  1.0000
  C   C3001     1.0  0.93759  0.30756  0.38603  1.0000
  C   C3002     1.0  0.99865  0.37823  0.50370  1.0000
  H   H5352     1.0  0.00039  0.39839  0.40264  1.0000
  H   H5353     1.0  0.99484  0.36145  0.58163  1.0000
  H   H5354     1.0  0.65661  0.99482  0.54797  1.0000
  H   H5355     1.0  0.99627  0.39241  0.42845  1.0000
  H   H5356     1.0  0.66976  0.19261  0.57507  1.0000
  H   H5357     1.0  0.55686  0.05555  0.57976  1.0000
  C   C3003     1.0  0.67156  0.16377  0.58170  1.0000
  C   C3004     1.0  0.69825  0.02429  0.58364  1.0000
  C   C3005     1.0  0.54023  0.03233  0.38780  1.0000
  H   H5358     1.0  0.95997  0.39496  0.38725  1.0000
  C   C3006     1.0  0.53771  0.08253  0.39119  1.0000
  H   H5359     1.0  0.52371  0.08881  0.39009  1.0000
  H   H5360     1.0  0.99964  0.47759  0.41190  1.0000
  H   H5361     1.0  0.00092  0.36251  0.39765  1.0000
  H   H5362     1.0  0.98967  0.40316  0.54404  1.0000
  C   C3007     1.0  0.00083  0.45156  0.54010  1.0000
  H   H5363     1.0  0.50322  0.07252  0.50737  1.0000
  H   H5364     1.0  0.86241  0.20138  0.39050  1.0000
  H   H5365     1.0  0.54899  0.99107  0.47528  1.0000
  C   C3008     1.0  0.50338  0.10006  0.53265  1.0000
  H   H5366     1.0  0.64975  0.03351  0.38607  1.0000
  H   H5367     1.0  0.61796  0.05565  0.58333  1.0000
  H   H5368     1.0  0.94269  0.39838  0.58486  1.0000
  H   H5369     1.0  0.97002  0.43191  0.58127  1.0000
  C   C3009     1.0  0.98359  0.42353  0.57893  1.0000
  C   C3010     1.0  0.94991  0.48889  0.55988  1.0000
  H   H5370     1.0  0.78571  0.05698  0.58423  1.0000
  H   H5371     1.0  0.83373  0.10804  0.58412  1.0000
  C   C3011     1.0  0.57614  0.99195  0.56169  1.0000
  H   H5372     1.0  0.50317  0.01890  0.52642  1.0000
  H   H5373     1.0  0.92795  0.49049  0.53686  1.0000
  C   C3012     1.0  0.93958  0.49015  0.54082  1.0000
  H   H5374     1.0  0.82944  0.44659  0.38567  1.0000
  H   H5375     1.0  0.50211  0.05063  0.50648  1.0000
  Fe  Fe335     1.0  0.73395  0.18598  0.64553  1.0000
  S   S669      1.0  0.72119  0.17406  0.66535  1.0000
  S   S670      1.0  0.73040  0.18393  0.62673  1.0000
  Fe  Fe336     1.0  0.75627  0.20436  0.65430  1.0000
  S   S671      1.0  0.74582  0.19364  0.67477  1.0000
  S   S672      1.0  0.77541  0.22315  0.64710  1.0000
  Fe  Fe337     1.0  0.74906  0.16822  0.66885  1.0000
  S   S673      1.0  0.75883  0.14241  0.68149  1.0000
  Fe  Fe338     1.0  0.71890  0.20042  0.66974  1.0000
  S   S674      1.0  0.69490  0.21548  0.68164  1.0000
  S   S675      1.0  0.76210  0.17829  0.64872  1.0000
  S   S676      1.0  0.72904  0.21300  0.64950  1.0000
  S   S677      1.0  0.82274  0.09340  0.62095  1.0000
  S   S678      1.0  0.86219  0.08236  0.62946  1.0000
  Fe  Fe339     1.0  0.85131  0.08089  0.61338  1.0000
  S   S679      1.0  0.67040  0.27238  0.76494  1.0000
  Fe  Fe340     1.0  0.83398  0.09625  0.63640  1.0000
  S   S680      1.0  0.82148  0.08655  0.65664  1.0000
  Fe  Fe341     1.0  0.93257  0.21433  0.63518  1.0000
  S   S681      1.0  0.94979  0.21163  0.64875  1.0000
  S   S682      1.0  0.92942  0.23887  0.61970  1.0000
  Fe  Fe342     1.0  0.92092  0.17946  0.64838  1.0000
  S   S683      1.0  0.93775  0.17374  0.66292  1.0000
  S   S684      1.0  0.89890  0.16437  0.65167  1.0000
  Fe  Fe343     1.0  0.92724  0.20241  0.66373  1.0000
  S   S685      1.0  0.91962  0.20967  0.68273  1.0000
  Fe  Fe344     1.0  0.95914  0.18344  0.64676  1.0000
  S   S686      1.0  0.98918  0.17262  0.64466  1.0000
  S   S687      1.0  0.90910  0.20760  0.65039  1.0000
  S   S688      1.0  0.94336  0.18660  0.63191  1.0000
  Fe  Fe345     1.0  0.81530  0.30122  0.66846  1.0000
  S   S689      1.0  0.82154  0.31203  0.68284  1.0000
  S   S690      1.0  0.81234  0.31672  0.64904  1.0000
  Fe  Fe346     1.0  0.80932  0.26670  0.68659  1.0000
  S   S691      1.0  0.81510  0.27430  0.70267  1.0000
  S   S692      1.0  0.80067  0.24095  0.69029  1.0000
  Fe  Fe347     1.0  0.79851  0.30105  0.69618  1.0000
  S   S693      1.0  0.77614  0.31549  0.70935  1.0000
  Fe  Fe348     1.0  0.83768  0.28439  0.68798  1.0000
  S   S694      1.0  0.86412  0.28002  0.69324  1.0000
  S   S695      1.0  0.79083  0.29256  0.68133  1.0000
  S   S696      1.0  0.83342  0.27446  0.67240  1.0000
  Fe  Fe349     1.0  0.69866  0.27118  0.75350  1.0000
  S   S697      1.0  0.69198  0.27048  0.73547  1.0000
  S   S698      1.0  0.71752  0.28931  0.75017  1.0000
  Fe  Fe350     1.0  0.67831  0.24263  0.76897  1.0000
  S   S699      1.0  0.67035  0.23966  0.75214  1.0000
  C   C3013     1.0  0.89812  0.26863  0.59637  1.0000
  Fe  Fe351     1.0  0.69851  0.24110  0.74204  1.0000
  S   S700      1.0  0.71625  0.22179  0.73031  1.0000
  Fe  Fe352     1.0  0.66445  0.26920  0.74736  1.0000
  S   S701      1.0  0.70724  0.24170  0.75927  1.0000
  H   H5376     1.0  0.84428  0.18995  0.62722  1.0000
  S   S702      1.0  0.79902  0.33804  0.75157  1.0000
  Fe  Fe353     1.0  0.92418  0.35562  0.60351  1.0000
  S   S703      1.0  0.90986  0.37964  0.61150  1.0000
  C   C3014     1.0  0.85267  0.21352  0.70131  1.0000
  Fe  Fe354     1.0  0.92012  0.33076  0.62959  1.0000
  S   S704      1.0  0.90513  0.35284  0.63958  1.0000
  S   S705      1.0  0.92534  0.30397  0.64241  1.0000
  Fe  Fe355     1.0  0.89072  0.36244  0.62357  1.0000
  S   S706      1.0  0.86112  0.37316  0.62540  1.0000
  Fe  Fe356     1.0  0.92581  0.36745  0.62657  1.0000
  S   S707      1.0  0.94171  0.38152  0.63279  1.0000
  S   S708      1.0  0.90399  0.33904  0.61458  1.0000
  S   S709      1.0  0.94183  0.34471  0.61758  1.0000
  H   H5377     1.0  0.70269  0.01230  0.63946  1.0000
  H   H5378     1.0  0.98499  0.27217  0.61483  1.0000
  H   H5379     1.0  0.84895  0.24843  0.64461  1.0000
  H   H5380     1.0  0.67689  0.01118  0.61716  1.0000
  H   H5381     1.0  0.93757  0.04621  0.68670  1.0000
  C   C3015     1.0  0.78912  0.12582  0.59733  1.0000
  H   H5382     1.0  0.85361  0.14888  0.59987  1.0000
  C   C3016     1.0  0.79952  0.13866  0.59162  1.0000
  Fe  Fe357     1.0  0.58530  0.34329  0.78543  1.0000
  H   H5383     1.0  0.96461  0.29168  0.68057  1.0000
  H   H5384     1.0  0.82149  0.35649  0.70397  1.0000
  H   H5385     1.0  0.96307  0.27410  0.62455  1.0000
  H   H5386     1.0  0.82275  0.35568  0.71992  1.0000
  H   H5387     1.0  0.84363  0.20744  0.64187  1.0000
  S   S710      1.0  0.59853  0.34888  0.76485  1.0000
  H   H5388     1.0  0.74336  0.26626  0.66746  1.0000
  H   H5389     1.0  0.82608  0.22694  0.64354  1.0000
  H   H5390     1.0  0.79659  0.25130  0.77847  1.0000
  C   C3017     1.0  0.83160  0.17562  0.61220  1.0000
  C   C3018     1.0  0.85172  0.16700  0.61184  1.0000
  H   H5391     1.0  0.76349  0.31971  0.66945  1.0000
  S   S711      1.0  0.79968  0.01014  0.61979  1.0000
  H   H5392     1.0  0.66464  0.05350  0.59813  1.0000
  H   H5393     1.0  0.83096  0.18527  0.60298  1.0000
  C   C3019     1.0  0.72388  0.41838  0.77851  1.0000
  H   H5394     1.0  0.95880  0.26014  0.64714  1.0000
  C   C3020     1.0  0.61597  0.19204  0.60815  1.0000
  H   H5395     1.0  0.86102  0.34043  0.69902  1.0000
  H   H5396     1.0  0.96469  0.25379  0.67268  1.0000
  Fe  Fe358     1.0  0.86613  0.10945  0.61850  1.0000
  C   C3021     1.0  0.81815  0.36441  0.71134  1.0000
  H   H5397     1.0  0.91268  0.26276  0.59577  1.0000
  H   H5398     1.0  0.61426  0.18111  0.59327  1.0000
  C   C3022     1.0  0.67933  0.35222  0.77880  1.0000
  H   H5399     1.0  0.65443  0.15100  0.61237  1.0000
  H   H5400     1.0  0.66514  0.41712  0.75976  1.0000
  H   H5401     1.0  0.96899  0.37884  0.60308  1.0000
  C   C3023     1.0  0.86307  0.23405  0.65980  1.0000
  H   H5402     1.0  0.77630  0.20910  0.60605  1.0000
  S   S712      1.0  0.85922  0.05549  0.60612  1.0000
  C   C3024     1.0  0.00154  0.27830  0.67565  1.0000
  C   C3025     1.0  0.96114  0.36554  0.63540  1.0000
  C   C3026     1.0  0.97784  0.37026  0.63215  1.0000
  H   H5403     1.0  0.89053  0.25858  0.60270  1.0000
  C   C3027     1.0  0.99246  0.33915  0.63709  1.0000
  C   C3028     1.0  0.97572  0.33454  0.64060  1.0000
  C   C3029     1.0  0.96009  0.34771  0.63979  1.0000
  H   H5404     1.0  0.97870  0.38403  0.62864  1.0000
  H   H5405     1.0  0.75817  0.23683  0.72649  1.0000
  H   H5406     1.0  0.97485  0.32075  0.64367  1.0000
  H   H5407     1.0  0.94720  0.34401  0.64244  1.0000
  H   H5408     1.0  0.91680  0.34344  0.66514  1.0000
  H   H5409     1.0  0.81478  0.15924  0.63319  1.0000
  H   H5410     1.0  0.55248  0.25960  0.77969  1.0000
  C   C3030     1.0  0.67349  0.32055  0.75320  1.0000
  H   H5411     1.0  0.98622  0.22206  0.60326  1.0000
  C   C3031     1.0  0.83156  0.19728  0.62417  1.0000
  C   C3032     1.0  0.73077  0.30926  0.75990  1.0000
  H   H5412     1.0  0.84142  0.22589  0.62845  1.0000
  H   H5413     1.0  0.73868  0.31248  0.75044  1.0000
  H   H5414     1.0  0.85330  0.15585  0.62002  1.0000
  H   H5415     1.0  0.98254  0.22721  0.63534  1.0000
  H   H5416     1.0  0.56680  0.29691  0.75434  1.0000
  S   S713      1.0  0.85804  0.10673  0.60153  1.0000
  H   H5417     1.0  0.73974  0.29160  0.63977  1.0000
  H   H5418     1.0  0.97550  0.22752  0.65512  1.0000
  C   C3033     1.0  0.78285  0.32108  0.72120  1.0000
  C   C3034     1.0  0.80101  0.31899  0.72114  1.0000
  C   C3035     1.0  0.80588  0.32406  0.73058  1.0000
  C   C3036     1.0  0.79264  0.33101  0.74018  1.0000
  C   C3037     1.0  0.77458  0.33228  0.74052  1.0000
  C   C3038     1.0  0.76969  0.32776  0.73090  1.0000
  H   H5419     1.0  0.81127  0.31371  0.71372  1.0000
  H   H5420     1.0  0.81991  0.32269  0.73041  1.0000
  H   H5421     1.0  0.76431  0.33695  0.74809  1.0000
  H   H5422     1.0  0.75567  0.32935  0.73102  1.0000
  C   C3039     1.0  0.82595  0.33238  0.64293  1.0000
  C   C3040     1.0  0.82077  0.34742  0.63385  1.0000
  C   C3041     1.0  0.83156  0.35996  0.62866  1.0000
  C   C3042     1.0  0.84792  0.35721  0.63218  1.0000
  C   C3043     1.0  0.85339  0.34194  0.64104  1.0000
  C   C3044     1.0  0.84215  0.32974  0.64668  1.0000
  H   H5423     1.0  0.80824  0.34952  0.63096  1.0000
  H   H5424     1.0  0.82734  0.37174  0.62180  1.0000
  H   H5425     1.0  0.86615  0.33967  0.64365  1.0000
  H   H5426     1.0  0.84617  0.31812  0.65371  1.0000
  H   H5427     1.0  0.99056  0.30688  0.67453  1.0000
  C   C3045     1.0  0.98936  0.18962  0.66291  1.0000
  H   H5428     1.0  0.67038  0.44837  0.77848  1.0000
  H   H5429     1.0  0.65034  0.17790  0.60013  1.0000
  H   H5430     1.0  0.68110  0.39811  0.77552  1.0000
  H   H5431     1.0  0.92115  0.42256  0.61159  1.0000
  H   H5432     1.0  0.97522  0.18947  0.66618  1.0000
  C   C3046     1.0  0.59809  0.00227  0.60047  1.0000
  H   H5433     1.0  0.75059  0.23904  0.62884  1.0000
  C   C3047     1.0  0.69258  0.05510  0.59264  1.0000
  C   C3048     1.0  0.90458  0.22972  0.68491  1.0000
  C   C3049     1.0  0.89549  0.24071  0.67556  1.0000
  C   C3050     1.0  0.88267  0.25608  0.67809  1.0000
  C   C3051     1.0  0.87952  0.26072  0.68979  1.0000
  C   C3052     1.0  0.88919  0.25010  0.69888  1.0000
  C   C3053     1.0  0.90145  0.23452  0.69653  1.0000
  H   H5434     1.0  0.89836  0.23735  0.66643  1.0000
  H   H5435     1.0  0.87561  0.26456  0.67090  1.0000
  H   H5436     1.0  0.88694  0.25373  0.70788  1.0000
  H   H5437     1.0  0.90856  0.22613  0.70374  1.0000
  C   C3054     1.0  0.92727  0.25740  0.62585  1.0000
  C   C3055     1.0  0.92908  0.27383  0.61775  1.0000
  C   C3056     1.0  0.92787  0.28847  0.62277  1.0000
  C   C3057     1.0  0.92543  0.28647  0.63587  1.0000
  C   C3058     1.0  0.92355  0.27008  0.64391  1.0000
  C   C3059     1.0  0.92422  0.25566  0.63893  1.0000
  H   H5438     1.0  0.93161  0.27516  0.60761  1.0000
  H   H5439     1.0  0.92947  0.30109  0.61651  1.0000
  H   H5440     1.0  0.92142  0.26848  0.65402  1.0000
  H   H5441     1.0  0.92239  0.24318  0.64526  1.0000
  C   C3060     1.0  0.84342  0.04176  0.61101  1.0000
  C   C3061     1.0  0.84692  0.02655  0.60606  1.0000
  C   C3062     1.0  0.83392  0.01618  0.60917  1.0000
  C   C3063     1.0  0.81720  0.02129  0.61694  1.0000
  C   C3064     1.0  0.81386  0.03625  0.62207  1.0000
  C   C3065     1.0  0.82703  0.04625  0.61930  1.0000
  H   H5442     1.0  0.83672  0.00440  0.60546  1.0000
  H   H5443     1.0  0.80103  0.04013  0.62820  1.0000
  H   H5444     1.0  0.82435  0.05756  0.62346  1.0000
  H   H5445     1.0  0.85968  0.02283  0.59979  1.0000
  C   C3066     1.0  0.89629  0.15364  0.64069  1.0000
  C   C3067     1.0  0.88108  0.14632  0.64350  1.0000
  C   C3068     1.0  0.87905  0.13650  0.63553  1.0000
  H   H5446     1.0  0.63758  0.14254  0.59871  1.0000
  H   H5447     1.0  0.87097  0.14801  0.65202  1.0000
  H   H5448     1.0  0.86746  0.13064  0.63791  1.0000
  C   C3069     1.0  0.78325  0.22775  0.65888  1.0000
  C   C3070     1.0  0.78330  0.21599  0.67061  1.0000
  C   C3071     1.0  0.78873  0.22020  0.68014  1.0000
  C   C3072     1.0  0.79430  0.23612  0.67797  1.0000
  C   C3073     1.0  0.79465  0.24777  0.66614  1.0000
  C   C3074     1.0  0.78915  0.24355  0.65660  1.0000
  H   H5449     1.0  0.77909  0.20364  0.67240  1.0000
  H   H5450     1.0  0.78840  0.21118  0.68928  1.0000
  H   H5451     1.0  0.79903  0.26005  0.66439  1.0000
  H   H5452     1.0  0.78925  0.25265  0.64750  1.0000
  C   C3075     1.0  0.69967  0.21679  0.69574  1.0000
  C   C3076     1.0  0.69101  0.23143  0.70131  1.0000
  C   C3077     1.0  0.69592  0.23317  0.71199  1.0000
  C   C3078     1.0  0.70937  0.22015  0.71714  1.0000
  C   C3079     1.0  0.71771  0.20542  0.71171  1.0000
  C   C3080     1.0  0.71280  0.20369  0.70110  1.0000
  H   H5453     1.0  0.68075  0.24156  0.69723  1.0000
  H   H5454     1.0  0.68937  0.24455  0.71620  1.0000
  H   H5455     1.0  0.72805  0.19528  0.71570  1.0000
  H   H5456     1.0  0.71909  0.19207  0.69715  1.0000
  C   C3081     1.0  0.77651  0.12731  0.67435  1.0000
  C   C3082     1.0  0.78530  0.13186  0.66170  1.0000
  C   C3083     1.0  0.79922  0.11940  0.65618  1.0000
  C   C3084     1.0  0.80435  0.10239  0.66333  1.0000
  C   C3085     1.0  0.79558  0.09783  0.67597  1.0000
  C   C3086     1.0  0.78171  0.11028  0.68148  1.0000
  H   H5457     1.0  0.78142  0.14491  0.65615  1.0000
  H   H5458     1.0  0.80577  0.12289  0.64636  1.0000
  H   H5459     1.0  0.79953  0.08465  0.68151  1.0000
  H   H5460     1.0  0.77494  0.10671  0.69127  1.0000
  C   C3087     1.0  0.72285  0.16605  0.62514  1.0000
  C   C3088     1.0  0.72772  0.16136  0.61332  1.0000
  C   C3089     1.0  0.72184  0.14734  0.61158  1.0000
  C   C3090     1.0  0.71060  0.13819  0.62156  1.0000
  C   C3091     1.0  0.70575  0.14281  0.63343  1.0000
  C   C3092     1.0  0.71198  0.15662  0.63526  1.0000
  H   H5461     1.0  0.73626  0.16849  0.60549  1.0000
  H   H5462     1.0  0.72598  0.14373  0.60248  1.0000
  Fe  Fe359     1.0  0.83029  0.11930  0.61067  1.0000
  H   H5463     1.0  0.70811  0.16021  0.64438  1.0000
  H   H5464     1.0  0.80630  0.20688  0.61139  1.0000
  H   H5465     1.0  0.72153  0.26852  0.67754  1.0000
  H   H5466     1.0  0.92490  0.29582  0.68669  1.0000
  H   H5467     1.0  0.86180  0.22986  0.68370  1.0000
  H   H5468     1.0  0.61990  0.01416  0.58798  1.0000
  C   C3093     1.0  0.74224  0.23958  0.68887  1.0000
  C   C3094     1.0  0.84692  0.22770  0.70922  1.0000
  H   H5469     1.0  0.68274  0.28617  0.70601  1.0000
  H   H5470     1.0  0.82543  0.37544  0.70771  1.0000
  C   C3095     1.0  0.89311  0.28538  0.60167  1.0000
  H   H5471     1.0  0.81230  0.09500  0.59700  1.0000
  N   N172      1.0  0.86645  0.31096  0.60759  1.0000
  C   C3096     1.0  0.87284  0.29398  0.60275  1.0000
  C   C3097     1.0  0.84632  0.31739  0.60889  1.0000
  C   C3098     1.0  0.87187  0.30888  0.61989  1.0000
  C   C3099     1.0  0.86497  0.29451  0.63112  1.0000
  C   C3100     1.0  0.83457  0.30326  0.61341  1.0000
  C   C3101     1.0  0.81458  0.31201  0.61547  1.0000
  C   C3102     1.0  0.87547  0.28997  0.64158  1.0000
  H   H5472     1.0  0.97955  0.33995  0.59837  1.0000
  H   H5473     1.0  0.86569  0.28356  0.60888  1.0000
  H   H5474     1.0  0.84108  0.32690  0.61535  1.0000
  H   H5475     1.0  0.00080  0.36886  0.59345  1.0000
  H   H5476     1.0  0.88676  0.30643  0.61843  1.0000
  H   H5477     1.0  0.86700  0.32148  0.62325  1.0000
  H   H5478     1.0  0.86621  0.28199  0.62830  1.0000
  H   H5479     1.0  0.85066  0.29952  0.63527  1.0000
  H   H5480     1.0  0.89641  0.28136  0.61117  1.0000
  H   H5481     1.0  0.63306  0.15974  0.77760  1.0000
  H   H5482     1.0  0.98307  0.40292  0.59606  1.0000
  H   H5483     1.0  0.83729  0.29538  0.60608  1.0000
  H   H5484     1.0  0.83706  0.29403  0.62236  1.0000
  C   C3103     1.0  0.94456  0.40838  0.60035  1.0000
  H   H5485     1.0  0.81095  0.32024  0.62266  1.0000
  C   C3104     1.0  0.70916  0.29342  0.77491  1.0000
  H   H5486     1.0  0.87623  0.30212  0.64418  1.0000
  H   H5487     1.0  0.88928  0.28260  0.63835  1.0000
  C   C3105     1.0  0.98918  0.34602  0.60049  1.0000
  H   H5488     1.0  0.71924  0.25280  0.63739  1.0000
  N   N173      1.0  0.98347  0.25469  0.63340  1.0000
  C   C3106     1.0  0.99947  0.18192  0.65271  1.0000
  H   H5489     1.0  0.94980  0.24328  0.66882  1.0000
  H   H5490     1.0  0.71617  0.01512  0.61539  1.0000
  C   C3107     1.0  0.68375  0.03168  0.62892  1.0000
  H   H5491     1.0  0.74095  0.25604  0.61691  1.0000
  C   C3108     1.0  0.92689  0.42213  0.60146  1.0000
  C   C3109     1.0  0.68920  0.01329  0.63770  1.0000
  H   H5492     1.0  0.92102  0.15713  0.62739  1.0000
  C   C3110     1.0  0.68949  0.04626  0.63229  1.0000
  H   H5493     1.0  0.78945  0.11856  0.60692  1.0000
  H   H5494     1.0  0.78974  0.17376  0.62364  1.0000
  C   C3111     1.0  0.82650  0.14948  0.65467  1.0000
  H   H5495     1.0  0.87987  0.34013  0.70523  1.0000
  Fe  Fe360     1.0  0.71167  0.11508  0.59976  1.0000
  H   H5496     1.0  0.84903  0.22155  0.71898  1.0000
  H   H5497     1.0  0.72906  0.32232  0.73093  1.0000
  H   H5498     1.0  0.78356  0.47627  0.78483  1.0000
  H   H5499     1.0  0.66692  0.43698  0.76334  1.0000
  C   C3112     1.0  0.71914  0.29775  0.76258  1.0000
  H   H5500     1.0  0.66895  0.03539  0.62992  1.0000
  H   H5501     1.0  0.68963  0.03188  0.61879  1.0000
  H   H5502     1.0  0.72462  0.27449  0.63235  1.0000
  C   C3113     1.0  0.90098  0.30687  0.67807  1.0000
  H   H5503     1.0  0.95416  0.41294  0.60368  1.0000
  C   C3114     1.0  0.83087  0.16505  0.64389  1.0000
  C   C3115     1.0  0.71660  0.28508  0.65482  1.0000
  C   C3116     1.0  0.77843  0.12220  0.59052  1.0000
  C   C3117     1.0  0.89411  0.17061  0.68638  1.0000
  C   C3118     1.0  0.85125  0.22192  0.68739  1.0000
  H   H5504     1.0  0.68349  0.04709  0.64232  1.0000
  H   H5505     1.0  0.70437  0.04366  0.63069  1.0000
  H   H5506     1.0  0.68490  0.05924  0.62612  1.0000
  H   H5507     1.0  0.85334  0.33501  0.72227  1.0000
  H   H5508     1.0  0.87417  0.30819  0.69739  1.0000
  C   C3119     1.0  0.65993  0.14042  0.60687  1.0000
  H   H5509     1.0  0.96287  0.24263  0.63214  1.0000
  C   C3120     1.0  0.65152  0.14459  0.59514  1.0000
  H   H5510     1.0  0.82757  0.13776  0.65087  1.0000
  N   N174      1.0  0.65962  0.33763  0.77130  1.0000
  H   H5511     1.0  0.91338  0.05087  0.69101  1.0000
  H   H5512     1.0  0.66160  0.11188  0.61085  1.0000
  H   H5513     1.0  0.70982  0.24271  0.66249  1.0000
  C   C3121     1.0  0.79799  0.07431  0.60062  1.0000
  H   H5514     1.0  0.68183  0.24138  0.65751  1.0000
  C   C3122     1.0  0.81433  0.08253  0.59391  1.0000
  H   H5515     1.0  0.85919  0.16998  0.59126  1.0000
  H   H5516     1.0  0.67641  0.30775  0.75993  1.0000
  S   S714      1.0  0.77797  0.37121  0.77459  1.0000
  H   H5517     1.0  0.67473  0.13891  0.60392  1.0000
  C   C3123     1.0  0.76967  0.02213  0.59185  1.0000
  H   H5518     1.0  0.73635  0.32203  0.64207  1.0000
  H   H5519     1.0  0.61838  0.99717  0.61156  1.0000
  H   H5520     1.0  0.88192  0.20470  0.67772  1.0000
  N   N175      1.0  0.82127  0.18468  0.62302  1.0000
  H   H5521     1.0  0.92548  0.06793  0.68922  1.0000
  H   H5522     1.0  0.70785  0.35101  0.77047  1.0000
  H   H5523     1.0  0.70581  0.31349  0.69081  1.0000
  H   H5524     1.0  0.64151  0.12411  0.61957  1.0000
  H   H5525     1.0  0.90142  0.17902  0.68861  1.0000
  H   H5526     1.0  0.90485  0.08626  0.67527  1.0000
  H   H5527     1.0  0.92135  0.05538  0.62769  1.0000
  H   H5528     1.0  0.92019  0.09353  0.62895  1.0000
  C   C3124     1.0  0.83393  0.21804  0.63699  1.0000
  H   H5529     1.0  0.58780  0.99546  0.60015  1.0000
  C   C3125     1.0  0.81703  0.17123  0.63521  1.0000
  H   H5530     1.0  0.84466  0.16094  0.63862  1.0000
  H   H5531     1.0  0.82525  0.16488  0.61206  1.0000
  C   C3126     1.0  0.58112  0.29450  0.75482  1.0000
  C   C3127     1.0  0.65537  0.00431  0.63309  1.0000
  H   H5532     1.0  0.85246  0.31607  0.71690  1.0000
  H   H5533     1.0  0.81271  0.15304  0.66040  1.0000
  C   C3128     1.0  0.87428  0.17956  0.68727  1.0000
  H   H5534     1.0  0.74636  0.22527  0.69312  1.0000
  H   H5535     1.0  0.75700  0.28840  0.67830  1.0000
  H   H5536     1.0  0.89614  0.06890  0.67373  1.0000
  H   H5537     1.0  0.71337  0.27914  0.71077  1.0000
  H   H5538     1.0  0.77323  0.25159  0.71815  1.0000
  C   C3129     1.0  0.74549  0.25354  0.62589  1.0000
  C   C3130     1.0  0.97745  0.27217  0.62476  1.0000
  C   C3131     1.0  0.92458  0.06246  0.67142  1.0000
  C   C3132     1.0  0.75869  0.27158  0.78478  1.0000
  C   C3133     1.0  0.97197  0.37718  0.59313  1.0000
  H   H5539     1.0  0.97101  0.28628  0.66507  1.0000
  H   H5540     1.0  0.88986  0.30123  0.67756  1.0000
  H   H5541     1.0  0.80405  0.17653  0.64130  1.0000
  H   H5542     1.0  0.92955  0.12896  0.65192  1.0000
  H   H5543     1.0  0.96145  0.37063  0.59268  1.0000
  H   H5544     1.0  0.84316  0.32496  0.59956  1.0000
  H   H5545     1.0  0.67077  0.25139  0.67102  1.0000
  C   C3134     1.0  0.58572  0.27851  0.76538  1.0000
  H   H5546     1.0  0.94064  0.06504  0.62509  1.0000
  C   C3135     1.0  0.97718  0.30508  0.61732  1.0000
  H   H5547     1.0  0.96903  0.29212  0.63653  1.0000
  C   C3136     1.0  0.70576  0.25683  0.66332  1.0000
  H   H5548     1.0  0.65150  0.99168  0.63875  1.0000
  C   C3137     1.0  0.74620  0.30052  0.67852  1.0000
  C   C3138     1.0  0.87182  0.19748  0.67750  1.0000
  C   C3139     1.0  0.55724  0.23125  0.78488  1.0000
  H   H5549     1.0  0.69036  0.06685  0.59628  1.0000
  C   C3140     1.0  0.92629  0.06792  0.62456  1.0000
  C   C3141     1.0  0.91389  0.29132  0.68495  1.0000
  C   C3142     1.0  0.65617  0.12307  0.61581  1.0000
  H   H5550     1.0  0.58292  0.26688  0.76330  1.0000
  Fe  Fe361     1.0  0.74825  0.37846  0.77556  1.0000
  H   H5551     1.0  0.58967  0.29200  0.74558  1.0000
  H   H5552     1.0  0.89004  0.32188  0.59761  1.0000
  C   C3143     1.0  0.80376  0.19561  0.61954  1.0000
  H   H5553     1.0  0.50465  0.22993  0.76323  1.0000
  C   C3144     1.0  0.88190  0.33673  0.67615  1.0000
  C   C3145     1.0  0.86478  0.33187  0.67499  1.0000
  C   C3146     1.0  0.93684  0.34227  0.67507  1.0000
  C   C3147     1.0  0.85159  0.34851  0.67002  1.0000
  H   H5554     1.0  0.88962  0.34010  0.66628  1.0000
  H   H5555     1.0  0.87797  0.34936  0.67952  1.0000
  H   H5556     1.0  0.91550  0.32170  0.69271  1.0000
  H   H5557     1.0  0.90774  0.31090  0.66799  1.0000
  H   H5558     1.0  0.86848  0.32285  0.66829  1.0000
  H   H5559     1.0  0.93022  0.32167  0.66959  1.0000
  H   H5560     1.0  0.94710  0.34470  0.66619  1.0000
  H   H5561     1.0  0.94376  0.33320  0.68253  1.0000
  H   H5562     1.0  0.85817  0.35608  0.66089  1.0000
  H   H5563     1.0  0.83999  0.34471  0.66846  1.0000
  H   H5564     1.0  0.84642  0.35719  0.67699  1.0000
  H   H5565     1.0  0.93058  0.26555  0.68281  1.0000
  C   C3148     1.0  0.99751  0.19757  0.66894  1.0000
  C   C3149     1.0  0.83840  0.19924  0.68407  1.0000
  C   C3150     1.0  0.85070  0.22063  0.66608  1.0000
  C   C3151     1.0  0.83620  0.18864  0.67507  1.0000
  C   C3152     1.0  0.82447  0.17519  0.68215  1.0000
  C   C3153     1.0  0.86276  0.24138  0.64579  1.0000
  H   H5566     1.0  0.82526  0.20846  0.68639  1.0000
  H   H5567     1.0  0.83992  0.18995  0.69321  1.0000
  H   H5568     1.0  0.83653  0.22830  0.66666  1.0000
  H   H5569     1.0  0.85310  0.21198  0.65929  1.0000
  H   H5570     1.0  0.82950  0.19786  0.66753  1.0000
  H   H5571     1.0  0.84941  0.18149  0.67047  1.0000
  H   H5572     1.0  0.81113  0.18191  0.68693  1.0000
  H   H5573     1.0  0.82234  0.16856  0.67536  1.0000
  H   H5574     1.0  0.83107  0.16492  0.68931  1.0000
  H   H5575     1.0  0.87184  0.25087  0.64170  1.0000
  H   H5576     1.0  0.86762  0.23051  0.64051  1.0000
  S   S715      1.0  0.72858  0.05584  0.58613  1.0000
  H   H5577     1.0  0.71620  0.18039  0.77162  1.0000
  C   C3154     1.0  0.77333  0.27945  0.75692  1.0000
  C   C3155     1.0  0.65757  0.33381  0.75938  1.0000
  C   C3156     1.0  0.51220  0.31822  0.78221  1.0000
  C   C3157     1.0  0.99355  0.35702  0.63295  1.0000
  H   H5578     1.0  0.82357  0.25343  0.76230  1.0000
  H   H5579     1.0  0.76624  0.20198  0.62258  1.0000
  C   C3158     1.0  0.78163  0.27504  0.74370  1.0000
  C   C3159     1.0  0.76730  0.27976  0.73587  1.0000
  C   C3160     1.0  0.77482  0.28066  0.77804  1.0000
  H   H5580     1.0  0.75637  0.02415  0.58956  1.0000
  H   H5581     1.0  0.61010  0.37434  0.77563  1.0000
  C   C3161     1.0  0.67617  0.41208  0.77667  1.0000
  H   H5582     1.0  0.80816  0.28375  0.75126  1.0000
  H   H5583     1.0  0.76232  0.27207  0.76106  1.0000
  H   H5584     1.0  0.76678  0.29380  0.75544  1.0000
  H   H5585     1.0  0.96389  0.30739  0.61491  1.0000
  H   H5586     1.0  0.99771  0.24163  0.61157  1.0000
  H   H5587     1.0  0.99936  0.26773  0.67187  1.0000
  S   S716      1.0  0.73798  0.09597  0.59552  1.0000
  H   H5588     1.0  0.61925  0.39378  0.76832  1.0000
  H   H5589     1.0  0.81299  0.25508  0.74979  1.0000
  C   C3162     1.0  0.71043  0.30120  0.78440  1.0000
  H   H5590     1.0  0.61258  0.31213  0.77609  1.0000
  H   H5591     1.0  0.63841  0.19040  0.77012  1.0000
  C   C3163     1.0  0.73250  0.31649  0.76941  1.0000
  H   H5592     1.0  0.79222  0.28254  0.73835  1.0000
  H   H5593     1.0  0.78720  0.26062  0.74457  1.0000
  H   H5594     1.0  0.77369  0.27765  0.72614  1.0000
  H   H5595     1.0  0.75728  0.27127  0.74023  1.0000
  H   H5596     1.0  0.76023  0.29385  0.73520  1.0000
  C   C3164     1.0  0.67805  0.04750  0.59373  1.0000
  S   S717      1.0  0.69639  0.10223  0.59173  1.0000
  H   H5597     1.0  0.65786  0.18368  0.77707  1.0000
  C   C3165     1.0  0.98252  0.22205  0.61353  1.0000
  H   H5598     1.0  0.70489  0.00700  0.60678  1.0000
  H   H5599     1.0  0.76080  0.04861  0.59622  1.0000
  C   C3166     1.0  0.79953  0.28686  0.76030  1.0000
  H   H5600     1.0  0.59121  0.01501  0.60342  1.0000
  C   C3167     1.0  0.77350  0.46964  0.78394  1.0000
  H   H5601     1.0  0.93038  0.35519  0.67786  1.0000
  H   H5602     1.0  0.83245  0.23396  0.70976  1.0000
  C   C3168     1.0  0.87540  0.32487  0.59780  1.0000
  H   H5603     1.0  0.87705  0.22780  0.66059  1.0000
  H   H5604     1.0  0.75216  0.03869  0.61948  1.0000
  S   S718      1.0  0.83879  0.12352  0.62697  1.0000
  H   H5605     1.0  0.77245  0.00829  0.59743  1.0000
  H   H5606     1.0  0.72438  0.23494  0.67944  1.0000
  C   C3169     1.0  0.70216  0.30330  0.69939  1.0000
  H   H5607     1.0  0.93156  0.28230  0.66830  1.0000
  H   H5608     1.0  0.70846  0.28887  0.64750  1.0000
  H   H5609     1.0  0.66622  0.32936  0.73469  1.0000
  H   H5610     1.0  0.74857  0.26142  0.64674  1.0000
  C   C3170     1.0  0.74173  0.30635  0.69131  1.0000
  H   H5611     1.0  0.93791  0.12304  0.63659  1.0000
  H   H5612     1.0  0.86856  0.18115  0.69713  1.0000
  H   H5613     1.0  0.64350  0.23499  0.77275  1.0000
  H   H5614     1.0  0.83715  0.29255  0.76839  1.0000
  H   H5615     1.0  0.69989  0.25641  0.67360  1.0000
  H   H5616     1.0  0.81337  0.20295  0.64209  1.0000
  S   S719      1.0  0.70236  0.12111  0.61935  1.0000
  H   H5617     1.0  0.85495  0.23810  0.70503  1.0000
  C   C3171     1.0  0.72979  0.26025  0.63605  1.0000
  H   H5618     1.0  0.87128  0.31560  0.72334  1.0000
  H   H5619     1.0  0.87619  0.19390  0.66804  1.0000
  H   H5620     1.0  0.85874  0.24544  0.66449  1.0000
  C   C3172     1.0  0.67596  0.34555  0.76811  1.0000
  H   H5621     1.0  0.71572  0.31917  0.63978  1.0000
  H   H5622     1.0  0.70769  0.29076  0.66297  1.0000
  H   H5623     1.0  0.83091  0.22507  0.75583  1.0000
  H   H5624     1.0  0.83824  0.23171  0.68735  1.0000
  C   C3173     1.0  0.73254  0.99442  0.60633  1.0000
  H   H5625     1.0  0.99481  0.27584  0.68583  1.0000
  H   H5626     1.0  0.97476  0.25045  0.61008  1.0000
  S   S720      1.0  0.64002  0.28386  0.73958  1.0000
  S   S721      1.0  0.74835  0.35667  0.76675  1.0000
  H   H5627     1.0  0.73930  0.24251  0.65197  1.0000
  H   H5628     1.0  0.99080  0.23739  0.65895  1.0000
  H   H5629     1.0  0.76651  0.18985  0.61116  1.0000
  H   H5630     1.0  0.69850  0.36498  0.78172  1.0000
  H   H5631     1.0  0.90037  0.16817  0.67672  1.0000
  H   H5632     1.0  0.79921  0.18086  0.60709  1.0000
  H   H5633     1.0  0.99314  0.43025  0.59323  1.0000
  H   H5634     1.0  0.72223  0.28020  0.69453  1.0000
  C   C3174     1.0  0.97146  0.29573  0.67055  1.0000
  C   C3175     1.0  0.63907  0.36911  0.76814  1.0000
  C   C3176     1.0  0.67356  0.42294  0.76332  1.0000
  H   H5635     1.0  0.71529  0.34239  0.72374  1.0000
  C   C3177     1.0  0.72138  0.43687  0.77529  1.0000
  C   C3178     1.0  0.71426  0.00315  0.61325  1.0000
  C   C3179     1.0  0.79231  0.18546  0.61601  1.0000
  C   C3180     1.0  0.72460  0.32189  0.71277  1.0000
  H   H5636     1.0  0.67566  0.31245  0.77885  1.0000
  C   C3181     1.0  0.71849  0.28816  0.70191  1.0000
  H   H5637     1.0  0.83741  0.28247  0.75578  1.0000
  C   C3182     1.0  0.66958  0.31687  0.74168  1.0000
  H   H5638     1.0  0.86883  0.28142  0.65012  1.0000
  C   C3183     1.0  0.99035  0.36386  0.59139  1.0000
  H   H5639     1.0  0.68836  0.33551  0.76551  1.0000
  H   H5640     1.0  0.79498  0.20175  0.62750  1.0000
  H   H5641     1.0  0.92525  0.07363  0.61453  1.0000
  C   C3184     1.0  0.61158  0.33190  0.74531  1.0000
  H   H5642     1.0  0.64366  0.00477  0.61752  1.0000
  H   H5643     1.0  0.74130  0.32671  0.66608  1.0000
  C   C3185     1.0  0.69576  0.36071  0.77395  1.0000
  C   C3186     1.0  0.89233  0.13380  0.62472  1.0000
  C   C3187     1.0  0.92522  0.05655  0.68546  1.0000
  H   H5644     1.0  0.64511  0.02634  0.61877  1.0000
  H   H5645     1.0  0.96404  0.30905  0.66651  1.0000
  C   C3188     1.0  0.86802  0.34437  0.59949  1.0000
  H   H5646     1.0  0.66422  0.26104  0.65602  1.0000
  H   H5647     1.0  0.76248  0.25711  0.78515  1.0000
  H   H5648     1.0  0.67562  0.35655  0.75958  1.0000
  H   H5649     1.0  0.67554  0.30714  0.69588  1.0000
  H   H5650     1.0  0.98799  0.30324  0.60880  1.0000
  H   H5651     1.0  0.89226  0.30816  0.70361  1.0000
  S   S722      1.0  0.89126  0.11980  0.61535  1.0000
  H   H5652     1.0  0.85750  0.32515  0.68414  1.0000
  H   H5653     1.0  0.79508  0.07405  0.61091  1.0000
  H   H5654     1.0  0.68152  0.30811  0.73706  1.0000
  H   H5655     1.0  0.65013  0.37590  0.76681  1.0000
  H   H5656     1.0  0.76503  0.24049  0.70952  1.0000
  H   H5657     1.0  0.98474  0.34769  0.61045  1.0000
  N   N176      1.0  0.85327  0.20941  0.67894  1.0000
  H   H5658     1.0  0.89546  0.15768  0.69324  1.0000
  C   C3189     1.0  0.62050  0.31739  0.73973  1.0000
  C   C3190     1.0  0.73068  0.26139  0.67020  1.0000
  C   C3191     1.0  0.82120  0.20993  0.63330  1.0000
  H   H5659     1.0  0.86686  0.20697  0.70171  1.0000
  H   H5660     1.0  0.75400  0.24574  0.68674  1.0000
  H   H5661     1.0  0.97705  0.26676  0.64964  1.0000
  C   C3192     1.0  0.90926  0.15151  0.62965  1.0000
  H   H5662     1.0  0.68278  0.27857  0.65968  1.0000
  C   C3193     1.0  0.81270  0.24942  0.75996  1.0000
  C   C3194     1.0  0.62289  0.17779  0.60025  1.0000
  H   H5663     1.0  0.74682  0.23426  0.67046  1.0000
  C   C3195     1.0  0.63972  0.22510  0.78099  1.0000
  H   H5664     1.0  0.62265  0.31892  0.72959  1.0000
  H   H5665     1.0  0.71346  0.32733  0.70768  1.0000
  H   H5666     1.0  0.73611  0.32812  0.70725  1.0000
  H   H5667     1.0  0.92510  0.05049  0.66803  1.0000
  H   H5668     1.0  0.73659  0.00328  0.59710  1.0000
  H   H5669     1.0  0.95239  0.11716  0.64764  1.0000
  H   H5670     1.0  0.53431  0.32645  0.78524  1.0000
  H   H5671     1.0  0.61569  0.22473  0.77564  1.0000
  H   H5672     1.0  0.58370  0.30658  0.75644  1.0000
  N   N177      1.0  0.89357  0.32267  0.68419  1.0000
  H   H5673     1.0  0.90271  0.34319  0.68828  1.0000
  H   H5674     1.0  0.96675  0.23013  0.67741  1.0000
  H   H5675     1.0  0.91210  0.27239  0.67493  1.0000
  C   C3196     1.0  0.72498  0.31517  0.64642  1.0000
  H   H5676     1.0  0.71777  0.31950  0.65540  1.0000
  C   C3197     1.0  0.73217  0.29510  0.64895  1.0000
  H   H5677     1.0  0.75290  0.27053  0.69650  1.0000
  C   C3198     1.0  0.97705  0.23955  0.65735  1.0000
  C   C3199     1.0  0.90844  0.33038  0.68518  1.0000
  H   H5678     1.0  0.62029  0.99264  0.58634  1.0000
  H   H5679     1.0  0.70031  0.28432  0.77708  1.0000
  H   H5680     1.0  0.90635  0.28495  0.69418  1.0000
  C   C3200     1.0  0.73567  0.25708  0.64870  1.0000
  Fe  Fe362     1.0  0.77743  0.34766  0.76757  1.0000
  H   H5681     1.0  0.83080  0.17590  0.64828  1.0000
  H   H5682     1.0  0.74174  0.29190  0.65520  1.0000
  C   C3201     1.0  0.74519  0.26229  0.71663  1.0000
  H   H5683     1.0  0.91768  0.13944  0.61339  1.0000
  H   H5684     1.0  0.96861  0.21986  0.61727  1.0000
  S   S723      1.0  0.73468  0.40587  0.76695  1.0000
  H   H5685     1.0  0.69202  0.28986  0.68912  1.0000
  S   S724      1.0  0.66293  0.02195  0.59142  1.0000
  H   H5686     1.0  0.80360  0.00661  0.59048  1.0000
  H   H5687     1.0  0.66277  0.12015  0.62393  1.0000
  H   H5688     1.0  0.96485  0.47482  0.58835  1.0000
  C   C3202     1.0  0.97779  0.24058  0.62975  1.0000
  C   C3203     1.0  0.86025  0.15940  0.59994  1.0000
  C   C3204     1.0  0.73581  0.24157  0.67679  1.0000
  H   H5689     1.0  0.58618  0.24520  0.78047  1.0000
  C   C3205     1.0  0.88304  0.31680  0.69739  1.0000
  H   H5690     1.0  0.94180  0.39584  0.60684  1.0000
  H   H5691     1.0  0.99696  0.30062  0.65952  1.0000
  C   C3206     1.0  0.67580  0.25417  0.66058  1.0000
  H   H5692     1.0  0.74196  0.32482  0.76726  1.0000
  H   H5693     1.0  0.76200  0.28063  0.70489  1.0000
  H   H5694     1.0  0.69707  0.13577  0.64120  1.0000
  H   H5695     1.0  0.86755  0.17032  0.68543  1.0000
  H   H5696     1.0  0.64857  0.30427  0.77609  1.0000
  C   C3207     1.0  0.90734  0.14149  0.62174  1.0000
  H   H5697     1.0  0.62833  0.01520  0.62983  1.0000
  H   H5698     1.0  0.69646  0.30958  0.70770  1.0000
  H   H5699     1.0  0.72027  0.29535  0.72228  1.0000
  H   H5700     1.0  0.61695  0.20535  0.60204  1.0000
  H   H5701     1.0  0.73200  0.31922  0.69001  1.0000
  C   C3208     1.0  0.74943  0.27702  0.70467  1.0000
  H   H5702     1.0  0.74120  0.26746  0.72543  1.0000
  H   H5703     1.0  0.82648  0.30547  0.75555  1.0000
  C   C3209     1.0  0.62726  0.30113  0.74714  1.0000
  H   H5704     1.0  0.62378  0.18919  0.61560  1.0000
  H   H5705     1.0  0.69384  0.26854  0.64631  1.0000
  H   H5706     1.0  0.65829  0.30999  0.74467  1.0000
  H   H5707     1.0  0.72632  0.44345  0.76568  1.0000
  H   H5708     1.0  0.97789  0.31693  0.62030  1.0000
  C   C3210     1.0  0.87140  0.33180  0.70424  1.0000
  C   C3211     1.0  0.75259  0.31516  0.66756  1.0000
  H   H5709     1.0  0.69883  0.40871  0.75345  1.0000
  H   H5710     1.0  0.75663  0.26046  0.62411  1.0000
  C   C3212     1.0  0.81170  0.28649  0.76919  1.0000
  C   C3213     1.0  0.66222  0.32092  0.78139  1.0000
  C   C3214     1.0  0.68727  0.29612  0.69747  1.0000
  C   C3215     1.0  0.95192  0.40534  0.58667  1.0000
  C   C3216     1.0  0.68964  0.26580  0.65675  1.0000
  H   H5711     1.0  0.75399  0.30955  0.69245  1.0000
  S   S725      1.0  0.81414  0.14276  0.59933  1.0000
  N   N178      1.0  0.72207  0.26519  0.65897  1.0000
  C   C3217     1.0  0.68094  0.03195  0.58938  1.0000
  H   H5712     1.0  0.83582  0.20576  0.61471  1.0000
  H   H5713     1.0  0.87470  0.15348  0.59976  1.0000
  N   N179      1.0  0.77328  0.39187  0.72809  1.0000
  C   C3218     1.0  0.77023  0.39836  0.74008  1.0000
  C   C3219     1.0  0.76116  0.37917  0.73032  1.0000
  C   C3220     1.0  0.79246  0.38146  0.72556  1.0000
  C   C3221     1.0  0.77048  0.40676  0.71671  1.0000
  C   C3222     1.0  0.75643  0.42393  0.71916  1.0000
  C   C3223     1.0  0.78410  0.40864  0.74039  1.0000
  C   C3224     1.0  0.79787  0.37165  0.71446  1.0000
  C   C3225     1.0  0.74067  0.38658  0.73368  1.0000
  C   C3226     1.0  0.73027  0.37196  0.73626  1.0000
  C   C3227     1.0  0.75254  0.43628  0.70675  1.0000
  C   C3228     1.0  0.77709  0.41928  0.75081  1.0000
  H   H5714     1.0  0.77041  0.38696  0.74839  1.0000
  H   H5715     1.0  0.75664  0.40682  0.74216  1.0000
  H   H5716     1.0  0.76339  0.37368  0.72180  1.0000
  H   H5717     1.0  0.76455  0.36769  0.73809  1.0000
  H   H5718     1.0  0.79534  0.37140  0.73421  1.0000
  H   H5719     1.0  0.80203  0.39034  0.72340  1.0000
  H   H5720     1.0  0.78327  0.41117  0.71174  1.0000
  H   H5721     1.0  0.76680  0.40185  0.70956  1.0000
  H   H5722     1.0  0.76157  0.43133  0.72396  1.0000
  H   H5723     1.0  0.74352  0.42119  0.72526  1.0000
  H   H5724     1.0  0.79666  0.39910  0.74235  1.0000
  H   H5725     1.0  0.78757  0.41787  0.73120  1.0000
  H   H5726     1.0  0.79387  0.38058  0.70577  1.0000
  H   H5727     1.0  0.79142  0.36011  0.71705  1.0000
  H   H5728     1.0  0.73675  0.39227  0.74225  1.0000
  H   H5729     1.0  0.73631  0.39678  0.72558  1.0000
  H   H5730     1.0  0.73310  0.36632  0.72773  1.0000
  H   H5731     1.0  0.73399  0.36111  0.74426  1.0000
  H   H5732     1.0  0.71563  0.37754  0.73875  1.0000
  H   H5733     1.0  0.76507  0.43991  0.70044  1.0000
  H   H5734     1.0  0.74653  0.42982  0.70180  1.0000
  H   H5735     1.0  0.74287  0.44863  0.70876  1.0000
  H   H5736     1.0  0.78744  0.42621  0.75090  1.0000
  H   H5737     1.0  0.76471  0.42935  0.74917  1.0000
  H   H5738     1.0  0.77404  0.41036  0.76023  1.0000
  N   N180      1.0  0.75744  0.10038  0.64443  1.0000
  C   C3229     1.0  0.76916  0.11364  0.63809  1.0000
  C   C3230     1.0  0.76764  0.08497  0.65267  1.0000
  C   C3231     1.0  0.75257  0.09459  0.63430  1.0000
  C   C3232     1.0  0.74031  0.10835  0.65271  1.0000
  C   C3233     1.0  0.74251  0.11844  0.66203  1.0000
  C   C3234     1.0  0.76035  0.13108  0.62996  1.0000
  C   C3235     1.0  0.74331  0.07853  0.63898  1.0000
  C   C3236     1.0  0.78506  0.07417  0.64566  1.0000
  C   C3237     1.0  0.79273  0.05745  0.65460  1.0000
  C   C3238     1.0  0.72435  0.12524  0.67017  1.0000
  C   C3239     1.0  0.77218  0.14467  0.62600  1.0000
  C   C3240     1.0  0.73810  0.07443  0.62811  1.0000
  H   H5739     1.0  0.78137  0.10783  0.63163  1.0000
  H   H5740     1.0  0.77428  0.11697  0.64522  1.0000
  H   H5741     1.0  0.77188  0.08969  0.65964  1.0000
  H   H5742     1.0  0.75880  0.07573  0.65854  1.0000
  H   H5743     1.0  0.76461  0.09147  0.62673  1.0000
  H   H5744     1.0  0.74330  0.10573  0.62932  1.0000
  H   H5745     1.0  0.73085  0.11755  0.64687  1.0000
  H   H5746     1.0  0.73298  0.09784  0.65855  1.0000
  H   H5747     1.0  0.74844  0.13014  0.65691  1.0000
  H   H5748     1.0  0.75121  0.10971  0.66852  1.0000
  H   H5749     1.0  0.75828  0.12855  0.62127  1.0000
  H   H5750     1.0  0.74724  0.13719  0.63524  1.0000
  H   H5751     1.0  0.73086  0.08125  0.64625  1.0000
  H   H5752     1.0  0.75238  0.06642  0.64308  1.0000
  H   H5753     1.0  0.78285  0.07002  0.63765  1.0000
  H   H5754     1.0  0.79544  0.08224  0.64196  1.0000
  H   H5755     1.0  0.79546  0.06092  0.66274  1.0000
  H   H5756     1.0  0.78325  0.04833  0.65817  1.0000
  H   H5757     1.0  0.80560  0.05045  0.64945  1.0000
  H   H5758     1.0  0.72631  0.13231  0.67678  1.0000
  H   H5759     1.0  0.71531  0.13466  0.66412  1.0000
  H   H5760     1.0  0.71791  0.11405  0.67586  1.0000
  H   H5761     1.0  0.78603  0.13892  0.62144  1.0000
  H   H5762     1.0  0.76654  0.15636  0.61918  1.0000
  H   H5763     1.0  0.77268  0.14913  0.63440  1.0000
  H   H5764     1.0  0.73184  0.06270  0.63165  1.0000
  H   H5765     1.0  0.72819  0.08583  0.62410  1.0000
  H   H5766     1.0  0.75015  0.07152  0.62053  1.0000
  N   N181      1.0  0.66987  0.18714  0.75000  1.0000
  C   C3241     1.0  0.68184  0.17882  0.73925  1.0000
  C   C3242     1.0  0.68116  0.19457  0.75531  1.0000
  C   C3243     1.0  0.66131  0.17326  0.75997  1.0000
  C   C3244     1.0  0.65517  0.20216  0.74551  1.0000
  C   C3245     1.0  0.66115  0.21542  0.73309  1.0000
  C   C3246     1.0  0.67230  0.17125  0.73215  1.0000
  H   H5767     1.0  0.98954  0.20355  0.67679  1.0000
  C   C3247     1.0  0.69564  0.18093  0.76195  1.0000
  H   H5768     1.0  0.79038  0.46249  0.76652  1.0000
  C   C3248     1.0  0.64588  0.23138  0.73045  1.0000
  C   C3249     1.0  0.68474  0.16694  0.71984  1.0000
  H   H5769     1.0  0.89308  0.35301  0.58944  1.0000
  H   H5770     1.0  0.69227  0.16751  0.74274  1.0000
  H   H5771     1.0  0.68954  0.18840  0.73228  1.0000
  H   H5772     1.0  0.68842  0.20378  0.74764  1.0000
  H   H5773     1.0  0.67252  0.20272  0.76220  1.0000
  H   H5774     1.0  0.67165  0.16119  0.76257  1.0000
  H   H5775     1.0  0.65223  0.16867  0.75610  1.0000
  H   H5776     1.0  0.64424  0.19701  0.74417  1.0000
  H   H5777     1.0  0.64851  0.21008  0.75293  1.0000
  H   H5778     1.0  0.66544  0.20906  0.72482  1.0000
  H   H5779     1.0  0.67257  0.22040  0.73363  1.0000
  H   H5780     1.0  0.66843  0.15880  0.73816  1.0000
  H   H5781     1.0  0.65999  0.18062  0.72969  1.0000
  H   H5782     1.0  0.81115  0.32054  0.60647  1.0000
  H   H5783     1.0  0.74750  0.27742  0.77971  1.0000
  C   C3250     1.0  0.67512  0.00033  0.62564  1.0000
  H   H5784     1.0  0.70565  0.17328  0.75528  1.0000
  H   H5785     1.0  0.93684  0.06752  0.66629  1.0000
  H   H5786     1.0  0.64497  0.32910  0.76104  1.0000
  H   H5787     1.0  0.81503  0.27317  0.77530  1.0000
  H   H5788     1.0  0.63426  0.22705  0.72940  1.0000
  H   H5789     1.0  0.64147  0.23875  0.73822  1.0000
  H   H5790     1.0  0.65061  0.24056  0.72152  1.0000
  H   H5791     1.0  0.69736  0.15748  0.72174  1.0000
  H   H5792     1.0  0.67794  0.16086  0.71519  1.0000
  H   H5793     1.0  0.68810  0.17924  0.71320  1.0000
  C   C3251     1.0  0.62448  0.29921  0.76028  1.0000
  H   H5794     1.0  0.78477  0.24791  0.76836  1.0000
  H   H5795     1.0  0.85951  0.17670  0.61165  1.0000
  H   H5796     1.0  0.83621  0.14584  0.66095  1.0000
  N   N182      1.0  0.90587  0.08586  0.65585  1.0000
  C   C3252     1.0  0.91578  0.07365  0.64686  1.0000
  C   C3253     1.0  0.90708  0.07641  0.66935  1.0000
  C   C3254     1.0  0.88630  0.09065  0.65505  1.0000
  C   C3255     1.0  0.91263  0.10282  0.65226  1.0000
  C   C3256     1.0  0.93259  0.10090  0.65230  1.0000
  C   C3257     1.0  0.91498  0.08118  0.63270  1.0000
  C   C3258     1.0  0.87312  0.10142  0.66472  1.0000
  H   H5797     1.0  0.68762  0.41562  0.77873  1.0000
  H   H5798     1.0  0.62963  0.28663  0.76604  1.0000
  C   C3259     1.0  0.93838  0.11862  0.64678  1.0000
  C   C3260     1.0  0.85364  0.10299  0.66423  1.0000
  H   H5799     1.0  0.91044  0.06128  0.64991  1.0000
  H   H5800     1.0  0.93022  0.06926  0.64714  1.0000
  C   C3261     1.0  0.77427  0.19739  0.61384  1.0000
  H   H5801     1.0  0.91701  0.41856  0.59770  1.0000
  H   H5802     1.0  0.88140  0.07839  0.65617  1.0000
  H   H5803     1.0  0.88454  0.09878  0.64554  1.0000
  H   H5804     1.0  0.91019  0.11048  0.64283  1.0000
  H   H5805     1.0  0.90487  0.11173  0.65884  1.0000
  H   H5806     1.0  0.94162  0.09136  0.64661  1.0000
  H   H5807     1.0  0.93457  0.09656  0.66218  1.0000
  H   H5808     1.0  0.90105  0.08390  0.63135  1.0000
  H   H5809     1.0  0.87546  0.11505  0.66255  1.0000
  H   H5810     1.0  0.87448  0.09517  0.67460  1.0000
  C   C3262     1.0  0.61118  0.00566  0.58741  1.0000
  C   C3263     1.0  0.73058  0.30137  0.71466  1.0000
  H   H5811     1.0  0.99183  0.21090  0.61840  1.0000
  H   H5812     1.0  0.69659  0.19789  0.77393  1.0000
  C   C3264     1.0  0.99089  0.29647  0.66962  1.0000
  H   H5813     1.0  0.68580  0.32601  0.74987  1.0000
  H   H5814     1.0  0.63735  0.36892  0.75870  1.0000
  C   C3265     1.0  0.71842  0.32770  0.72538  1.0000
  H   H5815     1.0  0.85137  0.10888  0.65449  1.0000
  H   H5816     1.0  0.85023  0.08969  0.66738  1.0000
  H   H5817     1.0  0.84445  0.11152  0.67066  1.0000
  H   H5818     1.0  0.73416  0.25656  0.71615  1.0000
  H   H5819     1.0  0.81164  0.22100  0.62861  1.0000
  H   H5820     1.0  0.74266  0.29799  0.71885  1.0000
  C   C3266     1.0  0.76671  0.03491  0.60073  1.0000
  C   C3267     1.0  0.75359  0.02967  0.61316  1.0000
  H   H5821     1.0  0.75804  0.31012  0.65870  1.0000
  H   H5822     1.0  0.69355  0.37240  0.76611  1.0000
  C   C3268     1.0  0.76145  0.24693  0.71773  1.0000
  C   C3269     1.0  0.92257  0.27706  0.67722  1.0000
  H   H5823     1.0  0.60681  0.34458  0.73947  1.0000
  H   H5824     1.0  0.65600  0.34619  0.75197  1.0000
  H   H5825     1.0  0.77933  0.03501  0.60312  1.0000
  N   N183      1.0  0.65204  0.16260  0.58648  1.0000
  H   H5826     1.0  0.74019  0.03078  0.61133  1.0000
  H   H5827     1.0  0.99295  0.28709  0.63023  1.0000
  H   H5828     1.0  0.68952  0.17155  0.77016  1.0000
  C   C3270     1.0  0.96375  0.24193  0.66980  1.0000
  H   H5829     1.0  0.73128  0.24572  0.69594  1.0000
  H   H5830     1.0  0.70621  0.32280  0.73089  1.0000
  C   C3271     1.0  0.86156  0.32410  0.71750  1.0000
  H   H5831     1.0  0.73416  0.29790  0.67672  1.0000
  H   H5832     1.0  0.75867  0.01590  0.61808  1.0000
  H   H5833     1.0  0.84400  0.20379  0.70587  1.0000
  C   C3272     1.0  0.92291  0.33407  0.67287  1.0000
  C   C3273     1.0  0.69161  0.42258  0.75388  1.0000
  C   C3274     1.0  0.97354  0.25616  0.64674  1.0000
  H   H5834     1.0  0.87433  0.32477  0.58812  1.0000
  N   N184      1.0  0.73472  0.29352  0.70305  1.0000
  H   H5835     1.0  0.79256  0.30092  0.75766  1.0000
  H   H5836     1.0  0.60165  0.19223  0.61284  1.0000
  H   H5837     1.0  0.80646  0.30165  0.61891  1.0000
  H   H5838     1.0  0.60870  0.41549  0.78128  1.0000
  N   N185      1.0  0.68919  0.99707  0.63328  1.0000
  H   H5839     1.0  0.85373  0.34911  0.59876  1.0000
  N   N186      1.0  0.78587  0.27534  0.76585  1.0000
  H   H5840     1.0  0.60031  0.27621  0.76486  1.0000
  C   C3275     1.0  0.82925  0.29209  0.76173  1.0000
  Fe  Fe363     1.0  0.67261  0.99316  0.59076  1.0000
  H   H5841     1.0  0.66767  0.36221  0.78233  1.0000
  C   C3276     1.0  0.64187  0.16425  0.78172  1.0000
  H   H5842     1.0  0.70017  0.42916  0.75669  1.0000
  H   H5843     1.0  0.74287  0.99192  0.61198  1.0000
  H   H5844     1.0  0.86895  0.34572  0.60882  1.0000
  C   C3277     1.0  0.64266  0.17756  0.59326  1.0000
  H   H5845     1.0  0.78593  0.08204  0.59685  1.0000
  C   C3278     1.0  0.81748  0.22923  0.76181  1.0000
  H   H5846     1.0  0.64252  0.19055  0.58645  1.0000
  H   H5847     1.0  0.56722  0.22874  0.77612  1.0000
  C   C3279     1.0  0.60871  0.33006  0.75840  1.0000
  H   H5848     1.0  0.80080  0.06045  0.59942  1.0000
  C   C3280     1.0  0.61482  0.31360  0.76596  1.0000
  H   H5849     1.0  0.68940  0.42978  0.74429  1.0000
  H   H5850     1.0  0.67766  0.16369  0.58958  1.0000
  H   H5851     1.0  0.64056  0.42886  0.77611  1.0000
  H   H5852     1.0  0.90168  0.29454  0.59537  1.0000
  C   C3281     1.0  0.97955  0.28894  0.62814  1.0000
  H   H5853     1.0  0.51925  0.31548  0.77301  1.0000
  C   C3282     1.0  0.98374  0.23976  0.61554  1.0000
  H   H5854     1.0  0.65357  0.01299  0.63972  1.0000
  C   C3283     1.0  0.64235  0.01320  0.62423  1.0000
  C   C3284     1.0  0.64980  0.17930  0.77227  1.0000
  H   H5855     1.0  0.76936  0.29530  0.77636  1.0000
  C   C3285     1.0  0.79430  0.25575  0.76862  1.0000
  H   H5856     1.0  0.63077  0.34463  0.77720  1.0000
  H   H5857     1.0  0.56021  0.28481  0.77777  1.0000
  C   C3286     1.0  0.57447  0.28188  0.77849  1.0000
  H   H5858     1.0  0.80748  0.22454  0.75896  1.0000
  H   H5859     1.0  0.82610  0.07341  0.59726  1.0000
  C   C3287     1.0  0.70589  0.19032  0.76691  1.0000
  H   H5860     1.0  0.77047  0.11226  0.59490  1.0000
  H   H5861     1.0  0.67988  0.01388  0.64707  1.0000
  H   H5862     1.0  0.86959  0.29630  0.59329  1.0000
  H   H5863     1.0  0.81794  0.22289  0.77187  1.0000
  H   H5864     1.0  0.71276  0.19957  0.75899  1.0000
  H   H5865     1.0  0.64402  0.40573  0.77813  1.0000
  H   H5866     1.0  0.89535  0.27175  0.58673  1.0000
  H   H5867     1.0  0.92923  0.43547  0.59624  1.0000
  H   H5868     1.0  0.62124  0.16496  0.60679  1.0000
  H   H5869     1.0  0.80451  0.29591  0.77552  1.0000
  C   C3288     1.0  0.87854  0.35699  0.58930  1.0000
  H   H5870     1.0  0.57837  0.02789  0.58678  1.0000
  H   H5871     1.0  0.79378  0.44584  0.78061  1.0000
  H   H5872     1.0  0.90378  0.38389  0.58715  1.0000
  C   C3289     1.0  0.64271  0.35005  0.77630  1.0000
  H   H5873     1.0  0.80318  0.02911  0.58872  1.0000
  H   H5874     1.0  0.71121  0.46110  0.78222  1.0000
  H   H5875     1.0  0.77397  0.44904  0.77442  1.0000
  H   H5876     1.0  0.60693  0.26036  0.78249  1.0000
  C   C3290     1.0  0.70998  0.04720  0.58714  1.0000
  H   H5877     1.0  0.76385  0.47961  0.77867  1.0000
  C   C3291     1.0  0.62373  0.21955  0.78277  1.0000
  C   C3292     1.0  0.78349  0.45587  0.77591  1.0000
  H   H5878     1.0  0.87349  0.37065  0.59107  1.0000
  H   H5879     1.0  0.65863  0.13404  0.58967  1.0000
  C   C3293     1.0  0.64287  0.41630  0.78320  1.0000
  H   H5880     1.0  0.62274  0.38144  0.78385  1.0000
  C   C3294     1.0  0.98432  0.40388  0.58578  1.0000
  C   C3295     1.0  0.62176  0.38031  0.77442  1.0000
  H   H5881     1.0  0.64646  0.45052  0.78060  1.0000
  H   H5882     1.0  0.57666  0.29447  0.77962  1.0000
  C   C3296     1.0  0.72203  0.31288  0.78160  1.0000
  C   C3297     1.0  0.64821  0.30926  0.78446  1.0000
  H   H5883     1.0  0.78340  0.27776  0.78505  1.0000
  H   H5884     1.0  0.54371  0.23137  0.78371  1.0000
  H   H5885     1.0  0.60752  0.43737  0.78344  1.0000
  C   C3298     1.0  0.71286  0.44683  0.78462  1.0000
  H   H5886     1.0  0.65272  0.15290  0.78456  1.0000
  Fe  Fe364     1.0  0.72331  0.08495  0.58591  1.0000
  H   H5887     1.0  0.99303  0.49009  0.60014  1.0000
  Fe  Fe365     1.0  0.57087  0.11432  0.92169  1.0000
  S   S726      1.0  0.54913  0.12690  0.93611  1.0000
  S   S727      1.0  0.58683  0.13218  0.90649  1.0000
  Fe  Fe366     1.0  0.56229  0.07773  0.93255  1.0000
  S   S728      1.0  0.53952  0.08765  0.94747  1.0000
  H   H5888     1.0  0.50994  0.10015  0.88268  1.0000
  Fe  Fe367     1.0  0.53269  0.11109  0.93222  1.0000
  H   H5889     1.0  0.92645  0.48606  0.91957  1.0000
  Fe  Fe368     1.0  0.55820  0.10235  0.95005  1.0000
  S   S729      1.0  0.55849  0.09814  0.97063  1.0000
  S   S730      1.0  0.55382  0.10001  0.91677  1.0000
  S   S731      1.0  0.58162  0.09099  0.93604  1.0000
  Fe  Fe369     1.0  0.91076  0.43317  0.92197  1.0000
  S   S732      1.0  0.88526  0.42512  0.93430  1.0000
  S   S733      1.0  0.93739  0.41386  0.91909  1.0000
  Fe  Fe370     1.0  0.89265  0.47125  0.91489  1.0000
  S   S734      1.0  0.86600  0.46682  0.92662  1.0000
  H   H5890     1.0  0.86365  0.46337  0.85616  1.0000
  Fe  Fe371     1.0  0.88130  0.44989  0.94133  1.0000
  Fe  Fe372     1.0  0.87201  0.44272  0.91845  1.0000
  S   S735      1.0  0.84694  0.44119  0.91295  1.0000
  S   S736      1.0  0.90766  0.45646  0.93023  1.0000
  S   S737      1.0  0.89783  0.44854  0.90550  1.0000
  S   S738      1.0  0.67044  0.22514  0.78800  1.0000
  H   H5891     1.0  0.59347  0.10887  0.88946  1.0000
  Fe  Fe373     1.0  0.65026  0.41360  0.83629  1.0000
  S   S739      1.0  0.64895  0.44205  0.82592  1.0000
  S   S740      1.0  0.64312  0.39031  0.83242  1.0000
  Fe  Fe374     1.0  0.67418  0.41559  0.85289  1.0000
  S   S741      1.0  0.67530  0.44380  0.84409  1.0000
  S   S742      1.0  0.68686  0.39901  0.86918  1.0000
  Fe  Fe375     1.0  0.64592  0.44780  0.84496  1.0000
  S   S743      1.0  0.62875  0.47311  0.85042  1.0000
  Fe  Fe376     1.0  0.67834  0.43676  0.82557  1.0000
  S   S744      1.0  0.69595  0.45067  0.80866  1.0000
  S   S745      1.0  0.64432  0.41984  0.85552  1.0000
  S   S746      1.0  0.68020  0.40787  0.83423  1.0000
  H   H5892     1.0  0.71202  0.48853  0.84416  1.0000
  S   S747      1.0  0.60061  0.34266  0.79964  1.0000
  H   H5893     1.0  0.50727  0.07553  0.91112  1.0000
  Fe  Fe377     1.0  0.55141  0.33742  0.80497  1.0000
  S   S748      1.0  0.56400  0.33652  0.82098  1.0000
  H   H5894     1.0  0.71948  0.46152  0.81964  1.0000
  Fe  Fe378     1.0  0.57543  0.35963  0.80842  1.0000
  S   S749      1.0  0.57551  0.38384  0.81518  1.0000
  Fe  Fe379     1.0  0.58811  0.31970  0.81089  1.0000
  S   S750      1.0  0.60647  0.29647  0.82045  1.0000
  H   H5895     1.0  0.99843  0.36819  0.96501  1.0000
  S   S751      1.0  0.57496  0.31871  0.79585  1.0000
  C   C3299     1.0  0.73246  0.45182  0.81980  1.0000
  H   H5896     1.0  0.97290  0.39563  0.91153  1.0000
  H   H5897     1.0  0.58037  0.01528  0.91234  1.0000
  C   C3300     1.0  0.78334  0.47314  0.81151  1.0000
  H   H5898     1.0  0.97495  0.41977  0.95765  1.0000
  S   S752      1.0  0.78202  0.35362  0.81079  1.0000
  H   H5899     1.0  0.76156  0.26725  0.80424  1.0000
  C   C3301     1.0  0.70117  0.44905  0.89880  1.0000
  H   H5900     1.0  0.57228  0.28038  0.80547  1.0000
  H   H5901     1.0  0.97726  0.44675  0.92660  1.0000
  Fe  Fe380     1.0  0.56956  0.21264  0.84088  1.0000
  H   H5902     1.0  0.87733  0.48470  0.98017  1.0000
  S   S753      1.0  0.57504  0.22926  0.85206  1.0000
  Fe  Fe381     1.0  0.56879  0.17508  0.84127  1.0000
  S   S754      1.0  0.56048  0.18269  0.82259  1.0000
  S   S755      1.0  0.57414  0.14629  0.85117  1.0000
  Fe  Fe382     1.0  0.58088  0.19966  0.81630  1.0000
  Fe  Fe383     1.0  0.54172  0.20578  0.83000  1.0000
  H   H5903     1.0  0.87856  0.48082  0.88702  1.0000
  S   S756      1.0  0.59094  0.19013  0.83435  1.0000
  S   S757      1.0  0.54808  0.19678  0.84934  1.0000
  Fe  Fe384     1.0  0.77169  0.42784  0.86621  1.0000
  S   S758      1.0  0.76687  0.44665  0.84806  1.0000
  S   S759      1.0  0.75049  0.41859  0.88281  1.0000
  Fe  Fe385     1.0  0.81184  0.42687  0.85948  1.0000
  S   S760      1.0  0.81031  0.44526  0.84055  1.0000
  S   S761      1.0  0.83803  0.41653  0.86630  1.0000
  Fe  Fe386     1.0  0.78567  0.46084  0.85116  1.0000
  H   H5904     1.0  0.84447  0.46459  0.86913  1.0000
  Fe  Fe387     1.0  0.79184  0.42929  0.83900  1.0000
  S   S762      1.0  0.79231  0.42495  0.81973  1.0000
  S   S763      1.0  0.78828  0.44348  0.87009  1.0000
  S   S764      1.0  0.79547  0.40935  0.85708  1.0000
  H   H5905     1.0  0.71446  0.43977  0.89734  1.0000
  N   N187      1.0  0.99324  0.39620  0.96513  1.0000
  C   C3302     1.0  0.94360  0.47324  0.95807  1.0000
  H   H5906     1.0  0.96674  0.37237  0.97484  1.0000
  C   C3303     1.0  0.54146  0.02044  0.91733  1.0000
  H   H5907     1.0  0.68197  0.36123  0.80354  1.0000
  H   H5908     1.0  0.53703  0.04510  0.90369  1.0000
  C   C3304     1.0  0.53541  0.28423  0.81454  1.0000
  C   C3305     1.0  0.90376  0.48537  0.96800  1.0000
  H   H5909     1.0  0.97713  0.40324  0.94245  1.0000
  H   H5910     1.0  0.79088  0.47575  0.87184  1.0000
  C   C3306     1.0  0.94998  0.40327  0.95249  1.0000
  H   H5911     1.0  0.72439  0.49075  0.86493  1.0000
  C   C3307     1.0  0.76539  0.48369  0.80762  1.0000
  H   H5912     1.0  0.58831  0.00750  0.95150  1.0000
  H   H5913     1.0  0.52674  0.13182  0.90734  1.0000
  H   H5914     1.0  0.54263  0.03652  0.97984  1.0000
  C   C3308     1.0  0.78593  0.37325  0.81287  1.0000
  C   C3309     1.0  0.78535  0.38867  0.80332  1.0000
  C   C3310     1.0  0.78768  0.40431  0.80550  1.0000
  C   C3311     1.0  0.79026  0.40477  0.81730  1.0000
  C   C3312     1.0  0.79101  0.38932  0.82681  1.0000
  C   C3313     1.0  0.78913  0.37356  0.82452  1.0000
  H   H5915     1.0  0.59509  0.00673  0.92883  1.0000
  H   H5916     1.0  0.78716  0.41618  0.79808  1.0000
  H   H5917     1.0  0.79319  0.38947  0.83588  1.0000
  H   H5918     1.0  0.78992  0.36161  0.83187  1.0000
  S   S765      1.0  0.56140  0.22356  0.82225  1.0000
  H   H5919     1.0  0.62187  0.01250  0.92389  1.0000
  H   H5920     1.0  0.94226  0.39779  0.96194  1.0000
  C   C3314     1.0  0.70467  0.47767  0.84883  1.0000
  C   C3315     1.0  0.74753  0.46133  0.81891  1.0000
  C   C3316     1.0  0.59722  0.27804  0.82903  1.0000
  C   C3317     1.0  0.60782  0.26369  0.83580  1.0000
  C   C3318     1.0  0.60091  0.24877  0.84278  1.0000
  C   C3319     1.0  0.58355  0.24784  0.84272  1.0000
  C   C3320     1.0  0.57284  0.26222  0.83597  1.0000
  C   C3321     1.0  0.57959  0.27747  0.82929  1.0000
  H   H5921     1.0  0.62139  0.26415  0.83570  1.0000
  H   H5922     1.0  0.60907  0.23794  0.84821  1.0000
  H   H5923     1.0  0.55923  0.26174  0.83617  1.0000
  H   H5924     1.0  0.57119  0.28879  0.82438  1.0000
  C   C3322     1.0  0.57604  0.24974  0.78861  1.0000
  H   H5925     1.0  0.53974  0.27854  0.79625  1.0000
  H   H5926     1.0  0.62515  0.40228  0.79905  1.0000
  H   H5927     1.0  0.56775  0.05788  0.95908  1.0000
  C   C3323     1.0  0.62482  0.99203  0.98047  1.0000
  S   S766      1.0  0.56072  0.36215  0.79324  1.0000
  H   H5928     1.0  0.79168  0.46480  0.80473  1.0000
  C   C3324     1.0  0.97372  0.40689  0.91475  1.0000
  H   H5929     1.0  0.53498  0.15179  0.90033  1.0000
  H   H5930     1.0  0.57896  0.02419  0.96981  1.0000
  S   S767      1.0  0.77275  0.33018  0.78699  1.0000
  H   H5931     1.0  0.65329  0.47445  0.78702  1.0000
  H   H5932     1.0  0.63361  0.16904  0.79035  1.0000
  H   H5933     1.0  0.66004  0.38554  0.79335  1.0000
  C   C3325     1.0  0.65040  0.00521  0.91787  1.0000
  C   C3326     1.0  0.53097  0.13013  0.84888  1.0000
  H   H5934     1.0  0.66109  0.47691  0.83112  1.0000
  C   C3327     1.0  0.54214  0.03834  0.91216  1.0000
  C   C3328     1.0  0.60321  0.99433  0.90710  1.0000
  C   C3329     1.0  0.70352  0.40606  0.87302  1.0000
  C   C3330     1.0  0.71231  0.41899  0.86460  1.0000
  C   C3331     1.0  0.72670  0.42314  0.86754  1.0000
  C   C3332     1.0  0.73199  0.41460  0.87902  1.0000
  C   C3333     1.0  0.72258  0.40232  0.88766  1.0000
  C   C3334     1.0  0.70858  0.39787  0.88459  1.0000
  H   H5935     1.0  0.70825  0.42538  0.85574  1.0000
  H   H5936     1.0  0.73381  0.43277  0.86092  1.0000
  H   H5937     1.0  0.72653  0.39575  0.89657  1.0000
  H   H5938     1.0  0.70177  0.38790  0.89115  1.0000
  C   C3335     1.0  0.62434  0.38945  0.82717  1.0000
  C   C3336     1.0  0.62500  0.37439  0.82282  1.0000
  C   C3337     1.0  0.61025  0.37268  0.81890  1.0000
  C   C3338     1.0  0.59467  0.38604  0.81931  1.0000
  C   C3339     1.0  0.59413  0.40130  0.82341  1.0000
  C   C3340     1.0  0.60895  0.40305  0.82730  1.0000
  H   H5939     1.0  0.63697  0.36392  0.82258  1.0000
  H   H5940     1.0  0.61082  0.36092  0.81575  1.0000
  H   H5941     1.0  0.58210  0.41170  0.82374  1.0000
  H   H5942     1.0  0.60833  0.41473  0.83060  1.0000
  C   C3341     1.0  0.95799  0.41871  0.91890  1.0000
  H   H5943     1.0  0.60255  0.02182  0.88518  1.0000
  H   H5944     1.0  0.69455  0.48615  0.86651  1.0000
  C   C3342     1.0  0.95925  0.43328  0.92310  1.0000
  H   H5945     1.0  0.70246  0.29814  0.79388  1.0000
  H   H5946     1.0  0.59988  0.27862  0.79014  1.0000
  C   C3343     1.0  0.76363  0.46071  0.79707  1.0000
  H   H5947     1.0  0.93566  0.46380  0.95784  1.0000
  C   C3344     1.0  0.65649  0.48849  0.83520  1.0000
  H   H5948     1.0  0.56014  0.01437  0.94252  1.0000
  C   C3345     1.0  0.60973  0.02480  0.97647  1.0000
  H   H5949     1.0  0.64077  0.46111  0.80021  1.0000
  H   H5950     1.0  0.95551  0.47758  0.97239  1.0000
  H   H5951     1.0  0.54380  0.31184  0.85037  1.0000
  C   C3346     1.0  0.54707  0.04383  0.97002  1.0000
  H   H5952     1.0  0.53605  0.08473  0.88733  1.0000
  H   H5953     1.0  0.53288  0.15053  0.87938  1.0000
  H   H5954     1.0  0.72952  0.47733  0.79898  1.0000
  H   H5955     1.0  0.64910  0.42805  0.80274  1.0000
  C   C3347     1.0  0.84625  0.43585  0.89887  1.0000
  C   C3348     1.0  0.85956  0.42295  0.89344  1.0000
  C   C3349     1.0  0.85709  0.41733  0.88328  1.0000
  C   C3350     1.0  0.84144  0.42470  0.87842  1.0000
  C   C3351     1.0  0.82860  0.43815  0.88352  1.0000
  C   C3352     1.0  0.83091  0.44358  0.89376  1.0000
  H   H5956     1.0  0.87139  0.41681  0.89738  1.0000
  H   H5957     1.0  0.86718  0.40698  0.87934  1.0000
  H   H5958     1.0  0.81684  0.44440  0.87961  1.0000
  H   H5959     1.0  0.82066  0.45370  0.89783  1.0000
  H   H5960     1.0  0.75440  0.47096  0.86687  1.0000
  C   C3353     1.0  0.51188  0.32765  0.80112  1.0000
  H   H5961     1.0  0.62438  0.42428  0.80049  1.0000
  H   H5962     1.0  0.60114  0.02239  0.90770  1.0000
  H   H5963     1.0  0.54782  0.29731  0.79622  1.0000
  H   H5964     1.0  0.94717  0.44242  0.92641  1.0000
  C   C3354     1.0  0.79000  0.48981  0.86959  1.0000
  H   H5965     1.0  0.55447  0.11552  0.87087  1.0000
  H   H5966     1.0  0.70368  0.45918  0.87889  1.0000
  H   H5967     1.0  0.51973  0.09187  0.92131  1.0000
  H   H5968     1.0  0.69442  0.36617  0.81293  1.0000
  C   C3355     1.0  0.98817  0.48091  0.90378  1.0000
  C   C3356     1.0  0.57215  0.12677  0.97030  1.0000
  C   C3357     1.0  0.88479  0.48629  0.87709  1.0000
  H   H5969     1.0  0.73538  0.44498  0.81191  1.0000
  C   C3358     1.0  0.62165  0.25423  0.80355  1.0000
  H   H5970     1.0  0.78074  0.46441  0.82103  1.0000
  H   H5971     1.0  0.57100  0.13164  0.96052  1.0000
  C   C3359     1.0  0.53229  0.15452  0.96320  1.0000
  H   H5972     1.0  0.54826  0.30080  0.86596  1.0000
  C   C3360     1.0  0.59354  0.01416  0.90568  1.0000
  C   C3361     1.0  0.58138  0.13560  0.89174  1.0000
  C   C3362     1.0  0.57301  0.15251  0.88603  1.0000
  C   C3363     1.0  0.57083  0.15598  0.87353  1.0000
  C   C3364     1.0  0.57677  0.14241  0.86678  1.0000
  C   C3365     1.0  0.58468  0.12537  0.87263  1.0000
  C   C3366     1.0  0.58692  0.12194  0.88510  1.0000
  H   H5973     1.0  0.56816  0.16291  0.89130  1.0000
  H   H5974     1.0  0.56443  0.16908  0.86917  1.0000
  H   H5975     1.0  0.58932  0.11486  0.86741  1.0000
  H   H5976     1.0  0.50878  0.24823  0.80118  1.0000
  H   H5977     1.0  0.89869  0.48426  0.96004  1.0000
  H   H5978     1.0  0.97280  0.44900  0.96755  1.0000
  H   H5979     1.0  0.97417  0.38331  0.95382  1.0000
  C   C3367     1.0  0.69355  0.45377  0.88689  1.0000
  H   H5980     1.0  0.52152  0.29158  0.81387  1.0000
  C   C3368     1.0  0.65959  0.43957  0.88210  1.0000
  C   C3369     1.0  0.64452  0.42955  0.88509  1.0000
  H   H5981     1.0  0.91161  0.48177  0.86502  1.0000
  C   C3370     1.0  0.62370  0.03776  0.94950  1.0000
  H   H5982     1.0  0.57885  0.38592  0.85002  1.0000
  H   H5983     1.0  0.68568  0.45633  0.86544  1.0000
  C   C3371     1.0  0.51652  0.15165  0.97434  1.0000
  C   C3372     1.0  0.51945  0.12797  0.88506  1.0000
  S   S768      1.0  0.50408  0.12372  0.93116  1.0000
  C   C3373     1.0  0.60330  0.25254  0.80264  1.0000
  H   H5984     1.0  0.69239  0.44132  0.88505  1.0000
  H   H5985     1.0  0.74810  0.28861  0.79850  1.0000
  H   H5986     1.0  0.66861  0.43687  0.87309  1.0000
  H   H5987     1.0  0.66688  0.43397  0.88992  1.0000
  H   H5988     1.0  0.63599  0.43044  0.89464  1.0000
  H   H5989     1.0  0.63595  0.43509  0.87797  1.0000
  H   H5990     1.0  0.65038  0.41534  0.88493  1.0000
  H   H5991     1.0  0.69208  0.44243  0.90703  1.0000
  H   H5992     1.0  0.78298  0.38860  0.79430  1.0000
  C   C3374     1.0  0.72845  0.48665  0.87417  1.0000
  H   H5993     1.0  0.55586  0.38804  0.85866  1.0000
  C   C3375     1.0  0.60960  0.00599  0.97533  1.0000
  H   H5994     1.0  0.94554  0.41793  0.95017  1.0000
  C   C3376     1.0  0.61099  0.07926  0.97668  1.0000
  H   H5995     1.0  0.51770  0.10164  0.86620  1.0000
  H   H5996     1.0  0.90767  0.43480  0.95688  1.0000
  S   S769      1.0  0.52256  0.33390  0.81071  1.0000
  H   H5997     1.0  0.59385  0.25508  0.81154  1.0000
  H   H5998     1.0  0.79642  0.48968  0.88710  1.0000
  N   N188      1.0  0.66007  0.41355  0.78760  1.0000
  H   H5999     1.0  0.54746  0.25023  0.79655  1.0000
  S   S770      1.0  0.74087  0.36328  0.79551  1.0000
  H   H6000     1.0  0.62827  0.48777  0.88964  1.0000
  H   H6001     1.0  0.73907  0.26898  0.80256  1.0000
  H   H6002     1.0  0.58131  0.01473  0.89031  1.0000
  H   H6003     1.0  0.65268  0.20115  0.80820  1.0000
  S   S771      1.0  0.56993  0.04804  0.93419  1.0000
  H   H6004     1.0  0.91953  0.48451  0.94305  1.0000
  H   H6005     1.0  0.50392  0.04303  0.96552  1.0000
  H   H6006     1.0  0.56488  0.26021  0.80953  1.0000
  C   C3377     1.0  0.70834  0.41995  0.80009  1.0000
  C   C3378     1.0  0.90394  0.43707  0.96641  1.0000
  S   S772      1.0  0.87044  0.45327  0.96152  1.0000
  C   C3379     1.0  0.54377  0.10794  0.87300  1.0000
  C   C3380     1.0  0.97627  0.43570  0.92324  1.0000
  C   C3381     1.0  0.59735  0.26538  0.79065  1.0000
  C   C3382     1.0  0.51221  0.10986  0.87350  1.0000
  H   H6007     1.0  0.50778  0.06485  0.96043  1.0000
  S   S773      1.0  0.59718  0.20203  0.79628  1.0000
  H   H6008     1.0  0.75907  0.45086  0.82172  1.0000
  H   H6009     1.0  0.96104  0.44607  0.98387  1.0000
  N   N189      1.0  0.61838  0.17878  0.87014  1.0000
  C   C3383     1.0  0.62534  0.18057  0.85603  1.0000
  C   C3384     1.0  0.61717  0.15968  0.87598  1.0000
  C   C3385     1.0  0.59945  0.18985  0.87223  1.0000
  C   C3386     1.0  0.62964  0.18500  0.87630  1.0000
  C   C3387     1.0  0.65016  0.18219  0.87058  1.0000
  C   C3388     1.0  0.62477  0.19984  0.84817  1.0000
  C   C3389     1.0  0.58994  0.19082  0.88617  1.0000
  C   C3390     1.0  0.63507  0.14570  0.87537  1.0000
  H   H6010     1.0  0.62437  0.12428  0.87368  1.0000
  C   C3391     1.0  0.66012  0.18595  0.87915  1.0000
  C   C3392     1.0  0.63743  0.20030  0.83520  1.0000
  C   C3393     1.0  0.57093  0.20227  0.88684  1.0000
  H   H6011     1.0  0.61743  0.17456  0.85211  1.0000
  H   H6012     1.0  0.63930  0.17291  0.85383  1.0000
  H   H6013     1.0  0.61078  0.15793  0.88621  1.0000
  H   H6014     1.0  0.60835  0.15566  0.87151  1.0000
  H   H6015     1.0  0.59074  0.18525  0.86800  1.0000
  H   H6016     1.0  0.59926  0.20390  0.86730  1.0000
  H   H6017     1.0  0.62498  0.19953  0.87591  1.0000
  H   H6018     1.0  0.62761  0.17865  0.88659  1.0000
  H   H6019     1.0  0.65285  0.19138  0.86125  1.0000
  H   H6020     1.0  0.65623  0.16860  0.86908  1.0000
  H   H6021     1.0  0.61101  0.20597  0.84653  1.0000
  H   H6022     1.0  0.62834  0.20821  0.85312  1.0000
  H   H6023     1.0  0.59739  0.19684  0.89038  1.0000
  H   H6024     1.0  0.58874  0.17765  0.89227  1.0000
  H   H6025     1.0  0.64333  0.14666  0.86563  1.0000
  C   C3394     1.0  0.97010  0.39796  0.95217  1.0000
  H   H6026     1.0  0.61090  0.00554  0.96535  1.0000
  H   H6027     1.0  0.74568  0.46358  0.88361  1.0000
  H   H6028     1.0  0.64472  0.11713  0.87965  1.0000
  H   H6029     1.0  0.67466  0.18434  0.87470  1.0000
  H   H6030     1.0  0.65489  0.19975  0.88060  1.0000
  H   H6031     1.0  0.65858  0.17654  0.88849  1.0000
  H   H6032     1.0  0.65165  0.19581  0.83618  1.0000
  H   H6033     1.0  0.63449  0.19162  0.83016  1.0000
  H   H6034     1.0  0.63551  0.21407  0.82944  1.0000
  H   H6035     1.0  0.56421  0.20250  0.89687  1.0000
  H   H6036     1.0  0.57135  0.21610  0.88156  1.0000
  H   H6037     1.0  0.56284  0.19682  0.88273  1.0000
  H   H6038     1.0  0.51655  0.02028  0.88042  1.0000
  C   C3395     1.0  0.68904  0.48362  0.85927  1.0000
  H   H6039     1.0  0.60220  0.09064  0.97160  1.0000
  H   H6040     1.0  0.93542  0.46903  0.97883  1.0000
  C   C3396     1.0  0.83835  0.46820  0.85097  1.0000
  H   H6041     1.0  0.58096  0.14956  0.97133  1.0000
  H   H6042     1.0  0.51455  0.14601  0.86260  1.0000
  C   C3397     1.0  0.63151  0.00577  0.91658  1.0000
  H   H6043     1.0  0.71904  0.39584  0.79342  1.0000
  C   C3398     1.0  0.61396  0.06285  0.97133  1.0000
  H   H6044     1.0  0.69157  0.38979  0.79408  1.0000
  H   H6045     1.0  0.52174  0.05728  0.93885  1.0000
  H   H6046     1.0  0.98105  0.47390  0.90006  1.0000
  H   H6047     1.0  0.62362  0.19216  0.81176  1.0000
  Fe  Fe388     1.0  0.77067  0.35462  0.79405  1.0000
  H   H6048     1.0  0.67864  0.47980  0.88900  1.0000
  H   H6049     1.0  0.68207  0.34103  0.78687  1.0000
  H   H6050     1.0  0.80697  0.47775  0.81529  1.0000
  C   C3399     1.0  0.63171  0.12688  0.87991  1.0000
  H   H6051     1.0  0.52757  0.16520  0.95542  1.0000
  H   H6052     1.0  0.50654  0.26863  0.78936  1.0000
  C   C3400     1.0  0.53230  0.13825  0.88685  1.0000
  C   C3401     1.0  0.60328  0.04259  0.95523  1.0000
  H   H6053     1.0  0.91117  0.47813  0.88164  1.0000
  C   C3402     1.0  0.56469  0.08136  0.88344  1.0000
  H   H6054     1.0  0.51516  0.03604  0.94442  1.0000
  H   H6055     1.0  0.54396  0.09912  0.89338  1.0000
  H   H6056     1.0  0.64219  0.04097  0.93120  1.0000
  H   H6057     1.0  0.64280  0.14732  0.88174  1.0000
  H   H6058     1.0  0.71680  0.48403  0.88194  1.0000
  H   H6059     1.0  0.58994  0.05519  0.98405  1.0000
  C   C3403     1.0  0.53044  0.14657  0.83812  1.0000
  H   H6060     1.0  0.95666  0.47011  0.95135  1.0000
  C   C3404     1.0  0.56758  0.11061  0.97704  1.0000
  C   C3405     1.0  0.73002  0.43793  0.83208  1.0000
  H   H6061     1.0  0.72684  0.44422  0.84028  1.0000
  H   H6062     1.0  0.71874  0.43182  0.83261  1.0000
  H   H6063     1.0  0.74242  0.42736  0.83249  1.0000
  N   N190      1.0  0.79029  0.40715  0.91193  1.0000
  C   C3406     1.0  0.79505  0.40590  0.92433  1.0000
  C   C3407     1.0  0.77318  0.40064  0.91464  1.0000
  C   C3408     1.0  0.80575  0.39613  0.90423  1.0000
  C   C3409     1.0  0.78725  0.42597  0.90446  1.0000
  C   C3410     1.0  0.77295  0.43977  0.91130  1.0000
  C   C3411     1.0  0.81053  0.41494  0.92350  1.0000
  C   C3412     1.0  0.80272  0.39431  0.89159  1.0000
  C   C3413     1.0  0.77451  0.38053  0.92031  1.0000
  C   C3414     1.0  0.75640  0.37560  0.92250  1.0000
  C   C3415     1.0  0.77296  0.45858  0.90337  1.0000
  C   C3416     1.0  0.81435  0.41244  0.93658  1.0000
  C   C3417     1.0  0.81785  0.38038  0.88592  1.0000
  H   H6064     1.0  0.79913  0.39176  0.92903  1.0000
  H   H6065     1.0  0.78309  0.41143  0.93112  1.0000
  H   H6066     1.0  0.76253  0.40772  0.92141  1.0000
  H   H6067     1.0  0.76765  0.40403  0.90593  1.0000
  H   H6068     1.0  0.80983  0.38263  0.91000  1.0000
  H   H6069     1.0  0.81790  0.40192  0.90156  1.0000
  H   H6070     1.0  0.80003  0.43060  0.90112  1.0000
  H   H6071     1.0  0.78282  0.42663  0.89574  1.0000
  H   H6072     1.0  0.77547  0.43942  0.92060  1.0000
  H   H6073     1.0  0.75933  0.43723  0.91279  1.0000
  H   H6074     1.0  0.82317  0.40924  0.91741  1.0000
  H   H6075     1.0  0.80712  0.42942  0.91962  1.0000
  H   H6076     1.0  0.80262  0.40712  0.88462  1.0000
  H   H6077     1.0  0.78991  0.39034  0.89276  1.0000
  H   H6078     1.0  0.78435  0.37243  0.91385  1.0000
  H   H6079     1.0  0.77863  0.37677  0.92954  1.0000
  H   H6080     1.0  0.75194  0.37875  0.91340  1.0000
  H   H6081     1.0  0.75765  0.36115  0.92652  1.0000
  H   H6082     1.0  0.74604  0.38291  0.92925  1.0000
  H   H6083     1.0  0.77045  0.45981  0.89388  1.0000
  H   H6084     1.0  0.76227  0.46823  0.90820  1.0000
  H   H6085     1.0  0.78609  0.46204  0.90218  1.0000
  H   H6086     1.0  0.81857  0.39813  0.94077  1.0000
  H   H6087     1.0  0.82544  0.41904  0.93570  1.0000
  H   H6088     1.0  0.80229  0.41848  0.94301  1.0000
  H   H6089     1.0  0.81762  0.36700  0.89210  1.0000
  H   H6090     1.0  0.81615  0.38019  0.87646  1.0000
  H   H6091     1.0  0.83113  0.38351  0.88472  1.0000
  N   N191      1.0  0.72989  0.36213  0.84637  1.0000
  C   C3418     1.0  0.73780  0.37101  0.83308  1.0000
  C   C3419     1.0  0.73685  0.34225  0.84846  1.0000
  C   C3420     1.0  0.70977  0.36592  0.84768  1.0000
  C   C3421     1.0  0.73361  0.36950  0.85622  1.0000
  C   C3422     1.0  0.75360  0.36720  0.85644  1.0000
  C   C3423     1.0  0.72934  0.39091  0.82878  1.0000
  C   C3424     1.0  0.69892  0.35584  0.85992  1.0000
  C   C3425     1.0  0.75636  0.33544  0.84151  1.0000
  C   C3426     1.0  0.76304  0.31571  0.84667  1.0000
  C   C3427     1.0  0.75565  0.37741  0.86545  1.0000
  C   C3428     1.0  0.74162  0.40005  0.81741  1.0000
  C   C3429     1.0  0.67896  0.36032  0.85958  1.0000
  H   H6092     1.0  0.73635  0.36415  0.82612  1.0000
  H   H6093     1.0  0.75245  0.36961  0.83162  1.0000
  H   H6094     1.0  0.73557  0.33633  0.85878  1.0000
  H   H6095     1.0  0.72848  0.33602  0.84513  1.0000
  H   H6096     1.0  0.70659  0.36304  0.83943  1.0000
  H   H6097     1.0  0.70396  0.38023  0.84749  1.0000
  H   H6098     1.0  0.72712  0.38378  0.85540  1.0000
  H   H6099     1.0  0.72730  0.36311  0.86589  1.0000
  H   H6100     1.0  0.76153  0.37224  0.84704  1.0000
  H   H6101     1.0  0.75949  0.35300  0.85981  1.0000
  H   H6102     1.0  0.71669  0.39198  0.82592  1.0000
  H   H6103     1.0  0.72627  0.39836  0.83636  1.0000
  H   H6104     1.0  0.70003  0.35961  0.86843  1.0000
  H   H6105     1.0  0.70358  0.34126  0.86108  1.0000
  H   H6106     1.0  0.75670  0.33714  0.83130  1.0000
  H   H6107     1.0  0.76602  0.34264  0.84222  1.0000
  H   H6108     1.0  0.76370  0.31331  0.85677  1.0000
  H   H6109     1.0  0.75405  0.30784  0.84575  1.0000
  H   H6110     1.0  0.77675  0.31119  0.84117  1.0000
  H   H6111     1.0  0.74754  0.37351  0.87511  1.0000
  H   H6112     1.0  0.76998  0.37461  0.86604  1.0000
  H   H6113     1.0  0.75140  0.39187  0.86183  1.0000
  H   H6114     1.0  0.73459  0.41377  0.81391  1.0000
  H   H6115     1.0  0.75362  0.40084  0.82033  1.0000
  H   H6116     1.0  0.74575  0.39278  0.80961  1.0000
  H   H6117     1.0  0.67139  0.35318  0.86845  1.0000
  H   H6118     1.0  0.67338  0.37477  0.85880  1.0000
  H   H6119     1.0  0.67692  0.35633  0.85142  1.0000
  N   N192      1.0  0.58838  0.33071  0.85217  1.0000
  C   C3430     1.0  0.60229  0.32355  0.84153  1.0000
  C   C3431     1.0  0.57084  0.32505  0.85412  1.0000
  C   C3432     1.0  0.58476  0.35074  0.84823  1.0000
  C   C3433     1.0  0.59503  0.32527  0.86432  1.0000
  C   C3434     1.0  0.60052  0.30508  0.86952  1.0000
  C   C3435     1.0  0.62143  0.32694  0.83931  1.0000
  C   C3436     1.0  0.56969  0.36100  0.85738  1.0000
  C   C3437     1.0  0.57188  0.30668  0.85154  1.0000
  C   C3438     1.0  0.90442  0.47641  0.87469  1.0000
  H   H6120     1.0  0.61326  0.28672  0.88428  1.0000
  C   C3439     1.0  0.63373  0.32055  0.82761  1.0000
  C   C3440     1.0  0.56637  0.38096  0.85187  1.0000
  H   H6121     1.0  0.59749  0.32898  0.83249  1.0000
  H   H6122     1.0  0.60426  0.30897  0.84305  1.0000
  H   H6123     1.0  0.56283  0.32545  0.86390  1.0000
  H   H6124     1.0  0.56224  0.33465  0.84778  1.0000
  H   H6125     1.0  0.58119  0.35512  0.83873  1.0000
  H   H6126     1.0  0.59695  0.35582  0.84715  1.0000
  H   H6127     1.0  0.60649  0.33149  0.86329  1.0000
  H   H6128     1.0  0.58450  0.33044  0.87205  1.0000
  H   H6129     1.0  0.60981  0.29812  0.86220  1.0000
  H   H6130     1.0  0.58835  0.29935  0.87322  1.0000
  H   H6131     1.0  0.62128  0.34113  0.83787  1.0000
  H   H6132     1.0  0.62764  0.31966  0.84753  1.0000
  H   H6133     1.0  0.57354  0.35887  0.86656  1.0000
  H   H6134     1.0  0.55677  0.35687  0.85921  1.0000
  H   H6135     1.0  0.57647  0.30711  0.84124  1.0000
  S   S774      1.0  0.72319  0.32319  0.79326  1.0000
  H   H6136     1.0  0.98285  0.48644  0.97477  1.0000
  C   C3441     1.0  0.99771  0.40641  0.97295  1.0000
  H   H6137     1.0  0.66864  0.47126  0.85823  1.0000
  C   C3442     1.0  0.55349  0.30179  0.85562  1.0000
  H   H6138     1.0  0.58132  0.29588  0.85643  1.0000
  C   C3443     1.0  0.68166  0.37032  0.80953  1.0000
  H   H6139     1.0  0.64718  0.32349  0.82607  1.0000
  H   H6140     1.0  0.63535  0.30601  0.82890  1.0000
  H   H6141     1.0  0.62812  0.32739  0.81905  1.0000
  H   H6142     1.0  0.59697  0.03475  0.95154  1.0000
  H   H6143     1.0  0.64280  0.46057  0.89066  1.0000
  H   H6144     1.0  0.56166  0.38405  0.84289  1.0000
  C   C3444     1.0  0.65177  0.45964  0.88125  1.0000
  S   S775      1.0  0.78036  0.49070  0.84748  1.0000
  H   H6145     1.0  0.62413  0.05997  0.93320  1.0000
  H   H6146     1.0  0.70328  0.41338  0.80962  1.0000
  H   H6147     1.0  0.66204  0.32417  0.79046  1.0000
  C   C3445     1.0  0.58980  0.02213  0.89241  1.0000
  H   H6148     1.0  0.54688  0.99823  0.93263  1.0000
  H   H6149     1.0  0.56044  0.22028  0.79298  1.0000
  C   C3446     1.0  0.74209  0.46907  0.87421  1.0000
  H   H6150     1.0  0.88336  0.48534  0.85822  1.0000
  H   H6151     1.0  0.65103  0.39713  0.80581  1.0000
  C   C3447     1.0  0.54590  0.09327  0.88511  1.0000
  C   C3448     1.0  0.79447  0.48564  0.81213  1.0000
  H   H6152     1.0  0.53455  0.14254  0.82886  1.0000
  C   C3449     1.0  0.99395  0.37702  0.97192  1.0000
  C   C3450     1.0  0.95933  0.44975  0.97395  1.0000
  C   C3451     1.0  0.57897  0.03581  0.97342  1.0000
  C   C3452     1.0  0.91652  0.43098  0.97418  1.0000
  H   H6153     1.0  0.56590  0.07093  0.89216  1.0000
  C   C3453     1.0  0.67971  0.38950  0.80200  1.0000
  C   C3454     1.0  0.94419  0.48892  0.93040  1.0000
  H   H6154     1.0  0.50970  0.04495  0.98398  1.0000
  H   H6155     1.0  0.55007  0.03490  0.96334  1.0000
  H   H6156     1.0  0.73634  0.45929  0.87208  1.0000
  C   C3455     1.0  0.67537  0.46753  0.88825  1.0000
  H   H6157     1.0  0.90970  0.47182  0.97266  1.0000
  C   C3456     1.0  0.51465  0.00656  0.88199  1.0000
  C   C3457     1.0  0.56358  0.05093  0.96902  1.0000
  H   H6158     1.0  0.61980  0.04044  0.93049  1.0000
  H   H6159     1.0  0.87421  0.46922  0.87090  1.0000
  C   C3458     1.0  0.64451  0.20640  0.80117  1.0000
  C   C3459     1.0  0.97617  0.37223  0.98061  1.0000
  H   H6160     1.0  0.62381  0.02643  0.97347  1.0000
  C   C3460     1.0  0.70634  0.43831  0.79703  1.0000
  C   C3461     1.0  0.87472  0.48353  0.86794  1.0000
  H   H6161     1.0  0.53831  0.14218  0.95955  1.0000
  H   H6162     1.0  0.54721  0.10105  0.86502  1.0000
  H   H6163     1.0  0.83961  0.45382  0.85179  1.0000
  C   C3462     1.0  0.66186  0.39618  0.79722  1.0000
  H   H6164     1.0  0.68016  0.39785  0.80829  1.0000
  C   C3463     1.0  0.51076  0.05032  0.94025  1.0000
  H   H6165     1.0  0.83341  0.48661  0.94577  1.0000
  N   N193      1.0  0.59748  0.03993  0.96949  1.0000
  H   H6166     1.0  0.53597  0.05506  0.96758  1.0000
  H   H6167     1.0  0.60099  0.30764  0.88830  1.0000
  C   C3464     1.0  0.52689  0.13531  0.86187  1.0000
  S   S776      1.0  0.51449  0.21623  0.82522  1.0000
  H   H6168     1.0  0.52110  0.12296  0.84838  1.0000
  H   H6169     1.0  0.60428  0.23863  0.80236  1.0000
  C   C3465     1.0  0.97523  0.40541  0.96183  1.0000
  C   C3466     1.0  0.88169  0.44830  0.98354  1.0000
  H   H6170     1.0  0.54271  0.15846  0.96614  1.0000
  H   H6171     1.0  0.64288  0.46413  0.87426  1.0000
  C   C3467     1.0  0.88645  0.44567  0.97109  1.0000
  C   C3468     1.0  0.65027  0.21840  0.79011  1.0000
  H   H6172     1.0  0.57911  0.23926  0.79697  1.0000
  H   H6173     1.0  0.62256  0.30622  0.87728  1.0000
  C   C3469     1.0  0.62544  0.41609  0.79371  1.0000
  N   N194      1.0  0.52556  0.12029  0.87336  1.0000
  C   C3470     1.0  0.61777  0.20788  0.79396  1.0000
  H   H6174     1.0  0.62055  0.26727  0.80563  1.0000
  C   C3471     1.0  0.56609  0.27230  0.80191  1.0000
  H   H6175     1.0  0.61932  0.06670  0.96102  1.0000
  C   C3472     1.0  0.71740  0.40999  0.79091  1.0000
  C   C3473     1.0  0.55533  0.02098  0.93398  1.0000
  C   C3474     1.0  0.54690  0.28354  0.80128  1.0000
  H   H6176     1.0  0.94700  0.39788  0.94533  1.0000
  C   C3475     1.0  0.67698  0.46979  0.86515  1.0000
  H   H6177     1.0  0.90536  0.46201  0.87584  1.0000
  H   H6178     1.0  0.98291  0.47928  0.91416  1.0000
  C   C3476     1.0  0.62813  0.20133  0.80319  1.0000
  H   H6179     1.0  0.64215  0.28478  0.79683  1.0000
  C   C3477     1.0  0.75147  0.27429  0.79835  1.0000
  H   H6180     1.0  0.67234  0.42558  0.79724  1.0000
  C   C3478     1.0  0.55721  0.24900  0.78748  1.0000
  H   H6181     1.0  0.62648  0.24366  0.81135  1.0000
  H   H6182     1.0  0.65083  0.29729  0.80398  1.0000
  C   C3479     1.0  0.65968  0.42810  0.79391  1.0000
  H   H6183     1.0  0.51207  0.18921  0.84852  1.0000
  C   C3480     1.0  0.60990  0.30126  0.88052  1.0000
  H   H6184     1.0  0.96426  0.40530  0.97042  1.0000
  H   H6185     1.0  0.52443  0.99734  0.88752  1.0000
  H   H6186     1.0  0.50685  0.25951  0.82775  1.0000
  C   C3481     1.0  0.58919  0.99297  0.95371  1.0000
  H   H6187     1.0  0.77361  0.44967  0.80139  1.0000
  C   C3482     1.0  0.65205  0.29312  0.79507  1.0000
  H   H6188     1.0  0.50795  0.05142  0.93086  1.0000
  H   H6189     1.0  0.65241  0.99803  0.92752  1.0000
  H   H6190     1.0  0.53489  0.27063  0.82021  1.0000
  H   H6191     1.0  0.59807  0.05659  0.95075  1.0000
  H   H6192     1.0  0.62376  0.12491  0.88980  1.0000
  H   H6193     1.0  0.52067  0.26456  0.84330  1.0000
  H   H6194     1.0  0.92994  0.42416  0.97063  1.0000
  S   S777      1.0  0.53350  0.00880  0.90952  1.0000
  N   N195      1.0  0.66500  0.47153  0.87793  1.0000
  H   H6195     1.0  0.67042  0.36896  0.81787  1.0000
  H   H6196     1.0  0.54096  0.29119  0.81943  1.0000
  C   C3483     1.0  0.59618  0.05666  0.97374  1.0000
  C   C3484     1.0  0.57783  0.13685  0.97641  1.0000
  H   H6197     1.0  0.58239  0.03613  0.89189  1.0000
  H   H6198     1.0  0.70302  0.46112  0.90091  1.0000
  C   C3485     1.0  0.52078  0.32438  0.78913  1.0000
  H   H6199     1.0  0.51098  0.24525  0.84946  1.0000
  H   H6200     1.0  0.94827  0.48875  0.91049  1.0000
  H   H6201     1.0  0.95028  0.47451  0.93234  1.0000
  H   H6202     1.0  0.66571  0.28496  0.79239  1.0000
  C   C3486     1.0  0.55711  0.03846  0.92837  1.0000
  H   H6203     1.0  0.95268  0.44007  0.97260  1.0000
  H   H6204     1.0  0.66681  0.46306  0.89765  1.0000
  H   H6205     1.0  0.55949  0.06068  0.97519  1.0000
  H   H6206     1.0  0.62999  0.01385  0.90705  1.0000
  H   H6207     1.0  0.57503  0.08921  0.88172  1.0000
  C   C3487     1.0  0.54768  0.01190  0.92844  1.0000
  C   C3488     1.0  0.54999  0.04734  0.91767  1.0000
  H   H6208     1.0  0.62847  0.02315  0.95106  1.0000
  H   H6209     1.0  0.65225  0.01894  0.91631  1.0000
  H   H6210     1.0  0.54462  0.12158  0.84709  1.0000
  H   H6211     1.0  0.55469  0.28873  0.85346  1.0000
  C   C3489     1.0  0.73778  0.48503  0.80107  1.0000
  H   H6212     1.0  0.53782  0.14186  0.86143  1.0000
  C   C3490     1.0  0.94792  0.46848  0.97139  1.0000
  H   H6213     1.0  0.71411  0.46588  0.85294  1.0000
  H   H6214     1.0  0.55092  0.06097  0.91347  1.0000
  H   H6215     1.0  0.51682  0.11748  0.89373  1.0000
  H   H6216     1.0  0.52806  0.12428  0.98095  1.0000
  H   H6217     1.0  0.51207  0.15174  0.90070  1.0000
  H   H6218     1.0  0.53982  0.15452  0.83834  1.0000
  C   C3491     1.0  0.52603  0.14376  0.89958  1.0000
  C   C3492     1.0  0.60859  0.42315  0.78817  1.0000
  H   H6219     1.0  0.54607  0.13005  0.88657  1.0000
  H   H6220     1.0  0.50619  0.14870  0.97070  1.0000
  N   N196      1.0  0.57812  0.26729  0.78985  1.0000
  H   H6221     1.0  0.63186  0.04283  0.95373  1.0000
  C   C3493     1.0  0.62766  0.04523  0.93522  1.0000
  H   H6222     1.0  0.58714  0.06804  0.96884  1.0000
  H   H6223     1.0  0.56727  0.07479  0.87540  1.0000
  H   H6224     1.0  0.57501  0.03198  0.98390  1.0000
  H   H6225     1.0  0.84299  0.47431  0.84087  1.0000
  H   H6226     1.0  0.84702  0.47667  0.88485  1.0000
  H   H6227     1.0  0.66072  0.99858  0.91072  1.0000
  C   C3494     1.0  0.99195  0.42373  0.91896  1.0000
  H   H6228     1.0  0.62405  0.08291  0.97536  1.0000
  H   H6229     1.0  0.50630  0.13739  0.88493  1.0000
  H   H6230     1.0  0.98627  0.34362  0.98307  1.0000
  C   C3495     1.0  0.98813  0.47823  0.98320  1.0000
  H   H6231     1.0  0.83866  0.48072  0.90700  1.0000
  N   N197      1.0  0.75359  0.47275  0.80616  1.0000
  C   C3496     1.0  0.99053  0.40947  0.91466  1.0000
  H   H6232     1.0  0.75432  0.45405  0.79515  1.0000
  C   C3497     1.0  0.84968  0.47068  0.85918  1.0000
  H   H6233     1.0  0.83686  0.49006  0.96006  1.0000
  H   H6234     1.0  0.59649  0.42189  0.79591  1.0000
  H   H6235     1.0  0.74291  0.46915  0.82645  1.0000
  H   H6236     1.0  0.69965  0.47443  0.84157  1.0000
  H   H6237     1.0  0.63808  0.99469  0.97489  1.0000
  C   C3498     1.0  0.65387  0.46110  0.79336  1.0000
  H   H6238     1.0  0.59684  0.00212  0.98097  1.0000
  H   H6239     1.0  0.99780  0.42033  0.96764  1.0000
  Fe  Fe389     1.0  0.74355  0.34059  0.78658  1.0000
  H   H6240     1.0  0.51097  0.16434  0.97755  1.0000
  H   H6241     1.0  0.62411  0.05244  0.97585  1.0000
  H   H6242     1.0  0.88427  0.48985  0.93160  1.0000
  H   H6243     1.0  0.51751  0.00298  0.87265  1.0000
  C   C3499     1.0  0.59718  0.99213  0.93038  1.0000
  H   H6244     1.0  0.66467  0.45863  0.79857  1.0000
  H   H6245     1.0  0.63167  0.25299  0.79458  1.0000
  H   H6246     1.0  0.98544  0.46477  0.98506  1.0000
  C   C3500     1.0  0.50782  0.25995  0.84645  1.0000
  H   H6247     1.0  0.61444  0.99309  0.89869  1.0000
  H   H6248     1.0  0.63442  0.31675  0.78761  1.0000
  H   H6249     1.0  0.82395  0.47418  0.85416  1.0000
  C   C3501     1.0  0.50637  0.09702  0.91953  1.0000
  H   H6250     1.0  0.51664  0.15491  0.83889  1.0000
  H   H6251     1.0  0.72012  0.49050  0.81927  1.0000
  C   C3502     1.0  0.84926  0.49055  0.85777  1.0000
  H   H6252     1.0  0.64241  0.35101  0.78608  1.0000
  C   C3503     1.0  0.52259  0.13622  0.98514  1.0000
  C   C3504     1.0  0.65765  0.44711  0.78555  1.0000
  C   C3505     1.0  0.65430  0.49044  0.87661  1.0000
  H   H6253     1.0  0.85456  0.49085  0.94615  1.0000
  C   C3506     1.0  0.64014  0.49072  0.84396  1.0000
  H   H6254     1.0  0.87680  0.62602  0.13466  1.0000
  Fe  Fe390     1.0  0.57102  0.97297  0.00255  1.0000
  S   S778      1.0  0.78747  0.49772  0.13396  1.0000
  S   S779      1.0  0.59128  0.95646  0.98953  1.0000
  Fe  Fe391     1.0  0.55325  0.97346  0.03026  1.0000
  C   C3507     1.0  0.94084  0.62719  0.99818  1.0000
  S   S780      1.0  0.54629  0.95732  0.05015  1.0000
  H   H6255     1.0  0.56157  0.74191  0.11036  1.0000
  C   C3508     1.0  0.74145  0.54776  0.11165  1.0000
  H   H6256     1.0  0.67204  0.91493  0.16693  1.0000
  H   H6257     1.0  0.89164  0.56132  0.00496  1.0000
  S   S781      1.0  0.54571  0.96554  0.01508  1.0000
  S   S782      1.0  0.58000  0.97830  0.01831  1.0000
  Fe  Fe392     1.0  0.93225  0.57992  0.02501  1.0000
  S   S783      1.0  0.94288  0.55511  0.03812  1.0000
  S   S784      1.0  0.93786  0.57634  0.00509  1.0000
  Fe  Fe393     1.0  0.91533  0.59937  0.04639  1.0000
  S   S785      1.0  0.92419  0.57590  0.06124  1.0000
  S   S786      1.0  0.89751  0.62476  0.05114  1.0000
  Fe  Fe394     1.0  0.95044  0.57291  0.04712  1.0000
  S   S787      1.0  0.97639  0.56361  0.05393  1.0000
  Fe  Fe395     1.0  0.91582  0.56056  0.05073  1.0000
  S   S788      1.0  0.90085  0.53870  0.05951  1.0000
  S   S789      1.0  0.94225  0.59755  0.03285  1.0000
  S   S790      1.0  0.90463  0.58422  0.03706  1.0000
  Fe  Fe396     1.0  0.60879  0.82635  0.09293  1.0000
  S   S791      1.0  0.58580  0.82569  0.10964  1.0000
  S   S792      1.0  0.63040  0.80243  0.08900  1.0000
  Fe  Fe397     1.0  0.59541  0.86561  0.08252  1.0000
  S   S793      1.0  0.57121  0.86808  0.09845  1.0000
  S   S794      1.0  0.60344  0.88782  0.06635  1.0000
  Fe  Fe398     1.0  0.59037  0.85143  0.11088  1.0000
  Fe  Fe399     1.0  0.56881  0.84210  0.09588  1.0000
  S   S795      1.0  0.61487  0.85092  0.09516  1.0000
  S   S796      1.0  0.59147  0.84088  0.07888  1.0000
  Fe  Fe400     1.0  0.82922  0.61333  0.11211  1.0000
  S   S797      1.0  0.82479  0.58642  0.12294  1.0000
  S   S798      1.0  0.85733  0.61721  0.10861  1.0000
  Fe  Fe401     1.0  0.79019  0.62692  0.11019  1.0000
  S   S799      1.0  0.78279  0.60113  0.12086  1.0000
  S   S800      1.0  0.76928  0.64927  0.10235  1.0000
  Fe  Fe402     1.0  0.79985  0.60151  0.13370  1.0000
  S   S801      1.0  0.79168  0.59305  0.15481  1.0000
  Fe  Fe403     1.0  0.80829  0.58883  0.10899  1.0000
  S   S802      1.0  0.81097  0.56733  0.09879  1.0000
  S   S803      1.0  0.80551  0.62832  0.12396  1.0000
  S   S804      1.0  0.81464  0.61468  0.09722  1.0000
  C   C3509     1.0  0.79498  0.51669  0.12432  1.0000
  S   S805      1.0  0.68787  0.64651  0.12725  1.0000
  H   H6258     1.0  0.86741  0.62676  0.15626  1.0000
  C   C3510     1.0  0.64067  0.68516  0.13828  1.0000
  C   C3511     1.0  0.65424  0.52818  0.15072  1.0000
  H   H6259     1.0  0.60798  0.64626  0.12181  1.0000
  C   C3512     1.0  0.79233  0.53161  0.12937  1.0000
  H   H6260     1.0  0.65211  0.85336  0.12458  1.0000
  C   C3513     1.0  0.65942  0.55567  0.15311  1.0000
  C   C3514     1.0  0.64758  0.54536  0.15307  1.0000
  H   H6261     1.0  0.65419  0.56875  0.15519  1.0000
  H   H6262     1.0  0.63323  0.55055  0.15511  1.0000
  H   H6263     1.0  0.64123  0.70251  0.15795  1.0000
  C   C3515     1.0  0.74686  0.64771  0.10932  1.0000
  C   C3516     1.0  0.73320  0.65878  0.10334  1.0000
  C   C3517     1.0  0.71519  0.65806  0.10881  1.0000
  C   C3518     1.0  0.71067  0.64637  0.12035  1.0000
  C   C3519     1.0  0.72432  0.63530  0.12634  1.0000
  C   C3520     1.0  0.74238  0.63601  0.12087  1.0000
  H   H6264     1.0  0.73657  0.66793  0.09445  1.0000
  H   H6265     1.0  0.70471  0.66670  0.10413  1.0000
  C   C3521     1.0  0.85958  0.57098  0.09135  1.0000
  S   S806      1.0  0.63918  0.51458  0.15232  1.0000
  C   C3522     1.0  0.80500  0.54787  0.10874  1.0000
  C   C3523     1.0  0.80800  0.53286  0.10374  1.0000
  C   C3524     1.0  0.79752  0.54713  0.12161  1.0000
  H   H6266     1.0  0.58004  0.72252  0.09548  1.0000
  H   H6267     1.0  0.79564  0.55855  0.12557  1.0000
  C   C3525     1.0  0.62402  0.85379  0.12693  1.0000
  H   H6268     1.0  0.62442  0.85707  0.11691  1.0000
  C   C3526     1.0  0.62673  0.78216  0.09911  1.0000
  C   C3527     1.0  0.62110  0.74950  0.11505  1.0000
  C   C3528     1.0  0.63171  0.75005  0.10281  1.0000
  C   C3529     1.0  0.63464  0.76633  0.09490  1.0000
  H   H6269     1.0  0.63763  0.73791  0.09942  1.0000
  H   H6270     1.0  0.64284  0.76670  0.08544  1.0000
  C   C3530     1.0  0.88593  0.62198  0.06705  1.0000
  C   C3531     1.0  0.86846  0.63184  0.07031  1.0000
  C   C3532     1.0  0.85938  0.63007  0.08307  1.0000
  C   C3533     1.0  0.86803  0.61890  0.09260  1.0000
  C   C3534     1.0  0.88558  0.60927  0.08934  1.0000
  C   C3535     1.0  0.89436  0.61056  0.07659  1.0000
  H   H6271     1.0  0.86189  0.64076  0.06298  1.0000
  H   H6272     1.0  0.84584  0.63762  0.08555  1.0000
  H   H6273     1.0  0.89230  0.60065  0.09669  1.0000
  H   H6274     1.0  0.90785  0.60309  0.07418  1.0000
  C   C3536     1.0  0.90262  0.51253  0.02780  1.0000
  C   C3537     1.0  0.90632  0.52940  0.02495  1.0000
  C   C3538     1.0  0.90616  0.53725  0.03470  1.0000
  C   C3539     1.0  0.90153  0.52858  0.04735  1.0000
  C   C3540     1.0  0.89726  0.51193  0.05022  1.0000
  C   C3541     1.0  0.89818  0.50375  0.04043  1.0000
  H   H6275     1.0  0.90993  0.53614  0.01519  1.0000
  H   H6276     1.0  0.90957  0.55005  0.03234  1.0000
  H   H6277     1.0  0.69341  0.90843  0.15665  1.0000
  C   C3542     1.0  0.56230  0.93828  0.05489  1.0000
  C   C3543     1.0  0.55728  0.92554  0.06575  1.0000
  C   C3544     1.0  0.56972  0.90989  0.06935  1.0000
  C   C3545     1.0  0.58729  0.90706  0.06219  1.0000
  C   C3546     1.0  0.59238  0.91998  0.05152  1.0000
  C   C3547     1.0  0.57994  0.93556  0.04788  1.0000
  H   H6278     1.0  0.54365  0.92764  0.07124  1.0000
  H   H6279     1.0  0.56568  0.90003  0.07762  1.0000
  H   H6280     1.0  0.60600  0.91791  0.04601  1.0000
  H   H6281     1.0  0.58397  0.94544  0.03963  1.0000
  H   H6282     1.0  0.54225  0.90926  0.99944  1.0000
  C   C3548     1.0  0.54383  0.84102  0.14940  1.0000
  H   H6283     1.0  0.00050  0.59900  0.99992  1.0000
  H   H6284     1.0  0.59586  0.70915  0.11346  1.0000
  H   H6285     1.0  0.68841  0.92456  0.17967  1.0000
  H   H6286     1.0  0.86642  0.52512  0.12857  1.0000
  C   C3549     1.0  0.69332  0.64785  0.18360  1.0000
  C   C3550     1.0  0.99725  0.60781  0.04159  1.0000
  C   C3551     1.0  0.98960  0.57914  0.05155  1.0000
  C   C3552     1.0  0.98674  0.59550  0.04308  1.0000
  C   C3553     1.0  0.52977  0.71034  0.14692  1.0000
  H   H6287     1.0  0.94001  0.50821  0.02642  1.0000
  H   H6288     1.0  0.69945  0.53781  0.18417  1.0000
  H   H6289     1.0  0.97646  0.59867  0.03769  1.0000
  H   H6290     1.0  0.63791  0.66582  0.18403  1.0000
  C   C3554     1.0  0.85922  0.58298  0.07828  1.0000
  H   H6291     1.0  0.94040  0.53195  0.00301  1.0000
  C   C3555     1.0  0.52306  0.84667  0.10039  1.0000
  C   C3556     1.0  0.51963  0.77835  0.09440  1.0000
  C   C3557     1.0  0.85585  0.63763  0.15856  1.0000
  H   H6292     1.0  0.54015  0.86079  0.11788  1.0000
  H   H6293     1.0  0.94205  0.61381  0.00452  1.0000
  C   C3558     1.0  0.79709  0.60098  0.17542  1.0000
  H   H6294     1.0  0.73920  0.54764  0.13099  1.0000
  H   H6295     1.0  0.86729  0.50981  0.11039  1.0000
  H   H6296     1.0  0.60303  0.71182  0.09027  1.0000
  H   H6297     1.0  0.55178  0.80471  0.14526  1.0000
  H   H6298     1.0  0.99669  0.55579  0.98973  1.0000
  H   H6299     1.0  0.61488  0.68272  0.10296  1.0000
  N   N198      1.0  0.73243  0.67689  0.14562  1.0000
  C   C3559     1.0  0.73710  0.66084  0.15585  1.0000
  C   C3560     1.0  0.73098  0.69337  0.15017  1.0000
  C   C3561     1.0  0.71493  0.67659  0.14277  1.0000
  C   C3562     1.0  0.74672  0.67667  0.13359  1.0000
  C   C3563     1.0  0.76594  0.67619  0.13480  1.0000
  C   C3564     1.0  0.74230  0.64269  0.15195  1.0000
  C   C3565     1.0  0.70560  0.69404  0.13484  1.0000
  C   C3566     1.0  0.71632  0.69616  0.16219  1.0000
  H   H6300     1.0  0.97504  0.56950  0.99436  1.0000
  C   C3567     1.0  0.77942  0.67465  0.12233  1.0000
  C   C3568     1.0  0.68938  0.69142  0.13119  1.0000
  H   H6301     1.0  0.72556  0.66010  0.16412  1.0000
  H   H6302     1.0  0.74823  0.66194  0.15971  1.0000
  H   H6303     1.0  0.74374  0.69306  0.15267  1.0000
  H   H6304     1.0  0.72905  0.70540  0.14248  1.0000
  H   H6305     1.0  0.70502  0.67292  0.15167  1.0000
  H   H6306     1.0  0.71701  0.66600  0.13752  1.0000
  H   H6307     1.0  0.74734  0.66535  0.12943  1.0000
  H   H6308     1.0  0.74326  0.68864  0.12620  1.0000
  H   H6309     1.0  0.77055  0.66484  0.14221  1.0000
  H   H6310     1.0  0.76639  0.68863  0.13710  1.0000
  H   H6311     1.0  0.96455  0.54067  0.00780  1.0000
  H   H6312     1.0  0.75536  0.64136  0.14507  1.0000
  H   H6313     1.0  0.71487  0.69880  0.12596  1.0000
  H   H6314     1.0  0.70070  0.70467  0.14031  1.0000
  H   H6315     1.0  0.70292  0.69554  0.16130  1.0000
  H   H6316     1.0  0.65150  0.89436  0.07549  1.0000
  H   H6317     1.0  0.73553  0.51716  0.16292  1.0000
  H   H6318     1.0  0.98218  0.66479  0.05598  1.0000
  H   H6319     1.0  0.93047  0.56325  0.98637  1.0000
  H   H6320     1.0  0.78001  0.66210  0.11975  1.0000
  H   H6321     1.0  0.77558  0.68592  0.11458  1.0000
  H   H6322     1.0  0.79302  0.67463  0.12330  1.0000
  H   H6323     1.0  0.68157  0.70443  0.12700  1.0000
  H   H6324     1.0  0.69389  0.68306  0.12404  1.0000
  H   H6325     1.0  0.68046  0.68491  0.13959  1.0000
  C   C3569     1.0  0.67278  0.52180  0.14778  1.0000
  C   C3570     1.0  0.84852  0.61071  0.14649  1.0000
  H   H6326     1.0  0.69823  0.93922  0.15170  1.0000
  C   C3571     1.0  0.83858  0.59580  0.14915  1.0000
  C   C3572     1.0  0.50389  0.73256  0.14155  1.0000
  H   H6327     1.0  0.82621  0.62463  0.15876  1.0000
  H   H6328     1.0  0.85892  0.60591  0.15224  1.0000
  H   H6329     1.0  0.85503  0.61292  0.13628  1.0000
  C   C3573     1.0  0.52123  0.86507  0.09799  1.0000
  H   H6330     1.0  0.84799  0.58395  0.14606  1.0000
  H   H6331     1.0  0.83277  0.59206  0.15943  1.0000
  H   H6332     1.0  0.82764  0.60006  0.14386  1.0000
  C   C3574     1.0  0.79375  0.63072  0.17834  1.0000
  C   C3575     1.0  0.50268  0.79442  0.13127  1.0000
  N   N199      1.0  0.85146  0.56977  0.03745  1.0000
  C   C3576     1.0  0.85582  0.58038  0.04504  1.0000
  C   C3577     1.0  0.85334  0.55047  0.04428  1.0000
  C   C3578     1.0  0.86503  0.57082  0.02498  1.0000
  C   C3579     1.0  0.83298  0.57724  0.03455  1.0000
  C   C3580     1.0  0.81704  0.57923  0.04600  1.0000
  C   C3581     1.0  0.85558  0.60024  0.03879  1.0000
  H   H6333     1.0  0.86951  0.54424  0.02101  1.0000
  C   C3582     1.0  0.84830  0.54643  0.05901  1.0000
  H   H6334     1.0  0.76804  0.53172  0.10614  1.0000
  C   C3583     1.0  0.79959  0.58905  0.04162  1.0000
  C   C3584     1.0  0.85766  0.61016  0.04800  1.0000
  Fe  Fe404     1.0  0.58163  0.71673  0.16964  1.0000
  H   H6335     1.0  0.86937  0.57415  0.04722  1.0000
  H   H6336     1.0  0.84654  0.58000  0.05440  1.0000
  S   S807      1.0  0.60301  0.73247  0.16046  1.0000
  H   H6337     1.0  0.86754  0.54322  0.04201  1.0000
  H   H6338     1.0  0.87891  0.56785  0.02667  1.0000
  C   C3585     1.0  0.52710  0.71958  0.10893  1.0000
  H   H6339     1.0  0.83254  0.59033  0.02781  1.0000
  H   H6340     1.0  0.82983  0.56871  0.02948  1.0000
  H   H6341     1.0  0.81909  0.58683  0.05220  1.0000
  H   H6342     1.0  0.54962  0.78443  0.13108  1.0000
  H   H6343     1.0  0.84595  0.61051  0.05612  1.0000
  H   H6344     1.0  0.84277  0.60704  0.03575  1.0000
  H   H6345     1.0  0.62288  0.84183  0.16303  1.0000
  C   C3586     1.0  0.96751  0.50577  0.01531  1.0000
  H   H6346     1.0  0.85897  0.54871  0.06273  1.0000
  H   H6347     1.0  0.82650  0.54300  0.13631  1.0000
  H   H6348     1.0  0.83550  0.55492  0.06279  1.0000
  H   H6349     1.0  0.80548  0.50572  0.10760  1.0000
  H   H6350     1.0  0.67188  0.86849  0.08533  1.0000
  H   H6351     1.0  0.79651  0.58185  0.03555  1.0000
  H   H6352     1.0  0.78831  0.58998  0.05000  1.0000
  H   H6353     1.0  0.80059  0.60272  0.03624  1.0000
  H   H6354     1.0  0.86210  0.51145  0.03711  1.0000
  H   H6355     1.0  0.87014  0.60377  0.05160  1.0000
  H   H6356     1.0  0.85851  0.62403  0.04308  1.0000
  C   C3587     1.0  0.54246  0.80804  0.13880  1.0000
  H   H6357     1.0  0.75144  0.51600  0.14817  1.0000
  C   C3588     1.0  0.89720  0.60808  0.98869  1.0000
  N   N200      1.0  0.73872  0.57501  0.12118  1.0000
  H   H6358     1.0  0.51390  0.92615  0.03559  1.0000
  H   H6359     1.0  0.58088  0.93649  0.01425  1.0000
  C   C3589     1.0  0.73662  0.57817  0.13425  1.0000
  C   C3590     1.0  0.75219  0.58530  0.11220  1.0000
  C   C3591     1.0  0.75480  0.58636  0.09789  1.0000
  H   H6360     1.0  0.75271  0.62792  0.12582  1.0000
  C   C3592     1.0  0.75275  0.56920  0.14081  1.0000
  H   H6361     1.0  0.88068  0.66130  0.11573  1.0000
  C   C3593     1.0  0.58112  0.88846  0.99413  1.0000
  C   C3594     1.0  0.76586  0.60015  0.09007  1.0000
  H   H6362     1.0  0.61605  0.91285  0.02124  1.0000
  C   C3595     1.0  0.75011  0.57551  0.15300  1.0000
  H   H6363     1.0  0.59619  0.89615  0.01640  1.0000
  C   C3596     1.0  0.88211  0.64667  0.11833  1.0000
  H   H6364     1.0  0.76013  0.55158  0.12128  1.0000
  H   H6365     1.0  0.64141  0.66242  0.10922  1.0000
  H   H6366     1.0  0.94828  0.52769  0.02387  1.0000
  H   H6367     1.0  0.73399  0.59262  0.13396  1.0000
  H   H6368     1.0  0.74891  0.59911  0.11368  1.0000
  H   H6369     1.0  0.76575  0.57939  0.11431  1.0000
  H   H6370     1.0  0.74188  0.59018  0.09480  1.0000
  H   H6371     1.0  0.76243  0.57340  0.09559  1.0000
  C   C3597     1.0  0.57402  0.66319  0.15580  1.0000
  H   H6372     1.0  0.72057  0.60965  0.11054  1.0000
  H   H6373     1.0  0.76547  0.57221  0.13462  1.0000
  H   H6374     1.0  0.75426  0.55458  0.14335  1.0000
  H   H6375     1.0  0.58261  0.68617  0.13350  1.0000
  H   H6376     1.0  0.74282  0.55659  0.10216  1.0000
  C   C3598     1.0  0.61638  0.78156  0.11141  1.0000
  N   N201      1.0  0.60768  0.67276  0.12320  1.0000
  C   C3599     1.0  0.61902  0.68328  0.12581  1.0000
  H   H6377     1.0  0.76807  0.60036  0.07984  1.0000
  H   H6378     1.0  0.75872  0.61361  0.09168  1.0000
  H   H6379     1.0  0.77917  0.59688  0.09262  1.0000
  H   H6380     1.0  0.58302  0.92020  0.02843  1.0000
  H   H6381     1.0  0.60786  0.93620  0.02100  1.0000
  H   H6382     1.0  0.85396  0.55594  0.11535  1.0000
  H   H6383     1.0  0.74925  0.59004  0.15090  1.0000
  H   H6384     1.0  0.73767  0.57236  0.15976  1.0000
  H   H6385     1.0  0.76174  0.56881  0.15755  1.0000
  H   H6386     1.0  0.88203  0.64463  0.13776  1.0000
  H   H6387     1.0  0.92801  0.54057  0.08683  1.0000
  H   H6388     1.0  0.71536  0.50362  0.16296  1.0000
  H   H6389     1.0  0.51458  0.88788  0.11808  1.0000
  H   H6390     1.0  0.58934  0.92518  0.09477  1.0000
  H   H6391     1.0  0.89058  0.50836  0.09142  1.0000
  H   H6392     1.0  0.54142  0.85453  0.15126  1.0000
  H   H6393     1.0  0.67799  0.50897  0.14548  1.0000
  H   H6394     1.0  0.51497  0.85545  0.06527  1.0000
  C   C3600     1.0  0.75214  0.75064  0.16916  1.0000
  H   H6395     1.0  0.74999  0.52405  0.10391  1.0000
  H   H6396     1.0  0.83994  0.62069  0.17406  1.0000
  H   H6397     1.0  0.63100  0.94924  0.05667  1.0000
  H   H6398     1.0  0.61846  0.91508  0.07062  1.0000
  H   H6399     1.0  0.51242  0.72082  0.11281  1.0000
  H   H6400     1.0  0.96931  0.62518  0.99230  1.0000
  H   H6401     1.0  0.51825  0.96693  0.00457  1.0000
  C   C3601     1.0  0.95776  0.62805  0.98766  1.0000
  H   H6402     1.0  0.62049  0.80537  0.18110  1.0000
  H   H6403     1.0  0.55724  0.83933  0.14283  1.0000
  H   H6404     1.0  0.61805  0.49836  0.17886  1.0000
  C   C3602     1.0  0.95709  0.50654  0.03875  1.0000
  H   H6405     1.0  0.73008  0.50487  0.14197  1.0000
  H   H6406     1.0  0.65999  0.52889  0.17548  1.0000
  H   H6407     1.0  0.70880  0.60430  0.12677  1.0000
  H   H6408     1.0  0.98078  0.50420  0.01762  1.0000
  C   C3603     1.0  0.71279  0.86299  0.18240  1.0000
  C   C3604     1.0  0.81612  0.66747  0.14360  1.0000
  H   H6409     1.0  0.68265  0.50077  0.17186  1.0000
  H   H6410     1.0  0.51513  0.86680  0.14339  1.0000
  H   H6411     1.0  0.98701  0.52966  0.00296  1.0000
  C   C3605     1.0  0.62150  0.92188  0.07700  1.0000
  C   C3606     1.0  0.74908  0.51045  0.15853  1.0000
  H   H6412     1.0  0.64693  0.72161  0.16018  1.0000
  H   H6413     1.0  0.52991  0.68365  0.14617  1.0000
  H   H6414     1.0  0.63586  0.92452  0.09409  1.0000
  C   C3607     1.0  0.74540  0.55534  0.12171  1.0000
  C   C3608     1.0  0.59371  0.67404  0.18251  1.0000
  C   C3609     1.0  0.71170  0.60110  0.11733  1.0000
  C   C3610     1.0  0.72349  0.76835  0.17791  1.0000
  H   H6415     1.0  0.56465  0.87885  0.03429  1.0000
  C   C3611     1.0  0.56283  0.75596  0.10762  1.0000
  C   C3612     1.0  0.98127  0.50546  0.99300  1.0000
  H   H6416     1.0  0.50498  0.77896  0.09827  1.0000
  C   C3613     1.0  0.53803  0.93617  0.98914  1.0000
  C   C3614     1.0  0.61634  0.94978  0.05997  1.0000
  C   C3615     1.0  0.58963  0.70953  0.09586  1.0000
  H   H6417     1.0  0.53147  0.71013  0.10252  1.0000
  C   C3616     1.0  0.86170  0.55130  0.09095  1.0000
  H   H6418     1.0  0.56715  0.65487  0.15307  1.0000
  H   H6419     1.0  0.53290  0.92555  0.00911  1.0000
  H   H6420     1.0  0.62796  0.90849  0.10721  1.0000
  N   N202      1.0  0.52947  0.83972  0.14324  1.0000
  H   H6421     1.0  0.61017  0.69402  0.13059  1.0000
  H   H6422     1.0  0.87184  0.54861  0.08232  1.0000
  H   H6423     1.0  0.84884  0.55012  0.08927  1.0000
  H   H6424     1.0  0.76115  0.53001  0.16135  1.0000
  S   S808      1.0  0.75632  0.68320  0.17810  1.0000
  S   S809      1.0  0.61716  0.72904  0.12473  1.0000
  H   H6425     1.0  0.84668  0.57556  0.09771  1.0000
  C   C3617     1.0  0.50529  0.78603  0.12004  1.0000
  H   H6426     1.0  0.80028  0.58677  0.17890  1.0000
  C   C3618     1.0  0.78821  0.62632  0.15921  1.0000
  S   S810      1.0  0.52859  0.74486  0.14784  1.0000
  H   H6427     1.0  0.65414  0.89721  0.09026  1.0000
  H   H6428     1.0  0.57989  0.87841  0.01415  1.0000
  S   S811      1.0  0.66329  0.60899  0.14641  1.0000
  H   H6429     1.0  0.58490  0.70119  0.09152  1.0000
  H   H6430     1.0  0.87205  0.57940  0.07150  1.0000
  C   C3619     1.0  0.83540  0.62798  0.14947  1.0000
  C   C3620     1.0  0.92105  0.57563  0.98719  1.0000
  H   H6431     1.0  0.82661  0.63222  0.14250  1.0000
  H   H6432     1.0  0.89342  0.50529  0.05998  1.0000
  C   C3621     1.0  0.53760  0.82827  0.13357  1.0000
  H   H6433     1.0  0.62197  0.64667  0.13141  1.0000
  C   C3622     1.0  0.60888  0.67261  0.17263  1.0000
  C   C3623     1.0  0.59061  0.70064  0.10962  1.0000
  C   C3624     1.0  0.85407  0.64940  0.13591  1.0000
  H   H6434     1.0  0.55864  0.88573  0.01015  1.0000
  H   H6435     1.0  0.50977  0.98363  0.04691  1.0000
  H   H6436     1.0  0.57751  0.89271  0.03643  1.0000
  H   H6437     1.0  0.61445  0.92869  0.00639  1.0000
  H   H6438     1.0  0.62893  0.65298  0.10258  1.0000
  H   H6439     1.0  0.53303  0.87076  0.09463  1.0000
  H   H6440     1.0  0.70925  0.91656  0.17023  1.0000
  H   H6441     1.0  0.86189  0.64897  0.15794  1.0000
  H   H6442     1.0  0.55012  0.83213  0.12736  1.0000
  H   H6443     1.0  0.59623  0.91179  0.00182  1.0000
  H   H6444     1.0  0.56544  0.67672  0.15559  1.0000
  C   C3625     1.0  0.53123  0.73760  0.10163  1.0000
  H   H6445     1.0  0.62655  0.69041  0.11684  1.0000
  H   H6446     1.0  0.61086  0.79360  0.11490  1.0000
  H   H6447     1.0  0.78450  0.63172  0.15014  1.0000
  C   C3626     1.0  0.86424  0.51999  0.10186  1.0000
  H   H6448     1.0  0.60055  0.65023  0.14796  1.0000
  H   H6449     1.0  0.92203  0.52355  0.10043  1.0000
  C   C3627     1.0  0.54993  0.76729  0.09877  1.0000
  C   C3628     1.0  0.72042  0.58118  0.11791  1.0000
  C   C3629     1.0  0.53565  0.86751  0.12596  1.0000
  H   H6450     1.0  0.52399  0.93675  0.98879  1.0000
  H   H6451     1.0  0.84779  0.58187  0.07481  1.0000
  H   H6452     1.0  0.55328  0.78067  0.09553  1.0000
  C   C3630     1.0  0.69388  0.60599  0.11308  1.0000
  H   H6453     1.0  0.62871  0.52833  0.17726  1.0000
  H   H6454     1.0  0.72327  0.50426  0.12233  1.0000
  H   H6455     1.0  0.70503  0.71520  0.17427  1.0000
  H   H6456     1.0  0.68794  0.62029  0.11278  1.0000
  H   H6457     1.0  0.72473  0.57347  0.14081  1.0000
  H   H6458     1.0  0.53118  0.77087  0.12320  1.0000
  C   C3631     1.0  0.50462  0.86556  0.06986  1.0000
  H   H6459     1.0  0.71028  0.72510  0.15757  1.0000
  N   N203      1.0  0.96746  0.51616  0.00184  1.0000
  H   H6460     1.0  0.85733  0.59696  0.07888  1.0000
  H   H6461     1.0  0.56001  0.76095  0.11640  1.0000
  H   H6462     1.0  0.71093  0.57335  0.12493  1.0000
  C   C3632     1.0  0.68462  0.93630  0.15575  1.0000
  H   H6463     1.0  0.64487  0.66489  0.12811  1.0000
  H   H6464     1.0  0.84557  0.54377  0.04081  1.0000
  H   H6465     1.0  0.63944  0.62294  0.11598  1.0000
  H   H6466     1.0  0.72068  0.57854  0.10868  1.0000
  H   H6467     1.0  0.82004  0.65357  0.16213  1.0000
  H   H6468     1.0  0.53899  0.94948  0.98970  1.0000
  C   C3633     1.0  0.60982  0.93382  0.10564  1.0000
  H   H6469     1.0  0.54957  0.90788  0.04984  1.0000
  C   C3634     1.0  0.50384  0.97002  0.00705  1.0000
  S   S812      1.0  0.55898  0.74028  0.17196  1.0000
  S   S813      1.0  0.54404  0.83225  0.09769  1.0000
  C   C3635     1.0  0.52034  0.72801  0.14533  1.0000
  S   S814      1.0  0.65907  0.84567  0.14942  1.0000
  H   H6470     1.0  0.85379  0.66383  0.13424  1.0000
  H   H6471     1.0  0.83585  0.52423  0.06127  1.0000
  H   H6472     1.0  0.54645  0.80462  0.11946  1.0000
  H   H6473     1.0  0.84740  0.64813  0.12872  1.0000
  C   C3636     1.0  0.63935  0.84737  0.14433  1.0000
  C   C3637     1.0  0.55181  0.79815  0.12811  1.0000
  H   H6474     1.0  0.53016  0.80291  0.14388  1.0000
  H   H6475     1.0  0.84737  0.51827  0.12688  1.0000
  Fe  Fe405     1.0  0.68175  0.62647  0.14532  1.0000
  C   C3638     1.0  0.51421  0.83307  0.15313  1.0000
  H   H6476     1.0  0.54739  0.81422  0.16207  1.0000
  H   H6477     1.0  0.57578  0.65726  0.16566  1.0000
  H   H6478     1.0  0.59546  0.67338  0.10793  1.0000
  C   C3639     1.0  0.60259  0.68164  0.11057  1.0000
  H   H6479     1.0  0.57663  0.70013  0.11493  1.0000
  H   H6480     1.0  0.78626  0.53120  0.13927  1.0000
  N   N204      1.0  0.69674  0.89577  0.18308  1.0000
  H   H6481     1.0  0.52763  0.72138  0.17421  1.0000
  C   C3640     1.0  0.68461  0.53200  0.14787  1.0000
  H   H6482     1.0  0.73202  0.64116  0.14758  1.0000
  H   H6483     1.0  0.81401  0.53331  0.09381  1.0000
  H   H6484     1.0  0.58176  0.66563  0.13066  1.0000
  H   H6485     1.0  0.89660  0.64034  0.11611  1.0000
  C   C3641     1.0  0.80317  0.51723  0.11155  1.0000
  C   C3642     1.0  0.67796  0.54881  0.15077  1.0000
  C   C3643     1.0  0.61373  0.76526  0.11940  1.0000
  C   C3644     1.0  0.63969  0.85167  0.13130  1.0000
  C   C3645     1.0  0.87433  0.64066  0.13243  1.0000
  N   N205      1.0  0.65875  0.78332  0.14328  1.0000
  C   C3646     1.0  0.63856  0.78915  0.14662  1.0000
  C   C3647     1.0  0.66527  0.77250  0.15511  1.0000
  C   C3648     1.0  0.66640  0.79988  0.13905  1.0000
  C   C3649     1.0  0.66516  0.77317  0.13277  1.0000
  C   C3650     1.0  0.65289  0.76136  0.13208  1.0000
  C   C3651     1.0  0.62992  0.80270  0.13597  1.0000
  C   C3652     1.0  0.68722  0.79695  0.13624  1.0000
  C   C3653     1.0  0.66043  0.75409  0.16058  1.0000
  C   C3654     1.0  0.66766  0.74481  0.17257  1.0000
  C   C3655     1.0  0.66291  0.74850  0.12336  1.0000
  C   C3656     1.0  0.60967  0.80424  0.13871  1.0000
  C   C3657     1.0  0.69362  0.81390  0.12873  1.0000
  H   H6486     1.0  0.63453  0.79560  0.15489  1.0000
  H   H6487     1.0  0.63195  0.77767  0.14985  1.0000
  H   H6488     1.0  0.68014  0.76972  0.15339  1.0000
  H   H6489     1.0  0.66016  0.78016  0.16277  1.0000
  H   H6490     1.0  0.66087  0.80827  0.14628  1.0000
  H   H6491     1.0  0.66217  0.80824  0.13024  1.0000
  H   H6492     1.0  0.66700  0.78241  0.12332  1.0000
  H   H6493     1.0  0.67875  0.76468  0.13329  1.0000
  H   H6494     1.0  0.64115  0.76976  0.12825  1.0000
  H   H6495     1.0  0.64751  0.75349  0.14140  1.0000
  H   H6496     1.0  0.63210  0.81604  0.13530  1.0000
  H   H6497     1.0  0.63585  0.79925  0.12658  1.0000
  H   H6498     1.0  0.69380  0.78651  0.13070  1.0000
  H   H6499     1.0  0.69204  0.79302  0.14523  1.0000
  H   H6500     1.0  0.64568  0.75520  0.16298  1.0000
  H   H6501     1.0  0.66687  0.74535  0.15373  1.0000
  C   C3658     1.0  0.87802  0.56212  0.00367  1.0000
  H   H6502     1.0  0.93908  0.63707  0.00393  1.0000
  H   H6503     1.0  0.59131  0.74691  0.10714  1.0000
  H   H6504     1.0  0.65403  0.73989  0.12338  1.0000
  H   H6505     1.0  0.66688  0.75594  0.11349  1.0000
  H   H6506     1.0  0.67504  0.73984  0.12666  1.0000
  H   H6507     1.0  0.60648  0.79133  0.13932  1.0000
  H   H6508     1.0  0.60318  0.80876  0.14768  1.0000
  H   H6509     1.0  0.55354  0.76194  0.09003  1.0000
  H   H6510     1.0  0.70849  0.81139  0.12703  1.0000
  H   H6511     1.0  0.68959  0.81838  0.11944  1.0000
  H   H6512     1.0  0.68790  0.82460  0.13413  1.0000
  C   C3659     1.0  0.63373  0.65190  0.11125  1.0000
  H   H6513     1.0  0.99505  0.50438  0.99426  1.0000
  C   C3660     1.0  0.79233  0.60788  0.16365  1.0000
  H   H6514     1.0  0.53661  0.89277  0.11273  1.0000
  C   C3661     1.0  0.97343  0.53302  0.00073  1.0000
  C   C3662     1.0  0.59239  0.66396  0.14696  1.0000
  C   C3663     1.0  0.85238  0.54329  0.11391  1.0000
  H   H6515     1.0  0.83861  0.54600  0.11219  1.0000
  H   H6516     1.0  0.60645  0.76493  0.12903  1.0000
  C   C3664     1.0  0.84051  0.53818  0.13773  1.0000
  H   H6517     1.0  0.51895  0.81946  0.15845  1.0000
  H   H6518     1.0  0.65283  0.63288  0.12175  1.0000
  C   C3665     1.0  0.61739  0.65391  0.12253  1.0000
  S   S815      1.0  0.58772  0.85590  0.13036  1.0000
  C   C3666     1.0  0.60782  0.85205  0.13558  1.0000
  H   H6519     1.0  0.67789  0.93825  0.14783  1.0000
  H   H6520     1.0  0.63118  0.71532  0.18233  1.0000
  C   C3667     1.0  0.89952  0.54075  0.09237  1.0000
  H   H6521     1.0  0.84997  0.52063  0.10181  1.0000
  H   H6522     1.0  0.72100  0.62651  0.13533  1.0000
  C   C3668     1.0  0.59046  0.67246  0.13314  1.0000
  H   H6523     1.0  0.84547  0.54946  0.13853  1.0000
  H   H6524     1.0  0.88404  0.54683  0.11008  1.0000
  H   H6525     1.0  0.82356  0.67211  0.13387  1.0000
  N   N206      1.0  0.94122  0.63658  0.06474  1.0000
  C   C3669     1.0  0.94575  0.63269  0.05167  1.0000
  C   C3670     1.0  0.94184  0.61951  0.07476  1.0000
  C   C3671     1.0  0.92219  0.64739  0.06677  1.0000
  C   C3672     1.0  0.95332  0.64736  0.06603  1.0000
  C   C3673     1.0  0.97375  0.63949  0.06303  1.0000
  C   C3674     1.0  0.94568  0.64896  0.04040  1.0000
  C   C3675     1.0  0.91379  0.65110  0.08027  1.0000
  C   C3676     1.0  0.95545  0.60268  0.07123  1.0000
  C   C3677     1.0  0.95594  0.58719  0.08269  1.0000
  H   H6526     1.0  0.94188  0.50894  0.00493  1.0000
  C   C3678     1.0  0.95095  0.64315  0.02776  1.0000
  C   C3679     1.0  0.89417  0.66093  0.08124  1.0000
  H   H6527     1.0  0.93625  0.62506  0.05105  1.0000
  H   H6528     1.0  0.95924  0.62402  0.04978  1.0000
  H   H6529     1.0  0.94424  0.62145  0.08358  1.0000
  H   H6530     1.0  0.92860  0.61565  0.07761  1.0000
  H   H6531     1.0  0.91315  0.64076  0.06450  1.0000
  H   H6532     1.0  0.92125  0.66061  0.06022  1.0000
  H   H6533     1.0  0.95076  0.66095  0.06002  1.0000
  H   H6534     1.0  0.95013  0.64938  0.07587  1.0000
  H   H6535     1.0  0.97831  0.63647  0.05347  1.0000
  H   H6536     1.0  0.97725  0.62730  0.07020  1.0000
  H   H6537     1.0  0.93214  0.65775  0.04082  1.0000
  H   H6538     1.0  0.95542  0.65671  0.04027  1.0000
  H   H6539     1.0  0.92106  0.65953  0.08249  1.0000
  H   H6540     1.0  0.91404  0.63868  0.08765  1.0000
  H   H6541     1.0  0.95145  0.59843  0.06394  1.0000
  H   H6542     1.0  0.96923  0.60499  0.06744  1.0000
  H   H6543     1.0  0.96559  0.57533  0.07977  1.0000
  H   H6544     1.0  0.96042  0.59044  0.09019  1.0000
  H   H6545     1.0  0.94248  0.58388  0.08653  1.0000
  C   C3680     1.0  0.92085  0.58449  0.99638  1.0000
  H   H6546     1.0  0.89167  0.49295  0.98621  1.0000
  C   C3681     1.0  0.90842  0.60044  0.99747  1.0000
  H   H6547     1.0  0.95152  0.65495  0.01983  1.0000
  H   H6548     1.0  0.96437  0.63402  0.02674  1.0000
  H   H6549     1.0  0.94080  0.63644  0.02706  1.0000
  H   H6550     1.0  0.89301  0.67362  0.07408  1.0000
  H   H6551     1.0  0.88606  0.65262  0.07975  1.0000
  H   H6552     1.0  0.88852  0.66395  0.09079  1.0000
  N   N207      1.0  0.56991  0.90676  0.01165  1.0000
  C   C3682     1.0  0.55751  0.90676  0.02448  1.0000
  C   C3683     1.0  0.56207  0.92216  0.00214  1.0000
  C   C3684     1.0  0.57190  0.88936  0.00810  1.0000
  C   C3685     1.0  0.58832  0.90880  0.01170  1.0000
  C   C3686     1.0  0.58875  0.92346  0.01817  1.0000
  C   C3687     1.0  0.56401  0.89225  0.03561  1.0000
  H   H6553     1.0  0.72052  0.88654  0.16959  1.0000
  C   C3688     1.0  0.54311  0.92225  0.00064  1.0000
  C   C3689     1.0  0.72469  0.85107  0.17344  1.0000
  C   C3690     1.0  0.60799  0.92534  0.01658  1.0000
  H   H6554     1.0  0.52382  0.74233  0.09384  1.0000
  C   C3691     1.0  0.94700  0.52258  0.98552  1.0000
  H   H6555     1.0  0.54425  0.90465  0.02436  1.0000
  H   H6556     1.0  0.55454  0.92002  0.02689  1.0000
  H   H6557     1.0  0.56095  0.93489  0.00467  1.0000
  H   H6558     1.0  0.57135  0.92313  0.99268  1.0000
  H   H6559     1.0  0.87057  0.57289  0.09490  1.0000
  C   C3692     1.0  0.52552  0.77915  0.11490  1.0000
  H   H6560     1.0  0.84043  0.52814  0.14676  1.0000
  C   C3693     1.0  0.86068  0.62498  0.18103  1.0000
  C   C3694     1.0  0.75407  0.52991  0.11032  1.0000
  H   H6561     1.0  0.92146  0.51480  0.98913  1.0000
  C   C3695     1.0  0.85262  0.52985  0.12677  1.0000
  N   N208      1.0  0.86621  0.53789  0.10260  1.0000
  N   N209      1.0  0.84381  0.64292  0.14916  1.0000
  H   H6562     1.0  0.59860  0.67221  0.15028  1.0000
  C   C3696     1.0  0.88469  0.53704  0.10447  1.0000
  C   C3697     1.0  0.64661  0.63392  0.11374  1.0000
  H   H6563     1.0  0.65050  0.67720  0.14418  1.0000
  H   H6564     1.0  0.65751  0.63255  0.10520  1.0000
  H   H6565     1.0  0.89644  0.55472  0.08717  1.0000
  H   H6566     1.0  0.86684  0.60160  0.03043  1.0000
  H   H6567     1.0  0.65468  0.86496  0.09946  1.0000
  H   H6568     1.0  0.88976  0.52387  0.11027  1.0000
  C   C3698     1.0  0.63332  0.67277  0.13378  1.0000
  C   C3699     1.0  0.91780  0.53760  0.09566  1.0000
  H   H6569     1.0  0.64752  0.69403  0.13005  1.0000
  S   S816      1.0  0.90408  0.50239  0.01550  1.0000
  H   H6570     1.0  0.79412  0.69037  0.14117  1.0000
  Fe  Fe406     1.0  0.59607  0.73238  0.14240  1.0000
  H   H6571     1.0  0.86776  0.63558  0.18025  1.0000
  H   H6572     1.0  0.73041  0.62571  0.16902  1.0000
  H   H6573     1.0  0.91729  0.54643  0.10191  1.0000
  H   H6574     1.0  0.84327  0.52466  0.07496  1.0000
  C   C3700     1.0  0.65715  0.87023  0.08905  1.0000
  H   H6575     1.0  0.90094  0.53224  0.08578  1.0000
  H   H6576     1.0  0.62777  0.66345  0.14218  1.0000
  H   H6577     1.0  0.75700  0.79075  0.17088  1.0000
  H   H6578     1.0  0.67255  0.88958  0.18140  1.0000
  H   H6579     1.0  0.94548  0.51131  0.04606  1.0000
  H   H6580     1.0  0.51145  0.85794  0.13158  1.0000
  H   H6581     1.0  0.81496  0.56596  0.05158  1.0000
  H   H6582     1.0  0.75271  0.49338  0.13842  1.0000
  H   H6583     1.0  0.59337  0.90760  0.08714  1.0000
  H   H6584     1.0  0.62957  0.69335  0.14405  1.0000
  C   C3701     1.0  0.78834  0.63775  0.16675  1.0000
  H   H6585     1.0  0.60401  0.81423  0.13102  1.0000
  C   C3702     1.0  0.52262  0.69731  0.14487  1.0000
  H   H6586     1.0  0.61213  0.94271  0.05440  1.0000
  H   H6587     1.0  0.69596  0.60355  0.10346  1.0000
  C   C3703     1.0  0.74394  0.62728  0.16339  1.0000
  H   H6588     1.0  0.87515  0.64271  0.11251  1.0000
  H   H6589     1.0  0.61074  0.58229  0.17635  1.0000
  S   S817      1.0  0.67506  0.80237  0.17214  1.0000
  Fe  Fe407     1.0  0.66142  0.83116  0.16940  1.0000
  H   H6590     1.0  0.51073  0.75249  0.11400  1.0000
  S   S818      1.0  0.70175  0.60442  0.15421  1.0000
  Fe  Fe408     1.0  0.68214  0.58745  0.15675  1.0000
  S   S819      1.0  0.66702  0.63525  0.16342  1.0000
  C   C3704     1.0  0.82889  0.65811  0.15292  1.0000
  C   C3705     1.0  0.54594  0.82823  0.16231  1.0000
  Fe  Fe409     1.0  0.65040  0.61567  0.16539  1.0000
  H   H6591     1.0  0.53407  0.83176  0.16985  1.0000
  H   H6592     1.0  0.70045  0.88192  0.16809  1.0000
  H   H6593     1.0  0.83465  0.66846  0.15440  1.0000
  S   S820      1.0  0.69319  0.56038  0.15200  1.0000
  C   C3706     1.0  0.97420  0.54640  0.98787  1.0000
  S   S821      1.0  0.76523  0.73087  0.16477  1.0000
  H   H6594     1.0  0.61622  0.94936  0.07903  1.0000
  C   C3707     1.0  0.84667  0.52713  0.06445  1.0000
  C   C3708     1.0  0.87637  0.51205  0.09052  1.0000
  C   C3709     1.0  0.50595  0.70184  0.14135  1.0000
  S   S822      1.0  0.57702  0.71396  0.15145  1.0000
  H   H6595     1.0  0.78480  0.65194  0.16346  1.0000
  H   H6596     1.0  0.86296  0.58454  0.01909  1.0000
  H   H6597     1.0  0.53136  0.74462  0.11896  1.0000
  H   H6598     1.0  0.50719  0.78428  0.13938  1.0000
  H   H6599     1.0  0.69893  0.52677  0.14581  1.0000
  H   H6600     1.0  0.68427  0.59818  0.11985  1.0000
  H   H6601     1.0  0.62984  0.65465  0.16267  1.0000
  C   C3710     1.0  0.98443  0.65255  0.06342  1.0000
  H   H6602     1.0  0.87511  0.52129  0.08133  1.0000
  H   H6603     1.0  0.85167  0.56016  0.01454  1.0000
  H   H6604     1.0  0.72740  0.54578  0.11462  1.0000
  S   S823      1.0  0.57444  0.75693  0.14256  1.0000
  H   H6605     1.0  0.56648  0.79763  0.12575  1.0000
  C   C3711     1.0  0.60750  0.84773  0.14861  1.0000
  C   C3712     1.0  0.84682  0.63162  0.17268  1.0000
  H   H6606     1.0  0.55633  0.88450  0.05609  1.0000
  C   C3713     1.0  0.59864  0.77918  0.17406  1.0000
  C   C3714     1.0  0.79830  0.61233  0.18255  1.0000
  H   H6607     1.0  0.60913  0.96388  0.05814  1.0000
  C   C3715     1.0  0.62328  0.84510  0.15298  1.0000
  H   H6608     1.0  0.54247  0.70669  0.14980  1.0000
  H   H6609     1.0  0.75161  0.62943  0.16959  1.0000
  Fe  Fe410     1.0  0.55573  0.73872  0.15305  1.0000
  H   H6610     1.0  0.72801  0.71517  0.16630  1.0000
  C   C3716     1.0  0.69550  0.91392  0.17440  1.0000
  H   H6611     1.0  0.61399  0.68428  0.16728  1.0000
  H   H6612     1.0  0.75375  0.52061  0.11968  1.0000
  H   H6613     1.0  0.59503  0.84643  0.15536  1.0000
  C   C3717     1.0  0.95215  0.51307  0.02578  1.0000
  H   H6614     1.0  0.63605  0.92196  0.07381  1.0000
  C   C3718     1.0  0.73365  0.75246  0.17431  1.0000
  C   C3719     1.0  0.62750  0.89277  0.09087  1.0000
  H   H6615     1.0  0.99504  0.62046  0.03504  1.0000
  H   H6616     1.0  0.75089  0.61476  0.16016  1.0000
  C   C3720     1.0  0.50778  0.83940  0.10465  1.0000
  H   H6617     1.0  0.69393  0.52781  0.17358  1.0000
  H   H6618     1.0  0.50909  0.82523  0.10674  1.0000
  H   H6619     1.0  0.52414  0.89458  0.12852  1.0000
  H   H6620     1.0  0.52857  0.83062  0.12694  1.0000
  H   H6621     1.0  0.53761  0.89257  0.04828  1.0000
  H   H6622     1.0  0.64784  0.49991  0.18117  1.0000
  H   H6623     1.0  0.87316  0.57556  0.99815  1.0000
  H   H6624     1.0  0.53191  0.79080  0.11168  1.0000
  H   H6625     1.0  0.72003  0.68575  0.17036  1.0000
  N   N210      1.0  0.53015  0.76893  0.10458  1.0000
  C   C3721     1.0  0.55104  0.89447  0.04820  1.0000
  H   H6626     1.0  0.68248  0.74306  0.17056  1.0000
  N   N211      1.0  0.61739  0.91176  0.09055  1.0000
  Fe  Fe411     1.0  0.68559  0.61171  0.17249  1.0000
  C   C3722     1.0  0.60349  0.79453  0.17451  1.0000
  H   H6627     1.0  0.59694  0.94320  0.07690  1.0000
  H   H6628     1.0  0.53598  0.79632  0.08083  1.0000
  H   H6629     1.0  0.66415  0.73163  0.17632  1.0000
  C   C3723     1.0  0.61780  0.65590  0.16997  1.0000
  H   H6630     1.0  0.50613  0.97681  0.03396  1.0000
  C   C3724     1.0  0.61684  0.79342  0.18091  1.0000
  H   H6631     1.0  0.57147  0.86534  0.99431  1.0000
  Fe  Fe412     1.0  0.76208  0.70753  0.18092  1.0000
  C   C3725     1.0  0.86511  0.55836  0.01648  1.0000
  H   H6632     1.0  0.56749  0.89410  0.12107  1.0000
  H   H6633     1.0  0.52248  0.80524  0.09414  1.0000
  Fe  Fe413     1.0  0.57998  0.75596  0.16132  1.0000
  H   H6634     1.0  0.85953  0.51795  0.06149  1.0000
  C   C3726     1.0  0.61174  0.94160  0.07412  1.0000
  H   H6635     1.0  0.52320  0.77074  0.08683  1.0000
  H   H6636     1.0  0.62548  0.69612  0.18111  1.0000
  C   C3727     1.0  0.65137  0.70710  0.16068  1.0000
  H   H6637     1.0  0.60867  0.95239  0.11691  1.0000
  H   H6638     1.0  0.62910  0.94914  0.10507  1.0000
  H   H6639     1.0  0.79466  0.67983  0.15748  1.0000
  H   H6640     1.0  0.90809  0.60732  0.00461  1.0000
  H   H6641     1.0  0.98321  0.59561  0.01405  1.0000
  C   C3728     1.0  0.64816  0.88988  0.08596  1.0000
  H   H6642     1.0  0.87899  0.55222  0.99812  1.0000
  C   C3729     1.0  0.52550  0.75101  0.11043  1.0000
  H   H6643     1.0  0.58587  0.75270  0.09178  1.0000
  S   S824      1.0  0.58190  0.78107  0.16580  1.0000
  H   H6644     1.0  0.70923  0.76979  0.18182  1.0000
  H   H6645     1.0  0.62544  0.93221  0.11938  1.0000
  H   H6646     1.0  0.83691  0.64286  0.17626  1.0000
  C   C3730     1.0  0.59760  0.91167  0.09444  1.0000
  H   H6647     1.0  0.88820  0.62084  0.98912  1.0000
  H   H6648     1.0  0.68438  0.64836  0.17771  1.0000
  H   H6649     1.0  0.51379  0.94025  0.04568  1.0000
  H   H6650     1.0  0.81051  0.69344  0.14828  1.0000
  H   H6651     1.0  0.72720  0.74168  0.17545  1.0000
  H   H6652     1.0  0.85721  0.49787  0.08930  1.0000
  H   H6653     1.0  0.50910  0.84144  0.16036  1.0000
  H   H6654     1.0  0.63544  0.55574  0.17720  1.0000
  H   H6655     1.0  0.60300  0.94447  0.09886  1.0000
  H   H6656     1.0  0.68761  0.67619  0.18173  1.0000
  C   C3731     1.0  0.94873  0.51998  0.99942  1.0000
  C   C3732     1.0  0.80308  0.68372  0.14793  1.0000
  H   H6657     1.0  0.56399  0.90472  0.10529  1.0000
  C   C3733     1.0  0.76038  0.76469  0.16760  1.0000
  H   H6658     1.0  0.62229  0.88658  0.08523  1.0000
  H   H6659     1.0  0.56380  0.82022  0.17544  1.0000
  H   H6660     1.0  0.80805  0.65837  0.14316  1.0000
  C   C3734     1.0  0.70775  0.88245  0.17513  1.0000
  H   H6661     1.0  0.59352  0.86025  0.99793  1.0000
  H   H6662     1.0  0.92872  0.63012  0.99419  1.0000
  H   H6663     1.0  0.56791  0.91728  0.11509  1.0000
  H   H6664     1.0  0.66433  0.70464  0.15382  1.0000
  C   C3735     1.0  0.57151  0.90417  0.11247  1.0000
  H   H6665     1.0  0.71762  0.85107  0.16613  1.0000
  H   H6666     1.0  0.96043  0.55272  0.98645  1.0000
  C   C3736     1.0  0.60711  0.76266  0.18025  1.0000
  S   S825      1.0  0.66775  0.59258  0.17598  1.0000
  C   C3737     1.0  0.62362  0.91922  0.09925  1.0000
  C   C3738     1.0  0.87134  0.49506  0.09028  1.0000
  C   C3739     1.0  0.52716  0.88687  0.12106  1.0000
  H   H6667     1.0  0.54583  0.73542  0.09744  1.0000
  H   H6668     1.0  0.86270  0.50540  0.02267  1.0000
  H   H6669     1.0  0.65193  0.86243  0.08458  1.0000
  C   C3740     1.0  0.52191  0.85814  0.13644  1.0000
  H   H6670     1.0  0.66175  0.75266  0.17998  1.0000
  H   H6671     1.0  0.54765  0.86727  0.12936  1.0000
  C   C3741     1.0  0.56247  0.82953  0.16624  1.0000
  C   C3742     1.0  0.58238  0.75644  0.10111  1.0000
  H   H6672     1.0  0.99874  0.56727  0.00807  1.0000
  C   C3743     1.0  0.71485  0.71404  0.16520  1.0000
  H   H6673     1.0  0.58488  0.76990  0.09974  1.0000
  C   C3744     1.0  0.85501  0.50559  0.03253  1.0000
  C   C3745     1.0  0.58436  0.86972  0.99200  1.0000
  H   H6674     1.0  0.62524  0.88473  0.10071  1.0000
  C   C3746     1.0  0.73199  0.78202  0.17691  1.0000
  H   H6675     1.0  0.96868  0.51181  0.03882  1.0000
  C   C3747     1.0  0.52268  0.79724  0.08750  1.0000
  S   S826      1.0  0.67913  0.83794  0.17921  1.0000
  H   H6676     1.0  0.96054  0.49182  0.04121  1.0000
  H   H6677     1.0  0.56140  0.84320  0.16724  1.0000
  S   S827      1.0  0.62058  0.62026  0.17255  1.0000
  C   C3748     1.0  0.61889  0.94237  0.11213  1.0000
  C   C3749     1.0  0.50831  0.80740  0.07989  1.0000
  H   H6678     1.0  0.84141  0.51412  0.03233  1.0000
  H   H6679     1.0  0.66434  0.70187  0.17606  1.0000
  C   C3750     1.0  0.99794  0.59313  0.01025  1.0000
  C   C3751     1.0  0.76263  0.51539  0.16371  1.0000
  C   C3752     1.0  0.68592  0.91720  0.16334  1.0000
  C   C3753     1.0  0.50510  0.93500  0.04193  1.0000
  H   H6680     1.0  0.67660  0.94578  0.16184  1.0000
  H   H6681     1.0  0.50293  0.88429  0.05238  1.0000
  H   H6682     1.0  0.77462  0.76334  0.16360  1.0000
  C   C3754     1.0  0.75040  0.78019  0.17170  1.0000
  H   H6683     1.0  0.59491  0.88531  0.10594  1.0000
  C   C3755     1.0  0.61084  0.64090  0.17659  1.0000
  H   H6684     1.0  0.51157  0.87320  0.07317  1.0000
  C   C3756     1.0  0.52355  0.71722  0.18467  1.0000
  H   H6685     1.0  0.57472  0.82585  0.15902  1.0000
  H   H6686     1.0  0.50569  0.70578  0.17257  1.0000
  C   C3757     1.0  0.65371  0.69719  0.17402  1.0000
  H   H6687     1.0  0.65856  0.68287  0.17395  1.0000
  H   H6688     1.0  0.60329  0.75079  0.18010  1.0000
  C   C3758     1.0  0.59171  0.89912  0.10729  1.0000
  H   H6689     1.0  0.59924  0.92804  0.11303  1.0000
  H   H6690     1.0  0.98059  0.65603  0.07286  1.0000
  S   S828      1.0  0.72033  0.80098  0.18292  1.0000
  H   H6691     1.0  0.59883  0.89916  0.11453  1.0000
  H   H6692     1.0  0.74661  0.49422  0.11652  1.0000
  H   H6693     1.0  0.59709  0.80737  0.16982  1.0000
  H   H6694     1.0  0.87063  0.61318  0.17829  1.0000
  H   H6695     1.0  0.76031  0.51086  0.17417  1.0000
  H   H6696     1.0  0.51042  0.80502  0.12849  1.0000
  H   H6697     1.0  0.53430  0.71406  0.11685  1.0000
  H   H6698     1.0  0.77658  0.50930  0.15945  1.0000
  H   H6699     1.0  0.73748  0.85550  0.16875  1.0000
  Fe  Fe414     1.0  0.69066  0.80876  0.18360  1.0000
  H   H6700     1.0  0.91924  0.53775  0.98919  1.0000
  C   C3759     1.0  0.63577  0.70066  0.18380  1.0000
  C   C3760     1.0  0.98322  0.56125  0.98747  1.0000
  H   H6701     1.0  0.57255  0.89739  0.98759  1.0000
  H   H6702     1.0  0.96591  0.49202  0.01659  1.0000
  C   C3761     1.0  0.69082  0.52935  0.18352  1.0000
  H   H6703     1.0  0.66896  0.55165  0.18127  1.0000
  H   H6704     1.0  0.99901  0.64639  0.06161  1.0000
  H   H6705     1.0  0.59428  0.89237  0.99145  1.0000
  H   H6706     1.0  0.72791  0.83724  0.17890  1.0000
  H   H6707     1.0  0.51121  0.82061  0.07478  1.0000
  C   C3762     1.0  0.50398  0.87616  0.09945  1.0000
  H   H6708     1.0  0.50809  0.80006  0.07286  1.0000
  C   C3763     1.0  0.73327  0.49157  0.12191  1.0000
  H   H6709     1.0  0.50248  0.89040  0.09724  1.0000
  C   C3764     1.0  0.73894  0.49139  0.14324  1.0000
  C   C3765     1.0  0.70405  0.97951  0.28405  1.0000
  C   C3766     1.0  0.98197  0.85469  0.30369  1.0000
  H   H6710     1.0  0.70816  0.94677  0.35014  1.0000
  C   C3767     1.0  0.82644  0.95989  0.31673  1.0000
  Fe  Fe415     1.0  0.63909  0.97227  0.30775  1.0000
  S   S829      1.0  0.63435  0.95793  0.32811  1.0000
  S   S830      1.0  0.63464  0.96312  0.29182  1.0000
  H   H6711     1.0  0.90238  0.80021  0.26644  1.0000
  H   H6712     1.0  0.86544  0.78356  0.30265  1.0000
  Fe  Fe416     1.0  0.65996  0.96491  0.32815  1.0000
  S   S831      1.0  0.68166  0.94601  0.33747  1.0000
  C   C3768     1.0  0.73050  0.72766  0.25639  1.0000
  C   C3769     1.0  0.72434  0.73164  0.24394  1.0000
  Fe  Fe417     1.0  0.65852  0.83204  0.19697  1.0000
  C   C3770     1.0  0.68423  0.87030  0.32530  1.0000
  C   C3771     1.0  0.95178  0.81482  0.33122  1.0000
  H   H6713     1.0  0.88354  0.96673  0.26971  1.0000
  S   S832      1.0  0.67100  0.80315  0.20190  1.0000
  H   H6714     1.0  0.96747  0.76820  0.35277  1.0000
  H   H6715     1.0  0.82270  0.94937  0.31388  1.0000
  H   H6716     1.0  0.60951  0.55860  0.20298  1.0000
  H   H6717     1.0  0.97356  0.72250  0.35967  1.0000
  S   S833      1.0  0.65181  0.84863  0.21170  1.0000
  H   H6718     1.0  0.57553  0.66000  0.19713  1.0000
  C   C3772     1.0  0.70670  0.66308  0.19353  1.0000
  C   C3773     1.0  0.97183  0.79224  0.30882  1.0000
  H   H6719     1.0  0.97325  0.75320  0.34248  1.0000
  H   H6720     1.0  0.69407  0.51614  0.18983  1.0000
  H   H6721     1.0  0.98833  0.90666  0.27224  1.0000
  N   N212      1.0  0.96641  0.78090  0.33324  1.0000
  H   H6722     1.0  0.91950  0.72377  0.27992  1.0000
  H   H6723     1.0  0.52629  0.72679  0.18906  1.0000
  H   H6724     1.0  0.99096  0.89633  0.37983  1.0000
  H   H6725     1.0  0.71115  0.92097  0.19110  1.0000
  H   H6726     1.0  0.82825  0.87901  0.26457  1.0000
  C   C3774     1.0  0.54206  0.97610  0.36064  1.0000
  C   C3775     1.0  0.99155  0.84035  0.29808  1.0000
  H   H6727     1.0  0.61893  0.50876  0.21349  1.0000
  C   C3776     1.0  0.85389  0.97292  0.26208  1.0000
  Fe  Fe418     1.0  0.65398  0.79948  0.19009  1.0000
  H   H6728     1.0  0.66407  0.51322  0.18948  1.0000
  H   H6729     1.0  0.97558  0.69763  0.37989  1.0000
  H   H6730     1.0  0.72541  0.90025  0.20876  1.0000
  H   H6731     1.0  0.91986  0.76791  0.25459  1.0000
  H   H6732     1.0  0.94476  0.89408  0.25932  1.0000
  Fe  Fe419     1.0  0.73602  0.68451  0.19634  1.0000
  H   H6733     1.0  0.69422  0.74241  0.22935  1.0000
  H   H6734     1.0  0.66849  0.53946  0.19740  1.0000
  Fe  Fe420     1.0  0.76159  0.69321  0.20898  1.0000
  H   H6735     1.0  0.61425  0.52511  0.19220  1.0000
  S   S834      1.0  0.76298  0.69874  0.22752  1.0000
  H   H6736     1.0  0.72021  0.86188  0.18976  1.0000
  H   H6737     1.0  0.70036  0.85108  0.31385  1.0000
  H   H6738     1.0  0.67470  0.70365  0.21265  1.0000
  H   H6739     1.0  0.91101  0.79365  0.34150  1.0000
  S   S835      1.0  0.74045  0.71005  0.19826  1.0000
  S   S836      1.0  0.75510  0.66763  0.20871  1.0000
  Fe  Fe421     1.0  0.74273  0.87760  0.25681  1.0000
  S   S837      1.0  0.74187  0.88924  0.23640  1.0000
  S   S838      1.0  0.76960  0.86497  0.26212  1.0000
  Fe  Fe422     1.0  0.70246  0.88861  0.26527  1.0000
  S   S839      1.0  0.69813  0.90094  0.24553  1.0000
  S   S840      1.0  0.67978  0.88794  0.28238  1.0000
  Fe  Fe423     1.0  0.71812  0.87684  0.24012  1.0000
  S   S841      1.0  0.71938  0.86054  0.22602  1.0000
  Fe  Fe424     1.0  0.72216  0.91214  0.24354  1.0000
  S   S842      1.0  0.72275  0.94023  0.23292  1.0000
  S   S843      1.0  0.72044  0.86349  0.26013  1.0000
  S   S844      1.0  0.72497  0.90155  0.26371  1.0000
  Fe  Fe425     1.0  0.89042  0.86577  0.29156  1.0000
  S   S845      1.0  0.90967  0.86521  0.27279  1.0000
  S   S846      1.0  0.87700  0.89107  0.29837  1.0000
  Fe  Fe426     1.0  0.89293  0.82624  0.29799  1.0000
  S   S847      1.0  0.91215  0.82234  0.27975  1.0000
  S   S848      1.0  0.88346  0.80322  0.31217  1.0000
  Fe  Fe427     1.0  0.92576  0.84101  0.28351  1.0000
  S   S849      1.0  0.95602  0.83341  0.28080  1.0000
  Fe  Fe428     1.0  0.89420  0.84655  0.27096  1.0000
  S   S850      1.0  0.88625  0.84897  0.25266  1.0000
  S   S851      1.0  0.90777  0.84309  0.30251  1.0000
  S   S852      1.0  0.87374  0.84900  0.28889  1.0000
  H   H6740     1.0  0.70120  0.72173  0.21028  1.0000
  S   S853      1.0  0.76533  0.95753  0.28383  1.0000
  H   H6741     1.0  0.86986  0.98873  0.29110  1.0000
  H   H6742     1.0  0.82514  0.97822  0.29896  1.0000
  Fe  Fe429     1.0  0.79492  0.95618  0.27635  1.0000
  S   S854      1.0  0.81329  0.93153  0.27059  1.0000
  Fe  Fe430     1.0  0.76814  0.97332  0.29660  1.0000
  S   S855      1.0  0.75665  0.96853  0.31751  1.0000
  Fe  Fe431     1.0  0.82514  0.74389  0.24796  1.0000
  S   S856      1.0  0.80959  0.73868  0.26796  1.0000
  S   S857      1.0  0.82446  0.73289  0.23152  1.0000
  Fe  Fe432     1.0  0.84415  0.76881  0.25334  1.0000
  S   S858      1.0  0.82989  0.76597  0.27376  1.0000
  S   S859      1.0  0.86612  0.78355  0.24255  1.0000
  Fe  Fe433     1.0  0.83523  0.73697  0.27373  1.0000
  S   S860      1.0  0.84265  0.71599  0.29066  1.0000
  Fe  Fe434     1.0  0.80556  0.76789  0.26634  1.0000
  S   S861      1.0  0.77746  0.78223  0.27325  1.0000
  S   S862      1.0  0.85129  0.73956  0.25383  1.0000
  S   S863      1.0  0.81930  0.77339  0.24586  1.0000
  Fe  Fe435     1.0  0.92911  0.68476  0.31823  1.0000
  S   S864      1.0  0.91435  0.70762  0.32740  1.0000
  S   S865      1.0  0.91918  0.67886  0.30296  1.0000
  Fe  Fe436     1.0  0.95846  0.67454  0.33365  1.0000
  S   S866      1.0  0.94549  0.69648  0.34400  1.0000
  S   S867      1.0  0.98466  0.65857  0.33863  1.0000
  Fe  Fe437     1.0  0.91986  0.68865  0.34540  1.0000
  S   S868      1.0  0.89999  0.68723  0.36403  1.0000
  Fe  Fe438     1.0  0.94160  0.71288  0.32503  1.0000
  S   S869      1.0  0.94967  0.73918  0.31788  1.0000
  S   S870      1.0  0.93304  0.66519  0.33649  1.0000
  S   S871      1.0  0.95621  0.69139  0.31443  1.0000
  C   C3777     1.0  0.86523  0.70856  0.29215  1.0000
  C   C3778     1.0  0.87073  0.71305  0.30152  1.0000
  C   C3779     1.0  0.88748  0.70450  0.30464  1.0000
  C   C3780     1.0  0.89878  0.69118  0.29853  1.0000
  C   C3781     1.0  0.89344  0.68700  0.28894  1.0000
  C   C3782     1.0  0.87674  0.69565  0.28576  1.0000
  H   H6743     1.0  0.86175  0.72283  0.30663  1.0000
  H   H6744     1.0  0.89139  0.70789  0.31201  1.0000
  H   H6745     1.0  0.90206  0.67670  0.28418  1.0000
  H   H6746     1.0  0.87244  0.69177  0.27874  1.0000
  H   H6747     1.0  0.69985  0.98884  0.29054  1.0000
  C   C3783     1.0  0.95557  0.85475  0.29645  1.0000
  H   H6748     1.0  0.94171  0.86041  0.29580  1.0000
  C   C3784     1.0  0.88003  0.83067  0.25052  1.0000
  C   C3785     1.0  0.88571  0.82656  0.23856  1.0000
  C   C3786     1.0  0.88122  0.81211  0.23636  1.0000
  C   C3787     1.0  0.86999  0.80229  0.24585  1.0000
  C   C3788     1.0  0.86354  0.80681  0.25774  1.0000
  C   C3789     1.0  0.86902  0.82069  0.26019  1.0000
  H   H6749     1.0  0.89412  0.83424  0.23104  1.0000
  H   H6750     1.0  0.88633  0.80863  0.22719  1.0000
  H   H6751     1.0  0.85481  0.79930  0.26510  1.0000
  H   H6752     1.0  0.86470  0.82372  0.26949  1.0000
  C   C3790     1.0  0.93101  0.75661  0.31620  1.0000
  C   C3791     1.0  0.91371  0.75463  0.32283  1.0000
  C   C3792     1.0  0.89902  0.76894  0.32152  1.0000
  C   C3793     1.0  0.90173  0.78532  0.31379  1.0000
  C   C3794     1.0  0.91909  0.78732  0.30737  1.0000
  C   C3795     1.0  0.93363  0.77289  0.30838  1.0000
  H   H6753     1.0  0.91167  0.74228  0.32924  1.0000
  H   H6754     1.0  0.88563  0.76742  0.32662  1.0000
  H   H6755     1.0  0.92140  0.80002  0.30171  1.0000
  H   H6756     1.0  0.94692  0.77434  0.30309  1.0000
  C   C3796     1.0  0.85938  0.90262  0.29067  1.0000
  C   C3797     1.0  0.84599  0.91590  0.29568  1.0000
  C   C3798     1.0  0.83179  0.92509  0.28955  1.0000
  C   C3799     1.0  0.83098  0.92090  0.27843  1.0000
  C   C3800     1.0  0.84421  0.90747  0.27358  1.0000
  C   C3801     1.0  0.85844  0.89840  0.27961  1.0000
  H   H6757     1.0  0.84649  0.91883  0.30442  1.0000
  H   H6758     1.0  0.82137  0.93510  0.29355  1.0000
  H   H6759     1.0  0.84347  0.90413  0.26510  1.0000
  H   H6760     1.0  0.86871  0.88817  0.27568  1.0000
  C   C3802     1.0  0.77219  0.84182  0.26659  1.0000
  C   C3803     1.0  0.78907  0.83082  0.26347  1.0000
  C   C3804     1.0  0.79088  0.81240  0.26580  1.0000
  C   C3805     1.0  0.77578  0.80496  0.27132  1.0000
  C   C3806     1.0  0.75903  0.81586  0.27491  1.0000
  C   C3807     1.0  0.75726  0.83426  0.27258  1.0000
  H   H6761     1.0  0.80060  0.83648  0.25867  1.0000
  H   H6762     1.0  0.80386  0.80402  0.26302  1.0000
  H   H6763     1.0  0.74738  0.81008  0.27933  1.0000
  H   H6764     1.0  0.74433  0.84256  0.27545  1.0000
  C   C3808     1.0  0.72886  0.95434  0.23989  1.0000
  C   C3809     1.0  0.72741  0.97224  0.23387  1.0000
  H   H6765     1.0  0.56043  0.92216  0.37815  1.0000
  C   C3810     1.0  0.73817  0.97788  0.25042  1.0000
  C   C3811     1.0  0.73977  0.95995  0.25646  1.0000
  C   C3812     1.0  0.73497  0.94821  0.25123  1.0000
  H   H6766     1.0  0.97674  0.79646  0.28838  1.0000
  S   S872      1.0  0.79142  0.98102  0.26136  1.0000
  H   H6767     1.0  0.74428  0.95526  0.26528  1.0000
  H   H6768     1.0  0.73604  0.93446  0.25592  1.0000
  C   C3813     1.0  0.77981  0.70875  0.22843  1.0000
  C   C3814     1.0  0.79326  0.71311  0.21788  1.0000
  C   C3815     1.0  0.80664  0.72078  0.21895  1.0000
  C   C3816     1.0  0.80673  0.72417  0.23056  1.0000
  C   C3817     1.0  0.79326  0.71987  0.24113  1.0000
  C   C3818     1.0  0.77985  0.71219  0.24005  1.0000
  H   H6769     1.0  0.79342  0.71048  0.20890  1.0000
  H   H6770     1.0  0.81706  0.72400  0.21075  1.0000
  H   H6771     1.0  0.79331  0.72226  0.25015  1.0000
  H   H6772     1.0  0.76960  0.70868  0.24828  1.0000
  H   H6773     1.0  0.73024  0.96780  0.30405  1.0000
  C   C3819     1.0  0.63601  0.50249  0.18897  1.0000
  C   C3820     1.0  0.71686  0.64682  0.19861  1.0000
  H   H6774     1.0  0.98285  0.86785  0.27574  1.0000
  H   H6775     1.0  0.83584  0.95367  0.32325  1.0000
  H   H6776     1.0  0.80988  0.65210  0.23376  1.0000
  H   H6777     1.0  0.60576  0.51621  0.23429  1.0000
  H   H6778     1.0  0.72596  0.64633  0.20442  1.0000
  H   H6779     1.0  0.93920  0.76465  0.35409  1.0000
  C   C3821     1.0  0.92546  0.57961  0.37247  1.0000
  H   H6780     1.0  0.99459  0.92298  0.28651  1.0000
  H   H6781     1.0  0.83129  0.96500  0.25924  1.0000
  C   C3822     1.0  0.74695  0.74750  0.21486  1.0000
  H   H6782     1.0  0.60736  0.53140  0.21193  1.0000
  H   H6783     1.0  0.61477  0.94939  0.38143  1.0000
  H   H6784     1.0  0.81300  0.70100  0.28601  1.0000
  H   H6785     1.0  0.66434  0.95293  0.37150  1.0000
  H   H6786     1.0  0.70314  0.93850  0.28566  1.0000
  H   H6787     1.0  0.97959  0.77352  0.29634  1.0000
  H   H6788     1.0  0.72695  0.76915  0.20689  1.0000
  C   C3823     1.0  0.99487  0.69043  0.32822  1.0000
  H   H6789     1.0  0.97542  0.80476  0.30858  1.0000
  C   C3824     1.0  0.73034  0.76288  0.21635  1.0000
  H   H6790     1.0  0.74498  0.82166  0.19704  1.0000
  H   H6791     1.0  0.66367  0.98150  0.37570  1.0000
  C   C3825     1.0  0.73186  0.98397  0.23917  1.0000
  C   C3826     1.0  0.69925  0.77473  0.22591  1.0000
  C   C3827     1.0  0.85900  0.89149  0.24120  1.0000
  H   H6792     1.0  0.96471  0.89787  0.27129  1.0000
  H   H6793     1.0  0.97516  0.58655  0.35255  1.0000
  C   C3828     1.0  0.67037  0.85106  0.21646  1.0000
  C   C3829     1.0  0.68776  0.84251  0.21158  1.0000
  C   C3830     1.0  0.70255  0.84534  0.21480  1.0000
  C   C3831     1.0  0.70015  0.85659  0.22303  1.0000
  C   C3832     1.0  0.68274  0.86496  0.22811  1.0000
  C   C3833     1.0  0.66788  0.86220  0.22481  1.0000
  H   H6794     1.0  0.68985  0.83387  0.20516  1.0000
  H   H6795     1.0  0.71589  0.83904  0.21060  1.0000
  H   H6796     1.0  0.68071  0.87372  0.23443  1.0000
  H   H6797     1.0  0.65444  0.86887  0.22863  1.0000
  H   H6798     1.0  0.68989  0.93030  0.31255  1.0000
  C   C3834     1.0  0.69421  0.73571  0.20733  1.0000
  H   H6799     1.0  0.90722  0.77984  0.35718  1.0000
  C   C3835     1.0  0.98318  0.71314  0.35403  1.0000
  H   H6800     1.0  0.53181  0.70391  0.18785  1.0000
  C   C3836     1.0  0.63563  0.66201  0.19448  1.0000
  H   H6801     1.0  0.72271  0.97706  0.22510  1.0000
  H   H6802     1.0  0.99797  0.74093  0.35727  1.0000
  H   H6803     1.0  0.99167  0.77802  0.31942  1.0000
  H   H6804     1.0  0.93705  0.62997  0.37780  1.0000
  C   C3837     1.0  0.64752  0.94223  0.28947  1.0000
  C   C3838     1.0  0.63945  0.92758  0.29341  1.0000
  C   C3839     1.0  0.64944  0.91097  0.29115  1.0000
  C   C3840     1.0  0.66733  0.90908  0.28450  1.0000
  C   C3841     1.0  0.67525  0.92387  0.28017  1.0000
  C   C3842     1.0  0.66546  0.94034  0.28293  1.0000
  H   H6805     1.0  0.62550  0.92904  0.29829  1.0000
  H   H6806     1.0  0.64323  0.89961  0.29443  1.0000
  H   H6807     1.0  0.68902  0.92253  0.27495  1.0000
  H   H6808     1.0  0.67170  0.95162  0.27988  1.0000
  C   C3843     1.0  0.70237  0.95249  0.33160  1.0000
  C   C3844     1.0  0.70861  0.95847  0.31860  1.0000
  C   C3845     1.0  0.72542  0.96325  0.31409  1.0000
  C   C3846     1.0  0.73578  0.96238  0.32265  1.0000
  C   C3847     1.0  0.72942  0.95660  0.33564  1.0000
  C   C3848     1.0  0.71290  0.95140  0.34009  1.0000
  H   H6809     1.0  0.96167  0.87646  0.25329  1.0000
  H   H6810     1.0  0.65841  0.63934  0.19413  1.0000
  H   H6811     1.0  0.61792  0.53367  0.23035  1.0000
  C   C3849     1.0  0.84627  0.97266  0.27642  1.0000
  H   H6812     1.0  0.80261  0.60682  0.19144  1.0000
  C   C3850     1.0  0.84839  0.65856  0.37880  1.0000
  C   C3851     1.0  0.90134  0.65190  0.36666  1.0000
  H   H6813     1.0  0.70066  0.95912  0.31200  1.0000
  H   H6814     1.0  0.73740  0.95593  0.34227  1.0000
  H   H6815     1.0  0.84787  0.86436  0.25819  1.0000
  H   H6816     1.0  0.68750  0.96514  0.26037  1.0000
  H   H6817     1.0  0.71638  0.73135  0.22371  1.0000
  C   C3852     1.0  0.96541  0.84098  0.29032  1.0000
  H   H6818     1.0  0.90581  0.74947  0.24858  1.0000
  H   H6819     1.0  0.64006  0.55957  0.19075  1.0000
  H   H6820     1.0  0.69812  0.96775  0.28867  1.0000
  N   N213      1.0  0.90201  0.76144  0.27280  1.0000
  H   H6821     1.0  0.94451  0.84336  0.32952  1.0000
  C   C3853     1.0  0.70296  0.79027  0.22995  1.0000
  H   H6822     1.0  0.61560  0.58695  0.18983  1.0000
  H   H6823     1.0  0.83226  0.83524  0.22261  1.0000
  H   H6824     1.0  0.81849  0.86409  0.22792  1.0000
  C   C3854     1.0  0.96672  0.79870  0.33532  1.0000
  C   C3855     1.0  0.78641  0.89854  0.23243  1.0000
  H   H6825     1.0  0.60628  0.72276  0.19585  1.0000
  H   H6826     1.0  0.84465  0.97567  0.24499  1.0000
  C   C3856     1.0  0.90023  0.66539  0.37271  1.0000
  H   H6827     1.0  0.80406  0.89171  0.25328  1.0000
  H   H6828     1.0  0.69140  0.88161  0.34545  1.0000
  H   H6829     1.0  0.70313  0.89880  0.21817  1.0000
  H   H6830     1.0  0.90218  0.65486  0.35658  1.0000
  C   C3857     1.0  0.84018  0.86687  0.23561  1.0000
  C   C3858     1.0  0.69800  0.98844  0.27161  1.0000
  S   S873      1.0  0.79810  0.96978  0.29035  1.0000
  C   C3859     1.0  0.98397  0.68836  0.37371  1.0000
  C   C3860     1.0  0.70421  0.74857  0.20889  1.0000
  H   H6831     1.0  0.82237  0.84763  0.24183  1.0000
  H   H6832     1.0  0.99346  0.60439  0.32719  1.0000
  H   H6833     1.0  0.57934  0.93238  0.37290  1.0000
  H   H6834     1.0  0.69287  0.86522  0.33234  1.0000
  H   H6835     1.0  0.80418  0.87361  0.24735  1.0000
  N   N214      1.0  0.83946  0.67097  0.25203  1.0000
  H   H6836     1.0  0.92260  0.78562  0.27064  1.0000
  H   H6837     1.0  0.98918  0.73920  0.30088  1.0000
  H   H6838     1.0  0.63918  0.53841  0.20972  1.0000
  H   H6839     1.0  0.97561  0.70677  0.35018  1.0000
  H   H6840     1.0  0.64815  0.51595  0.20901  1.0000
  N   N215      1.0  0.63655  0.69273  0.19750  1.0000
  C   C3861     1.0  0.64430  0.67303  0.19964  1.0000
  C   C3862     1.0  0.64839  0.70152  0.20124  1.0000
  C   C3863     1.0  0.61767  0.69576  0.20537  1.0000
  C   C3864     1.0  0.71780  0.75185  0.23918  1.0000
  C   C3865     1.0  0.70707  0.74453  0.22262  1.0000
  H   H6841     1.0  0.81403  0.96759  0.32185  1.0000
  C   C3866     1.0  0.60812  0.71539  0.20547  1.0000
  C   C3867     1.0  0.64870  0.69702  0.21552  1.0000
  C   C3868     1.0  0.66069  0.70717  0.21806  1.0000
  C   C3869     1.0  0.95021  0.63381  0.37417  1.0000
  H   H6842     1.0  0.65579  0.98008  0.26635  1.0000
  C   C3870     1.0  0.58943  0.71668  0.21410  1.0000
  H   H6843     1.0  0.64317  0.66721  0.20994  1.0000
  S   S874      1.0  0.64635  0.99059  0.33419  1.0000
  C   C3871     1.0  0.99270  0.60492  0.34665  1.0000
  H   H6844     1.0  0.64470  0.71621  0.19810  1.0000
  H   H6845     1.0  0.61730  0.68828  0.21533  1.0000
  H   H6846     1.0  0.60887  0.69028  0.20190  1.0000
  C   C3872     1.0  0.65075  0.97884  0.37556  1.0000
  H   H6847     1.0  0.72223  0.61842  0.20087  1.0000
  H   H6848     1.0  0.72126  0.89043  0.19000  1.0000
  H   H6849     1.0  0.95930  0.65880  0.36691  1.0000
  H   H6850     1.0  0.99110  0.82325  0.28636  1.0000
  H   H6851     1.0  0.80604  0.68143  0.28599  1.0000
  H   H6852     1.0  0.83169  0.66692  0.36516  1.0000
  H   H6853     1.0  0.61579  0.72218  0.20887  1.0000
  H   H6854     1.0  0.63511  0.70065  0.22140  1.0000
  H   H6855     1.0  0.83760  0.98303  0.30839  1.0000
  H   H6856     1.0  0.65553  0.72170  0.21531  1.0000
  H   H6857     1.0  0.66088  0.70368  0.22830  1.0000
  C   C3873     1.0  0.68002  0.97308  0.25296  1.0000
  C   C3874     1.0  0.90091  0.63461  0.37374  1.0000
  C   C3875     1.0  0.97474  0.76637  0.34308  1.0000
  H   H6858     1.0  0.69352  0.73811  0.19723  1.0000
  C   C3876     1.0  0.55375  0.95140  0.37688  1.0000
  C   C3877     1.0  0.83499  0.97228  0.30508  1.0000
  H   H6859     1.0  0.99205  0.91742  0.36903  1.0000
  H   H6860     1.0  0.59034  0.70994  0.22402  1.0000
  H   H6861     1.0  0.58283  0.73085  0.21387  1.0000
  C   C3878     1.0  0.61826  0.52057  0.22861  1.0000
  H   H6862     1.0  0.68941  0.97896  0.24461  1.0000
  C   C3879     1.0  0.93320  0.72541  0.29334  1.0000
  H   H6863     1.0  0.88849  0.75555  0.30056  1.0000
  H   H6864     1.0  0.82706  0.66079  0.22106  1.0000
  C   C3880     1.0  0.98183  0.78659  0.29638  1.0000
  H   H6865     1.0  0.93855  0.79051  0.24830  1.0000
  H   H6866     1.0  0.70286  0.88369  0.20162  1.0000
  C   C3881     1.0  0.83870  0.89496  0.24122  1.0000
  H   H6867     1.0  0.99147  0.73228  0.28644  1.0000
  H   H6868     1.0  0.96926  0.57020  0.38120  1.0000
  H   H6869     1.0  0.94059  0.78909  0.32771  1.0000
  H   H6870     1.0  0.86150  0.98348  0.25738  1.0000
  H   H6871     1.0  0.85845  0.91860  0.24182  1.0000
  H   H6872     1.0  0.96573  0.79798  0.34553  1.0000
  H   H6873     1.0  0.65530  0.90224  0.31569  1.0000
  H   H6874     1.0  0.86473  0.91417  0.22602  1.0000
  H   H6875     1.0  0.67984  0.87806  0.19542  1.0000
  H   H6876     1.0  0.91401  0.59081  0.37056  1.0000
  H   H6877     1.0  0.82274  0.83322  0.28207  1.0000
  H   H6878     1.0  0.76016  0.80208  0.19254  1.0000
  H   H6879     1.0  0.66645  0.89788  0.33696  1.0000
  H   H6880     1.0  0.84535  0.87487  0.22616  1.0000
  C   C3882     1.0  0.86600  0.90862  0.23601  1.0000
  H   H6881     1.0  0.89112  0.62472  0.25490  1.0000
  C   C3883     1.0  0.83335  0.86942  0.25816  1.0000
  C   C3884     1.0  0.59359  0.98322  0.36116  1.0000
  C   C3885     1.0  0.86088  0.98983  0.28467  1.0000
  C   C3886     1.0  0.86207  0.77185  0.30109  1.0000
  H   H6882     1.0  0.72364  0.88054  0.34529  1.0000
  H   H6883     1.0  0.93835  0.81316  0.33704  1.0000
  H   H6884     1.0  0.63516  0.89785  0.33639  1.0000
  H   H6885     1.0  0.83138  0.84227  0.25947  1.0000
  H   H6886     1.0  0.66344  0.91812  0.19135  1.0000
  C   C3887     1.0  0.81076  0.88494  0.24529  1.0000
  H   H6887     1.0  0.88042  0.90578  0.23638  1.0000
  C   C3888     1.0  0.96393  0.86176  0.30296  1.0000
  N   N216      1.0  0.68787  0.90291  0.32054  1.0000
  H   H6888     1.0  0.68275  0.88977  0.30775  1.0000
  H   H6889     1.0  0.97702  0.76480  0.31915  1.0000
  N   N217      1.0  0.54518  0.95622  0.36554  1.0000
  C   C3889     1.0  0.55676  0.94775  0.35473  1.0000
  H   H6890     1.0  0.99099  0.88785  0.28491  1.0000
  C   C3890     1.0  0.57467  0.95399  0.34839  1.0000
  C   C3891     1.0  0.58767  0.94128  0.34039  1.0000
  H   H6891     1.0  0.54922  0.95047  0.34709  1.0000
  H   H6892     1.0  0.55999  0.93311  0.35768  1.0000
  C   C3892     1.0  0.52897  0.98767  0.36981  1.0000
  H   H6893     1.0  0.86281  0.65488  0.37925  1.0000
  H   H6894     1.0  0.82291  0.68609  0.23114  1.0000
  H   H6895     1.0  0.92395  0.56804  0.36952  1.0000
  H   H6896     1.0  0.57201  0.96724  0.34199  1.0000
  H   H6897     1.0  0.58139  0.95515  0.35551  1.0000
  H   H6898     1.0  0.87449  0.62604  0.26940  1.0000
  C   C3893     1.0  0.87873  0.76054  0.29424  1.0000
  H   H6899     1.0  0.59185  0.92811  0.34647  1.0000
  H   H6900     1.0  0.58137  0.93974  0.33313  1.0000
  H   H6901     1.0  0.59983  0.94670  0.33543  1.0000
  N   N218      1.0  0.75689  0.81311  0.23284  1.0000
  C   C3894     1.0  0.74829  0.81230  0.22258  1.0000
  C   C3895     1.0  0.74269  0.81862  0.24403  1.0000
  C   C3896     1.0  0.76787  0.82725  0.22726  1.0000
  C   C3897     1.0  0.76930  0.79580  0.23706  1.0000
  C   C3898     1.0  0.76058  0.77948  0.24249  1.0000
  C   C3899     1.0  0.76116  0.80582  0.21081  1.0000
  C   C3900     1.0  0.77626  0.83197  0.23657  1.0000
  C   C3901     1.0  0.72452  0.81284  0.24702  1.0000
  C   C3902     1.0  0.71266  0.81713  0.25947  1.0000
  C   C3903     1.0  0.77478  0.76239  0.24450  1.0000
  C   C3904     1.0  0.75089  0.80752  0.20063  1.0000
  C   C3905     1.0  0.78537  0.84762  0.23009  1.0000
  H   H6902     1.0  0.74017  0.82565  0.21927  1.0000
  H   H6903     1.0  0.73865  0.80342  0.22620  1.0000
  H   H6904     1.0  0.74821  0.81398  0.25279  1.0000
  H   H6905     1.0  0.73888  0.83334  0.24265  1.0000
  H   H6906     1.0  0.75944  0.83978  0.22283  1.0000
  H   H6907     1.0  0.77934  0.82328  0.21961  1.0000
  H   H6908     1.0  0.78093  0.79287  0.22918  1.0000
  H   H6909     1.0  0.77536  0.79672  0.24466  1.0000
  H   H6910     1.0  0.75278  0.77808  0.23612  1.0000
  H   H6911     1.0  0.75169  0.78056  0.25190  1.0000
  H   H6912     1.0  0.77168  0.81364  0.20635  1.0000
  H   H6913     1.0  0.76780  0.79165  0.21349  1.0000
  H   H6914     1.0  0.78660  0.82059  0.24004  1.0000
  H   H6915     1.0  0.76595  0.83580  0.24481  1.0000
  H   H6916     1.0  0.71700  0.82012  0.23943  1.0000
  H   H6917     1.0  0.72641  0.79847  0.24771  1.0000
  H   H6918     1.0  0.71957  0.81040  0.26745  1.0000
  H   H6919     1.0  0.70925  0.83167  0.25885  1.0000
  H   H6920     1.0  0.69994  0.81256  0.26143  1.0000
  H   H6921     1.0  0.78259  0.76277  0.25124  1.0000
  H   H6922     1.0  0.76812  0.75095  0.24854  1.0000
  H   H6923     1.0  0.78410  0.76037  0.23538  1.0000
  C   C3906     1.0  0.99896  0.73305  0.29327  1.0000
  H   H6924     1.0  0.53699  0.97983  0.35172  1.0000
  H   H6925     1.0  0.80416  0.67309  0.22321  1.0000
  H   H6926     1.0  0.77551  0.85947  0.22650  1.0000
  H   H6927     1.0  0.79084  0.85098  0.23704  1.0000
  H   H6928     1.0  0.79657  0.84423  0.22212  1.0000
  C   C3907     1.0  0.70916  0.91422  0.29968  1.0000
  C   C3908     1.0  0.87798  0.96107  0.27973  1.0000
  C   C3909     1.0  0.87925  0.94098  0.28103  1.0000
  C   C3910     1.0  0.89671  0.93242  0.27305  1.0000
  H   H6929     1.0  0.88757  0.96202  0.28506  1.0000
  H   H6930     1.0  0.79904  0.70219  0.27537  1.0000
  H   H6931     1.0  0.86307  0.95961  0.30355  1.0000
  H   H6932     1.0  0.85050  0.94919  0.29795  1.0000
  C   C3911     1.0  0.66919  0.90819  0.32825  1.0000
  H   H6933     1.0  0.87891  0.93387  0.29105  1.0000
  H   H6934     1.0  0.86786  0.93875  0.27812  1.0000
  H   H6935     1.0  0.56230  0.96081  0.37604  1.0000
  H   H6936     1.0  0.97417  0.68447  0.37004  1.0000
  H   H6937     1.0  0.89734  0.93840  0.26283  1.0000
  H   H6938     1.0  0.90849  0.93403  0.27587  1.0000
  H   H6939     1.0  0.89725  0.91801  0.27459  1.0000
  C   C3912     1.0  0.91439  0.79020  0.26330  1.0000
  H   H6940     1.0  0.87671  0.73690  0.34232  1.0000
  H   H6941     1.0  0.68577  0.90435  0.34693  1.0000
  H   H6942     1.0  0.62653  0.74884  0.19188  1.0000
  H   H6943     1.0  0.91048  0.71786  0.24936  1.0000
  H   H6944     1.0  0.92813  0.81151  0.25280  1.0000
  H   H6945     1.0  0.71683  0.90323  0.34746  1.0000
  C   C3913     1.0  0.91778  0.73262  0.28642  1.0000
  H   H6946     1.0  0.62991  0.51073  0.23184  1.0000
  H   H6947     1.0  0.97992  0.80227  0.33040  1.0000
  C   C3914     1.0  0.84074  0.84265  0.22469  1.0000
  S   S875      1.0  0.70777  0.68288  0.19693  1.0000
  C   C3915     1.0  0.70376  0.91145  0.19836  1.0000
  H   H6948     1.0  0.86189  0.71268  0.35516  1.0000
  H   H6949     1.0  0.62440  0.91627  0.32572  1.0000
  H   H6950     1.0  0.81483  0.89437  0.22446  1.0000
  C   C3916     1.0  0.82702  0.84610  0.27825  1.0000
  N   N219      1.0  0.83065  0.87871  0.24495  1.0000
  C   C3917     1.0  0.76136  0.75303  0.20336  1.0000
  H   H6951     1.0  0.71937  0.73274  0.26384  1.0000
  C   C3918     1.0  0.82473  0.85317  0.26457  1.0000
  H   H6952     1.0  0.74209  0.73377  0.25506  1.0000
  H   H6953     1.0  0.88736  0.64316  0.26225  1.0000
  H   H6954     1.0  0.73484  0.71308  0.25960  1.0000
  H   H6955     1.0  0.83973  0.69712  0.24014  1.0000
  C   C3919     1.0  0.99981  0.67278  0.33446  1.0000
  N   N220      1.0  0.78091  0.89308  0.29906  1.0000
  C   C3920     1.0  0.77548  0.90830  0.28853  1.0000
  C   C3921     1.0  0.77408  0.89857  0.31172  1.0000
  C   C3922     1.0  0.80119  0.88868  0.29660  1.0000
  C   C3923     1.0  0.77470  0.87671  0.29937  1.0000
  C   C3924     1.0  0.75444  0.87907  0.29999  1.0000
  C   C3925     1.0  0.78153  0.90459  0.27498  1.0000
  C   C3926     1.0  0.80962  0.87348  0.30661  1.0000
  C   C3927     1.0  0.75605  0.91235  0.31358  1.0000
  C   C3928     1.0  0.74949  0.91418  0.32735  1.0000
  C   C3929     1.0  0.75024  0.86199  0.29909  1.0000
  C   C3930     1.0  0.77315  0.92016  0.26557  1.0000
  C   C3931     1.0  0.82985  0.87194  0.30418  1.0000
  H   H6956     1.0  0.78093  0.91980  0.28838  1.0000
  H   H6957     1.0  0.76070  0.91310  0.29018  1.0000
  H   H6958     1.0  0.77295  0.88670  0.31958  1.0000
  H   H6959     1.0  0.78393  0.90475  0.31358  1.0000
  H   H6960     1.0  0.80624  0.90073  0.29581  1.0000
  H   H6961     1.0  0.80711  0.88470  0.28737  1.0000
  H   H6962     1.0  0.78243  0.87083  0.29106  1.0000
  H   H6963     1.0  0.77774  0.86617  0.30775  1.0000
  H   H6964     1.0  0.74990  0.88963  0.29211  1.0000
  H   H6965     1.0  0.74649  0.88216  0.30918  1.0000
  H   H6966     1.0  0.79630  0.90278  0.27173  1.0000
  H   H6967     1.0  0.77745  0.89266  0.27449  1.0000
  H   H6968     1.0  0.80746  0.86057  0.30617  1.0000
  H   H6969     1.0  0.80381  0.87564  0.31637  1.0000
  H   H6970     1.0  0.75781  0.92563  0.30771  1.0000
  H   H6971     1.0  0.74537  0.90872  0.31087  1.0000
  H   H6972     1.0  0.73595  0.92299  0.32854  1.0000
  H   H6973     1.0  0.74853  0.90111  0.33382  1.0000
  H   H6974     1.0  0.75871  0.92015  0.33002  1.0000
  H   H6975     1.0  0.75363  0.85103  0.30714  1.0000
  H   H6976     1.0  0.73571  0.86411  0.29927  1.0000
  H   H6977     1.0  0.75796  0.85802  0.29008  1.0000
  H   H6978     1.0  0.75832  0.92199  0.26810  1.0000
  H   H6979     1.0  0.77694  0.93256  0.26547  1.0000
  H   H6980     1.0  0.77794  0.91756  0.25588  1.0000
  H   H6981     1.0  0.83590  0.85996  0.31060  1.0000
  H   H6982     1.0  0.83629  0.87085  0.29424  1.0000
  H   H6983     1.0  0.83267  0.88370  0.30605  1.0000
  C   C3932     1.0  0.60510  0.96109  0.37824  1.0000
  C   C3933     1.0  0.71107  0.90724  0.21037  1.0000
  H   H6984     1.0  0.64283  0.96127  0.36722  1.0000
  H   H6985     1.0  0.64593  0.88653  0.20554  1.0000
  C   C3934     1.0  0.98341  0.83381  0.29115  1.0000
  H   H6986     1.0  0.70549  0.75568  0.24639  1.0000
  C   C3935     1.0  0.61247  0.55996  0.19258  1.0000
  C   C3936     1.0  0.94766  0.77859  0.33450  1.0000
  H   H6987     1.0  0.66305  0.95399  0.25667  1.0000
  H   H6988     1.0  0.98663  0.60280  0.37297  1.0000
  H   H6989     1.0  0.85240  0.85777  0.23862  1.0000
  H   H6990     1.0  0.94826  0.76599  0.33184  1.0000
  H   H6991     1.0  0.96663  0.59996  0.38405  1.0000
  C   C3937     1.0  0.71469  0.63103  0.19663  1.0000
  N   N221      1.0  0.71399  0.75815  0.22595  1.0000
  H   H6992     1.0  0.51502  0.98586  0.37160  1.0000
  H   H6993     1.0  0.67753  0.85958  0.31165  1.0000
  H   H6994     1.0  0.83111  0.70178  0.26443  1.0000
  C   C3938     1.0  0.56601  0.93260  0.37945  1.0000
  H   H6995     1.0  0.63751  0.63472  0.19391  1.0000
  C   C3939     1.0  0.91569  0.78051  0.34747  1.0000
  H   H6996     1.0  0.69646  0.78047  0.21632  1.0000
  H   H6997     1.0  0.88173  0.75641  0.26534  1.0000
  H   H6998     1.0  0.85578  0.68015  0.23362  1.0000
  H   H6999     1.0  0.91388  0.76995  0.34354  1.0000
  H   H7000     1.0  0.73994  0.80010  0.20439  1.0000
  N   N222      1.0  0.85946  0.97156  0.28432  1.0000
  C   C3940     1.0  0.65347  0.91205  0.32146  1.0000
  C   C3941     1.0  0.68618  0.85527  0.31874  1.0000
  H   H7001     1.0  0.68862  0.81505  0.23569  1.0000
  H   H7002     1.0  0.81012  0.85660  0.26495  1.0000
  H   H7003     1.0  0.93664  0.78807  0.35242  1.0000
  C   C3942     1.0  0.97097  0.89100  0.26329  1.0000
  H   H7004     1.0  0.67643  0.79748  0.24183  1.0000
  C   C3943     1.0  0.90835  0.77466  0.26106  1.0000
  H   H7005     1.0  0.64108  0.63736  0.20842  1.0000
  C   C3944     1.0  0.88071  0.63394  0.26028  1.0000
  H   H7006     1.0  0.65241  0.92547  0.31520  1.0000
  C   C3945     1.0  0.99498  0.76490  0.34237  1.0000
  H   H7007     1.0  0.87326  0.65173  0.24344  1.0000
  H   H7008     1.0  0.88292  0.70709  0.24009  1.0000
  H   H7009     1.0  0.94047  0.60019  0.37907  1.0000
  C   C3946     1.0  0.85275  0.96234  0.29779  1.0000
  C   C3947     1.0  0.81831  0.67396  0.23704  1.0000
  H   H7010     1.0  0.51794  0.95779  0.37664  1.0000
  H   H7011     1.0  0.87443  0.74926  0.29293  1.0000
  H   H7012     1.0  0.73566  0.72587  0.23701  1.0000
  C   C3948     1.0  0.70190  0.90028  0.32821  1.0000
  C   C3949     1.0  0.91772  0.75199  0.27906  1.0000
  C   C3950     1.0  0.89433  0.74909  0.26870  1.0000
  H   H7013     1.0  0.90468  0.71288  0.26641  1.0000
  H   H7014     1.0  0.66996  0.87353  0.33021  1.0000
  H   H7015     1.0  0.91880  0.75962  0.28570  1.0000
  C   C3951     1.0  0.81022  0.69369  0.27989  1.0000
  H   H7016     1.0  0.96829  0.83426  0.32750  1.0000
  C   C3952     1.0  0.90212  0.72305  0.25779  1.0000
  C   C3953     1.0  0.65517  0.96505  0.36746  1.0000
  H   H7017     1.0  0.64034  0.49640  0.19808  1.0000
  C   C3954     1.0  0.90696  0.74021  0.25785  1.0000
  H   H7018     1.0  0.69635  0.76210  0.20598  1.0000
  H   H7019     1.0  0.67139  0.98308  0.27979  1.0000
  C   C3955     1.0  0.86653  0.64424  0.25252  1.0000
  H   H7020     1.0  0.90136  0.62429  0.36908  1.0000
  H   H7021     1.0  0.88778  0.72543  0.25744  1.0000
  H   H7022     1.0  0.93124  0.73272  0.30085  1.0000
  H   H7023     1.0  0.85143  0.77646  0.29548  1.0000
  H   H7024     1.0  0.68200  0.84367  0.32585  1.0000
  H   H7025     1.0  0.93336  0.71127  0.29779  1.0000
  C   C3956     1.0  0.86455  0.68910  0.24685  1.0000
  C   C3957     1.0  0.83887  0.97578  0.25515  1.0000
  C   C3958     1.0  0.69645  0.89398  0.34281  1.0000
  C   C3959     1.0  0.84940  0.68450  0.24273  1.0000
  H   H7026     1.0  0.95394  0.83129  0.34313  1.0000
  H   H7027     1.0  0.99206  0.61939  0.34419  1.0000
  H   H7028     1.0  0.70623  0.91294  0.32686  1.0000
  H   H7029     1.0  0.77665  0.90184  0.24108  1.0000
  S   S876      1.0  0.78379  0.69280  0.19164  1.0000
  H   H7030     1.0  0.73491  0.77314  0.21889  1.0000
  H   H7031     1.0  0.95114  0.81678  0.32121  1.0000
  H   H7032     1.0  0.91813  0.80362  0.24336  1.0000
  H   H7033     1.0  0.70334  0.97903  0.26525  1.0000
  C   C3960     1.0  0.62201  0.49317  0.18818  1.0000
  H   H7034     1.0  0.66196  0.97024  0.35763  1.0000
  H   H7035     1.0  0.84778  0.84987  0.21560  1.0000
  H   H7036     1.0  0.94631  0.72639  0.28670  1.0000
  C   C3961     1.0  0.95487  0.83194  0.33297  1.0000
  H   H7037     1.0  0.72648  0.92767  0.28363  1.0000
  H   H7038     1.0  0.78270  0.90877  0.22411  1.0000
  H   H7039     1.0  0.95642  0.87277  0.30737  1.0000
  H   H7040     1.0  0.65893  0.67034  0.19549  1.0000
  H   H7041     1.0  0.53315  0.98437  0.37900  1.0000
  Fe  Fe439     1.0  0.76212  0.98354  0.26990  1.0000
  S   S877      1.0  0.64154  0.77549  0.19563  1.0000
  C   C3962     1.0  0.64370  0.64218  0.19798  1.0000
  H   H7042     1.0  0.78535  0.88550  0.23140  1.0000
  H   H7043     1.0  0.93068  0.75145  0.27195  1.0000
  H   H7044     1.0  0.92122  0.73706  0.25862  1.0000
  H   H7045     1.0  0.75297  0.74374  0.22332  1.0000
  C   C3963     1.0  0.83247  0.66194  0.24470  1.0000
  H   H7046     1.0  0.85745  0.66255  0.26514  1.0000
  C   C3964     1.0  0.71404  0.93111  0.29077  1.0000
  H   H7047     1.0  0.84371  0.65581  0.23774  1.0000
  S   S878      1.0  0.66569  0.97707  0.30750  1.0000
  H   H7048     1.0  0.83772  0.68095  0.27498  1.0000
  H   H7049     1.0  0.59327  0.58515  0.19022  1.0000
  H   H7050     1.0  0.87576  0.67742  0.24807  1.0000
  H   H7051     1.0  0.68948  0.91819  0.20060  1.0000
  H   H7052     1.0  0.89208  0.78153  0.28417  1.0000
  C   C3965     1.0  0.66461  0.90415  0.19655  1.0000
  S   S879      1.0  0.99251  0.86461  0.31102  1.0000
  H   H7053     1.0  0.83948  0.96123  0.28013  1.0000
  H   H7054     1.0  0.75620  0.75617  0.19459  1.0000
  N   N223      1.0  0.96400  0.60572  0.36463  1.0000
  C   C3966     1.0  0.97365  0.60085  0.35206  1.0000
  C   C3967     1.0  0.94552  0.60137  0.36867  1.0000
  C   C3968     1.0  0.96152  0.62556  0.36272  1.0000
  C   C3969     1.0  0.97466  0.59698  0.37481  1.0000
  H   H7055     1.0  0.50833  0.91352  0.38089  1.0000
  C   C3970     1.0  0.98097  0.57655  0.37708  1.0000
  C   C3971     1.0  0.64589  0.90014  0.19974  1.0000
  C   C3972     1.0  0.94332  0.58470  0.36520  1.0000
  H   H7056     1.0  0.85377  0.62113  0.19107  1.0000
  C   C3973     1.0  0.71230  0.89069  0.34907  1.0000
  H   H7057     1.0  0.95414  0.57300  0.36722  1.0000
  H   H7058     1.0  0.53637  0.92268  0.36831  1.0000
  H   H7059     1.0  0.96540  0.60789  0.34482  1.0000
  H   H7060     1.0  0.84154  0.66956  0.38382  1.0000
  C   C3974     1.0  0.69101  0.91799  0.30929  1.0000
  H   H7061     1.0  0.93558  0.61248  0.36432  1.0000
  H   H7062     1.0  0.95524  0.63248  0.35441  1.0000
  H   H7063     1.0  0.97468  0.62944  0.36048  1.0000
  H   H7064     1.0  0.86191  0.71585  0.23504  1.0000
  H   H7065     1.0  0.62098  0.66385  0.19841  1.0000
  H   H7066     1.0  0.71892  0.97520  0.28217  1.0000
  H   H7067     1.0  0.76557  0.76475  0.20416  1.0000
  C   C3975     1.0  0.68558  0.80368  0.23341  1.0000
  H   H7068     1.0  0.95729  0.79491  0.30911  1.0000
  C   C3976     1.0  0.67106  0.53817  0.18744  1.0000
  H   H7069     1.0  0.70807  0.88585  0.35945  1.0000
  H   H7070     1.0  0.94351  0.58752  0.35491  1.0000
  H   H7071     1.0  0.82638  0.65086  0.25121  1.0000
  H   H7072     1.0  0.71434  0.89085  0.32480  1.0000
  N   N224      1.0  0.63888  0.53234  0.19212  1.0000
  C   C3977     1.0  0.82340  0.67973  0.26074  1.0000
  H   H7073     1.0  0.86093  0.63439  0.25033  1.0000
  C   C3978     1.0  0.63552  0.91160  0.33092  1.0000
  H   H7074     1.0  0.93875  0.65892  0.36283  1.0000
  C   C3979     1.0  0.85124  0.65674  0.25992  1.0000
  H   H7075     1.0  0.81523  0.66981  0.26652  1.0000
  C   C3980     1.0  0.52715  0.95109  0.36915  1.0000
  H   H7076     1.0  0.66262  0.69768  0.19628  1.0000
  H   H7077     1.0  0.58096  0.71058  0.21080  1.0000
  H   H7078     1.0  0.81441  0.69024  0.25519  1.0000
  H   H7079     1.0  0.89764  0.78054  0.25553  1.0000
  H   H7080     1.0  0.92497  0.57591  0.38283  1.0000
  H   H7081     1.0  0.81856  0.85551  0.28421  1.0000
  H   H7082     1.0  0.71321  0.72471  0.24566  1.0000
  H   H7083     1.0  0.67856  0.80885  0.22540  1.0000
  H   H7084     1.0  0.80528  0.67788  0.24351  1.0000
  H   H7085     1.0  0.86152  0.88624  0.25091  1.0000
  C   C3981     1.0  0.95647  0.88329  0.26135  1.0000
  H   H7086     1.0  0.77329  0.74195  0.20263  1.0000
  H   H7087     1.0  0.85969  0.69362  0.25588  1.0000
  C   C3982     1.0  0.99521  0.69910  0.36213  1.0000
  H   H7088     1.0  0.86709  0.88183  0.23528  1.0000
  C   C3983     1.0  0.88720  0.77156  0.28149  1.0000
  C   C3984     1.0  0.67289  0.96015  0.24877  1.0000
  H   H7089     1.0  0.72034  0.90745  0.30455  1.0000
  H   H7090     1.0  0.97487  0.90090  0.25458  1.0000
  C   C3985     1.0  0.63718  0.52737  0.20634  1.0000
  H   H7091     1.0  0.74351  0.73570  0.21357  1.0000
  H   H7092     1.0  0.83730  0.90231  0.23147  1.0000
  H   H7093     1.0  0.70932  0.78575  0.23824  1.0000
  H   H7094     1.0  0.98170  0.69550  0.32610  1.0000
  H   H7095     1.0  0.71199  0.79735  0.22196  1.0000
  C   C3986     1.0  0.82714  0.68913  0.26984  1.0000
  H   H7096     1.0  0.99162  0.72067  0.34590  1.0000
  H   H7097     1.0  0.55497  0.98059  0.35812  1.0000
  H   H7098     1.0  0.71746  0.74709  0.20221  1.0000
  C   C3987     1.0  0.94654  0.65404  0.37040  1.0000
  H   H7099     1.0  0.70828  0.90550  0.29377  1.0000
  H   H7100     1.0  0.87624  0.77918  0.27645  1.0000
  H   H7101     1.0  0.70998  0.91971  0.21333  1.0000
  C   C3988     1.0  0.82903  0.85550  0.23300  1.0000
  H   H7102     1.0  0.68645  0.77138  0.23208  1.0000
  C   C3989     1.0  0.00139  0.65815  0.37330  1.0000
  H   H7103     1.0  0.72791  0.75853  0.24006  1.0000
  C   C3990     1.0  0.58721  0.65891  0.18947  1.0000
  H   H7104     1.0  0.68045  0.92139  0.30375  1.0000
  C   C3991     1.0  0.97732  0.77810  0.32036  1.0000
  C   C3992     1.0  0.92548  0.79948  0.25117  1.0000
  H   H7105     1.0  0.82955  0.98879  0.25581  1.0000
  C   C3993     1.0  0.93539  0.77787  0.34791  1.0000
  C   C3994     1.0  0.52699  0.93121  0.37463  1.0000
  H   H7106     1.0  0.85676  0.76387  0.31045  1.0000
  H   H7107     1.0  0.90518  0.73154  0.29351  1.0000
  H   H7108     1.0  0.99640  0.78596  0.29487  1.0000
  C   C3995     1.0  0.70644  0.89443  0.19336  1.0000
  H   H7109     1.0  0.89002  0.73852  0.27677  1.0000
  H   H7110     1.0  0.84295  0.64819  0.26746  1.0000
  H   H7111     1.0  0.61677  0.96208  0.35835  1.0000
  H   H7112     1.0  0.83120  0.90440  0.24752  1.0000
  H   H7113     1.0  0.86714  0.67910  0.36047  1.0000
  H   H7114     1.0  0.66809  0.92034  0.33165  1.0000
  H   H7115     1.0  0.87875  0.69923  0.22776  1.0000
  C   C3996     1.0  0.80556  0.89800  0.23318  1.0000
  C   C3997     1.0  0.87248  0.70370  0.23680  1.0000
  H   H7116     1.0  0.80627  0.91162  0.23329  1.0000
  H   H7117     1.0  0.65412  0.68266  0.21874  1.0000
  H   H7118     1.0  0.84123  0.84403  0.27887  1.0000
  H   H7119     1.0  0.63333  0.92031  0.33762  1.0000
  H   H7120     1.0  0.50704  0.69021  0.18700  1.0000
  C   C3998     1.0  0.69005  0.88656  0.31557  1.0000
  H   H7121     1.0  0.70433  0.88191  0.31104  1.0000
  Fe  Fe440     1.0  0.77588  0.66848  0.19048  1.0000
  N   N225      1.0  0.85612  0.68581  0.34366  1.0000
  C   C3999     1.0  0.84069  0.68237  0.33984  1.0000
  C   C4000     1.0  0.85404  0.68071  0.35791  1.0000
  C   C4001     1.0  0.85533  0.70557  0.33952  1.0000
  C   C4002     1.0  0.87414  0.67643  0.33715  1.0000
  C   C4003     1.0  0.87709  0.65613  0.33868  1.0000
  C   C4004     1.0  0.84095  0.68752  0.32542  1.0000
  C   C4005     1.0  0.86728  0.71288  0.34491  1.0000
  C   C4006     1.0  0.84628  0.66401  0.36504  1.0000
  C   C4007     1.0  0.89372  0.64917  0.32924  1.0000
  C   C4008     1.0  0.82544  0.68240  0.32259  1.0000
  C   C4009     1.0  0.86823  0.73204  0.33814  1.0000
  H   H7122     1.0  0.82772  0.68970  0.34474  1.0000
  H   H7123     1.0  0.83978  0.66824  0.34307  1.0000
  H   H7124     1.0  0.84472  0.69161  0.36234  1.0000
  H   H7125     1.0  0.84131  0.71316  0.34217  1.0000
  H   H7126     1.0  0.85925  0.70946  0.32903  1.0000
  H   H7127     1.0  0.87684  0.68241  0.32686  1.0000
  H   H7128     1.0  0.88522  0.67849  0.34055  1.0000
  H   H7129     1.0  0.86567  0.65223  0.33703  1.0000
  H   H7130     1.0  0.87933  0.64929  0.34830  1.0000
  H   H7131     1.0  0.83949  0.70205  0.32183  1.0000
  H   H7132     1.0  0.85361  0.68072  0.31995  1.0000
  H   H7133     1.0  0.88110  0.70488  0.34384  1.0000
  C   C4010     1.0  0.81472  0.66431  0.22825  1.0000
  H   H7134     1.0  0.85279  0.65249  0.36062  1.0000
  H   H7135     1.0  0.89598  0.63452  0.33087  1.0000
  H   H7136     1.0  0.89192  0.65496  0.31936  1.0000
  H   H7137     1.0  0.90580  0.65255  0.33037  1.0000
  H   H7138     1.0  0.81234  0.68925  0.32757  1.0000
  H   H7139     1.0  0.82590  0.68646  0.31224  1.0000
  H   H7140     1.0  0.82651  0.66782  0.32552  1.0000
  H   H7141     1.0  0.87436  0.73287  0.32790  1.0000
  H   H7142     1.0  0.85461  0.74077  0.33922  1.0000
  H   H7143     1.0  0.85076  0.83290  0.22970  1.0000
  C   C4011     1.0  0.60625  0.96825  0.36523  1.0000
  C   C4012     1.0  0.61948  0.52194  0.21457  1.0000
  H   H7144     1.0  0.95177  0.87367  0.27003  1.0000
  H   H7145     1.0  0.68029  0.73781  0.21307  1.0000
  H   H7146     1.0  0.71654  0.93960  0.29617  1.0000
  H   H7147     1.0  0.68419  0.94939  0.24579  1.0000
  Fe  Fe441     1.0  0.62116  0.98491  0.33218  1.0000
  H   H7148     1.0  0.99827  0.77814  0.34023  1.0000
  N   N226      1.0  0.99452  0.67217  0.38116  1.0000
  H   H7149     1.0  0.66639  0.96706  0.24063  1.0000
  H   H7150     1.0  0.99066  0.65705  0.36903  1.0000
  H   H7151     1.0  0.64124  0.90144  0.19098  1.0000
  C   C4013     1.0  0.66438  0.98745  0.25817  1.0000
  C   C4014     1.0  0.50827  0.92772  0.37652  1.0000
  H   H7152     1.0  0.98856  0.57213  0.36823  1.0000
  H   H7153     1.0  0.52058  0.95566  0.36087  1.0000
  H   H7154     1.0  0.63621  0.90958  0.20530  1.0000
  H   H7155     1.0  0.68741  0.98484  0.34208  1.0000
  H   H7156     1.0  0.99342  0.76142  0.36259  1.0000
  C   C4015     1.0  0.67853  0.89122  0.18881  1.0000
  C   C4016     1.0  0.00066  0.75446  0.35476  1.0000
  H   H7157     1.0  0.86301  0.96010  0.26065  1.0000
  H   H7158     1.0  0.83520  0.98462  0.27723  1.0000
  H   H7159     1.0  0.84236  0.64686  0.38379  1.0000
  H   H7160     1.0  0.93847  0.65972  0.37869  1.0000
  H   H7161     1.0  0.66842  0.90261  0.20567  1.0000
  C   C4017     1.0  0.57892  0.98408  0.38302  1.0000
  H   H7162     1.0  0.60991  0.49510  0.19588  1.0000
  C   C4018     1.0  0.00016  0.90516  0.37392  1.0000
  C   C4019     1.0  0.63254  0.55209  0.18774  1.0000
  H   H7163     1.0  0.99842  0.90333  0.32118  1.0000
  H   H7164     1.0  0.59013  0.63084  0.19148  1.0000
  C   C4020     1.0  0.62018  0.76158  0.18696  1.0000
  C   C4021     1.0  0.98745  0.87622  0.26637  1.0000
  C   C4022     1.0  0.50355  0.71698  0.18859  1.0000
  H   H7165     1.0  0.99068  0.86766  0.25939  1.0000
  H   H7166     1.0  0.50415  0.93095  0.36731  1.0000
  H   H7167     1.0  0.95744  0.62946  0.38205  1.0000
  C   C4023     1.0  0.70275  0.63147  0.18926  1.0000
  C   C4024     1.0  0.99815  0.89457  0.27557  1.0000
  H   H7168     1.0  0.60355  0.55358  0.19002  1.0000
  S   S880      1.0  0.58314  0.69448  0.18662  1.0000
  H   H7169     1.0  0.00048  0.90250  0.29772  1.0000
  H   H7170     1.0  0.53050  0.92713  0.38409  1.0000
  C   C4025     1.0  0.69512  0.66359  0.18589  1.0000
  C   C4026     1.0  0.62867  0.52279  0.18752  1.0000
  S   S881      1.0  0.69985  0.61134  0.18745  1.0000
  H   H7171     1.0  0.70055  0.85764  0.18694  1.0000
  S   S882      1.0  0.63934  0.82805  0.18680  1.0000
  S   S883      1.0  0.79743  0.64435  0.18691  1.0000
  C   C4027     1.0  0.60779  0.57977  0.18686  1.0000
  C   C4028     1.0  0.62511  0.77699  0.18726  1.0000
  C   C4029     1.0  0.65847  0.52746  0.18583  1.0000
  C   C4030     1.0  0.59550  0.64244  0.18631  1.0000
  C   C4031     1.0  0.00164  0.59806  0.33450  1.0000
  H   H7172     1.0  0.00154  0.59857  0.35352  1.0000
  H   H7173     1.0  0.64466  0.97272  0.38538  1.0000
  H   H7174     1.0  0.88408  0.51090  0.46369  1.0000
  C   C4032     1.0  0.91348  0.51261  0.56902  1.0000
  C   C4033     1.0  0.51206  0.94407  0.52514  1.0000
  S   S884      1.0  0.67681  0.98222  0.57358  1.0000
  H   H7175     1.0  0.54598  0.98140  0.45942  1.0000
  C   C4034     1.0  0.89737  0.50194  0.46439  1.0000
  H   H7176     1.0  0.87433  0.50939  0.44750  1.0000
  C   C4035     1.0  0.87542  0.60549  0.50470  1.0000
  Fe  Fe442     1.0  0.94870  0.56369  0.54270  1.0000
  S   S885      1.0  0.95113  0.59076  0.53088  1.0000
  S   S886      1.0  0.96563  0.54527  0.55605  1.0000
  Fe  Fe443     1.0  0.91568  0.56340  0.53411  1.0000
  S   S887      1.0  0.91451  0.59065  0.52187  1.0000
  S   S888      1.0  0.89603  0.54636  0.53654  1.0000
  Fe  Fe444     1.0  0.94426  0.58159  0.51587  1.0000
  S   S889      1.0  0.95957  0.58571  0.49563  1.0000
  Fe  Fe445     1.0  0.92121  0.59795  0.53779  1.0000
  S   S890      1.0  0.90582  0.62330  0.54424  1.0000
  S   S891      1.0  0.94502  0.55369  0.52700  1.0000
  S   S892      1.0  0.91929  0.57149  0.55074  1.0000
  Fe  Fe446     1.0  0.54527  0.95506  0.53657  1.0000
  S   S893      1.0  0.57015  0.93811  0.52685  1.0000
  H   H7177     1.0  0.63607  0.90782  0.56949  1.0000
  H   H7178     1.0  0.93030  0.63760  0.52025  1.0000
  H   H7179     1.0  0.87712  0.57768  0.51130  1.0000
  Fe  Fe447     1.0  0.57039  0.96230  0.51098  1.0000
  S   S894      1.0  0.57801  0.96369  0.48983  1.0000
  Fe  Fe448     1.0  0.58543  0.95066  0.53520  1.0000
  S   S895      1.0  0.61192  0.93780  0.54151  1.0000
  S   S896      1.0  0.54472  0.97830  0.52015  1.0000
  H   H7180     1.0  0.69164  0.89053  0.57924  1.0000
  Fe  Fe449     1.0  0.53021  0.99040  0.42642  1.0000
  C   C4036     1.0  0.88198  0.58665  0.50233  1.0000
  H   H7181     1.0  0.60186  0.95394  0.58235  1.0000
  S   S897      1.0  0.55439  0.97296  0.43334  1.0000
  Fe  Fe450     1.0  0.52360  0.96180  0.41597  1.0000
  S   S898      1.0  0.54704  0.94168  0.42251  1.0000
  H   H7182     1.0  0.59891  0.98757  0.41514  1.0000
  Fe  Fe451     1.0  0.53763  0.95246  0.44032  1.0000
  S   S899      1.0  0.53505  0.93747  0.46064  1.0000
  Fe  Fe452     1.0  0.56166  0.96408  0.41498  1.0000
  H   H7183     1.0  0.63735  0.88531  0.57849  1.0000
  H   H7184     1.0  0.97237  0.79574  0.57671  1.0000
  Fe  Fe453     1.0  0.92365  0.59902  0.43600  1.0000
  S   S900      1.0  0.95013  0.57998  0.43288  1.0000
  S   S901      1.0  0.91273  0.61010  0.45375  1.0000
  Fe  Fe454     1.0  0.91684  0.59980  0.41041  1.0000
  S   S902      1.0  0.94299  0.58103  0.40529  1.0000
  Fe  Fe455     1.0  0.93618  0.56576  0.42512  1.0000
  S   S903      1.0  0.94232  0.53591  0.42941  1.0000
  Fe  Fe456     1.0  0.95434  0.59708  0.41339  1.0000
  S   S904      1.0  0.98045  0.60522  0.40361  1.0000
  S   S905      1.0  0.90900  0.58328  0.42990  1.0000
  S   S906      1.0  0.92883  0.61724  0.41689  1.0000
  C   C4037     1.0  0.97931  0.61145  0.42666  1.0000
  H   H7185     1.0  0.88043  0.64001  0.58135  1.0000
  H   H7186     1.0  0.98953  0.66945  0.55215  1.0000
  H   H7187     1.0  0.97859  0.81630  0.57563  1.0000
  C   C4038     1.0  0.98549  0.64041  0.51345  1.0000
  H   H7188     1.0  0.97888  0.61613  0.44478  1.0000
  C   C4039     1.0  0.50440  0.94955  0.53658  1.0000
  C   C4040     1.0  0.95892  0.50008  0.51920  1.0000
  C   C4041     1.0  0.96581  0.66022  0.39260  1.0000
  S   S907      1.0  0.94659  0.66523  0.56381  1.0000
  C   C4042     1.0  0.87107  0.58371  0.46660  1.0000
  H   H7189     1.0  0.99598  0.70255  0.38831  1.0000
  H   H7190     1.0  0.93935  0.51745  0.53017  1.0000
  C   C4043     1.0  0.91804  0.51187  0.40702  1.0000
  C   C4044     1.0  0.91411  0.53030  0.40594  1.0000
  C   C4045     1.0  0.92168  0.53783  0.41266  1.0000
  C   C4046     1.0  0.93322  0.52694  0.42049  1.0000
  C   C4047     1.0  0.78026  0.95849  0.57748  1.0000
  H   H7191     1.0  0.99186  0.60592  0.46766  1.0000
  H   H7192     1.0  0.90498  0.53876  0.40003  1.0000
  H   H7193     1.0  0.91840  0.55204  0.41186  1.0000
  C   C4048     1.0  0.89952  0.64400  0.39280  1.0000
  C   C4049     1.0  0.99660  0.55774  0.42816  1.0000
  C   C4050     1.0  0.56629  0.95506  0.48238  1.0000
  C   C4051     1.0  0.54976  0.95039  0.48851  1.0000
  C   C4052     1.0  0.54038  0.94460  0.48189  1.0000
  C   C4053     1.0  0.54742  0.94356  0.46914  1.0000
  C   C4054     1.0  0.56412  0.94784  0.46317  1.0000
  C   C4055     1.0  0.57341  0.95371  0.46973  1.0000
  H   H7194     1.0  0.54414  0.95141  0.49827  1.0000
  H   H7195     1.0  0.52752  0.94122  0.48660  1.0000
  H   H7196     1.0  0.56990  0.94665  0.45347  1.0000
  H   H7197     1.0  0.58620  0.95724  0.46495  1.0000
  C   C4056     1.0  0.61808  0.94542  0.55280  1.0000
  C   C4057     1.0  0.63604  0.94635  0.55137  1.0000
  C   C4058     1.0  0.64159  0.95053  0.56094  1.0000
  H   H7198     1.0  0.95527  0.69925  0.54821  1.0000
  H   H7199     1.0  0.90683  0.56355  0.46623  1.0000
  C   C4059     1.0  0.99946  0.52367  0.52332  1.0000
  H   H7200     1.0  0.99536  0.69921  0.53765  1.0000
  C   C4060     1.0  0.93240  0.57015  0.58480  1.0000
  C   C4061     1.0  0.94690  0.59381  0.48373  1.0000
  C   C4062     1.0  0.95501  0.59152  0.47136  1.0000
  C   C4063     1.0  0.94491  0.59715  0.46188  1.0000
  C   C4064     1.0  0.92669  0.60526  0.46469  1.0000
  C   C4065     1.0  0.91892  0.60847  0.47687  1.0000
  C   C4066     1.0  0.92891  0.60263  0.48639  1.0000
  H   H7201     1.0  0.96904  0.58510  0.46913  1.0000
  H   H7202     1.0  0.95123  0.59507  0.45246  1.0000
  H   H7203     1.0  0.90497  0.61508  0.47900  1.0000
  H   H7204     1.0  0.92268  0.60501  0.49573  1.0000
  C   C4067     1.0  0.91719  0.63514  0.54949  1.0000
  C   C4068     1.0  0.90734  0.64921  0.55543  1.0000
  C   C4069     1.0  0.91611  0.65850  0.56003  1.0000
  C   C4070     1.0  0.93482  0.65406  0.55836  1.0000
  C   C4071     1.0  0.94464  0.64048  0.55199  1.0000
  C   C4072     1.0  0.93588  0.63082  0.54779  1.0000
  H   H7205     1.0  0.89287  0.65272  0.55667  1.0000
  H   H7206     1.0  0.90843  0.66913  0.56477  1.0000
  H   H7207     1.0  0.95909  0.63717  0.55056  1.0000
  H   H7208     1.0  0.94363  0.62011  0.54320  1.0000
  C   C4073     1.0  0.90963  0.50884  0.50950  1.0000
  C   C4074     1.0  0.91842  0.52289  0.50652  1.0000
  C   C4075     1.0  0.91480  0.53414  0.51498  1.0000
  C   C4076     1.0  0.90209  0.53156  0.52632  1.0000
  C   C4077     1.0  0.89366  0.51720  0.52944  1.0000
  C   C4078     1.0  0.89760  0.50571  0.52113  1.0000
  H   H7209     1.0  0.92789  0.52521  0.49761  1.0000
  H   H7210     1.0  0.92143  0.54515  0.51253  1.0000
  H   H7211     1.0  0.88384  0.51512  0.53823  1.0000
  H   H7212     1.0  0.96455  0.51139  0.51277  1.0000
  H   H7213     1.0  0.98047  0.71034  0.54968  1.0000
  H   H7214     1.0  0.90751  0.49193  0.44126  1.0000
  S   S908      1.0  0.63584  0.95581  0.58537  1.0000
  C   C4079     1.0  0.99329  0.56959  0.38656  1.0000
  H   H7215     1.0  0.99829  0.55504  0.38751  1.0000
  C   C4080     1.0  0.98306  0.80351  0.57247  1.0000
  C   C4081     1.0  0.91207  0.51210  0.45625  1.0000
  H   H7216     1.0  0.61284  0.98845  0.39249  1.0000
  H   H7217     1.0  0.94861  0.68610  0.46629  1.0000
  Fe  Fe457     1.0  0.70120  0.96425  0.58043  1.0000
  H   H7218     1.0  0.99001  0.56313  0.52956  1.0000
  H   H7219     1.0  0.50705  0.93806  0.50900  1.0000
  H   H7220     1.0  0.97040  0.50440  0.43501  1.0000
  H   H7221     1.0  0.99060  0.61409  0.57228  1.0000
  H   H7222     1.0  0.96507  0.61183  0.42878  1.0000
  H   H7223     1.0  0.85969  0.53850  0.49186  1.0000
  H   H7224     1.0  0.98025  0.57719  0.54741  1.0000
  H   H7225     1.0  0.89374  0.53206  0.57862  1.0000
  H   H7226     1.0  0.94783  0.61856  0.50652  1.0000
  N   N227      1.0  0.98854  0.50952  0.44428  1.0000
  Fe  Fe458     1.0  0.56188  0.98721  0.52912  1.0000
  C   C4082     1.0  0.97934  0.62499  0.49398  1.0000
  C   C4083     1.0  0.97541  0.55579  0.56345  1.0000
  C   C4084     1.0  0.93598  0.58831  0.58382  1.0000
  H   H7227     1.0  0.88718  0.52786  0.56570  1.0000
  H   H7228     1.0  0.76480  0.94987  0.55471  1.0000
  H   H7229     1.0  0.92534  0.50481  0.45836  1.0000
  S   S909      1.0  0.58997  0.95989  0.40338  1.0000
  C   C4085     1.0  0.60574  0.94871  0.56386  1.0000
  S   S910      1.0  0.72803  0.95824  0.56718  1.0000
  C   C4086     1.0  0.92976  0.55672  0.47455  1.0000
  H   H7230     1.0  0.98182  0.63614  0.47359  1.0000
  H   H7231     1.0  0.85445  0.56349  0.50379  1.0000
  H   H7232     1.0  0.00155  0.50344  0.41919  1.0000
  H   H7233     1.0  0.86632  0.59299  0.44752  1.0000
  C   C4087     1.0  0.61139  0.95225  0.57359  1.0000
  C   C4088     1.0  0.96857  0.49890  0.46613  1.0000
  H   H7234     1.0  0.86579  0.50521  0.42865  1.0000
  H   H7235     1.0  0.90741  0.52873  0.46973  1.0000
  H   H7236     1.0  0.89599  0.53878  0.45667  1.0000
  H   H7237     1.0  0.99261  0.62795  0.49309  1.0000
  S   S911      1.0  0.90726  0.50268  0.39926  1.0000
  H   H7238     1.0  0.87570  0.56962  0.45152  1.0000
  C   C4089     1.0  0.92985  0.50107  0.41468  1.0000
  H   H7239     1.0  0.99194  0.53307  0.52955  1.0000
  H   H7240     1.0  0.70919  0.91332  0.56755  1.0000
  H   H7241     1.0  0.75515  0.91993  0.56997  1.0000
  C   C4090     1.0  0.99399  0.57006  0.57498  1.0000
  C   C4091     1.0  0.91252  0.64204  0.50774  1.0000
  H   H7242     1.0  0.79319  0.94959  0.56013  1.0000
  H   H7243     1.0  0.92429  0.51470  0.57267  1.0000
  C   C4092     1.0  0.91002  0.56552  0.47472  1.0000
  S   S912      1.0  0.56049  0.96527  0.54638  1.0000
  C   C4093     1.0  0.97755  0.54810  0.57587  1.0000
  H   H7244     1.0  0.99360  0.56617  0.48481  1.0000
  H   H7245     1.0  0.00058  0.68525  0.40179  1.0000
  C   C4094     1.0  0.90851  0.53025  0.45945  1.0000
  H   H7246     1.0  0.97451  0.52470  0.45888  1.0000
  H   H7247     1.0  0.50382  0.92685  0.41938  1.0000
  H   H7248     1.0  0.85555  0.56731  0.48105  1.0000
  C   C4095     1.0  0.51752  0.99004  0.46194  1.0000
  H   H7249     1.0  0.64571  0.94365  0.54287  1.0000
  C   C4096     1.0  0.99413  0.60859  0.47623  1.0000
  C   C4097     1.0  0.99230  0.52591  0.43432  1.0000
  C   C4098     1.0  0.98246  0.66590  0.39361  1.0000
  H   H7250     1.0  0.99752  0.58922  0.55732  1.0000
  C   C4099     1.0  0.85516  0.52853  0.51186  1.0000
  C   C4100     1.0  0.89766  0.55755  0.48686  1.0000
  H   H7251     1.0  0.87646  0.55510  0.47393  1.0000
  H   H7252     1.0  0.65546  0.95114  0.55975  1.0000
  C   C4101     1.0  0.61076  0.90141  0.57952  1.0000
  H   H7253     1.0  0.98964  0.56071  0.42022  1.0000
  H   H7254     1.0  0.97154  0.67909  0.46820  1.0000
  H   H7255     1.0  0.52500  0.90527  0.45212  1.0000
  H   H7256     1.0  0.93064  0.65748  0.50817  1.0000
  H   H7257     1.0  0.77752  0.99046  0.55918  1.0000
  C   C4102     1.0  0.98711  0.61398  0.43568  1.0000
  H   H7258     1.0  0.96608  0.62368  0.51919  1.0000
  H   H7259     1.0  0.87517  0.55287  0.50862  1.0000
  H   H7260     1.0  0.98033  0.49257  0.47055  1.0000
  H   H7261     1.0  0.90115  0.64886  0.51423  1.0000
  H   H7262     1.0  0.99017  0.65476  0.39975  1.0000
  C   C4103     1.0  0.96441  0.65689  0.49237  1.0000
  H   H7263     1.0  0.95529  0.65428  0.47596  1.0000
  H   H7264     1.0  0.95662  0.64669  0.51793  1.0000
  C   C4104     1.0  0.96726  0.63699  0.51306  1.0000
  H   H7265     1.0  0.97848  0.65823  0.48777  1.0000
  H   H7266     1.0  0.93196  0.54227  0.47525  1.0000
  H   H7267     1.0  0.93850  0.66649  0.48642  1.0000
  H   H7268     1.0  0.97510  0.54833  0.44239  1.0000
  H   H7269     1.0  0.89690  0.58358  0.50029  1.0000
  H   H7270     1.0  0.93403  0.55909  0.48249  1.0000
  H   H7271     1.0  0.88451  0.58695  0.46334  1.0000
  H   H7272     1.0  0.99045  0.52310  0.51748  1.0000
  H   H7273     1.0  0.93821  0.56239  0.46550  1.0000
  H   H7274     1.0  0.95940  0.66662  0.49865  1.0000
  H   H7275     1.0  0.94342  0.63384  0.49269  1.0000
  H   H7276     1.0  0.97330  0.63358  0.56976  1.0000
  C   C4105     1.0  0.98989  0.60880  0.41486  1.0000
  H   H7277     1.0  0.96565  0.71020  0.53280  1.0000
  H   H7278     1.0  0.97235  0.53638  0.58094  1.0000
  H   H7279     1.0  0.76788  0.89396  0.58512  1.0000
  H   H7280     1.0  0.98485  0.69523  0.57510  1.0000
  H   H7281     1.0  0.85494  0.51501  0.51121  1.0000
  H   H7282     1.0  0.62876  0.98975  0.56416  1.0000
  H   H7283     1.0  0.91979  0.53690  0.45423  1.0000
  S   S913      1.0  0.91227  0.49646  0.49813  1.0000
  C   C4106     1.0  0.98964  0.54323  0.43892  1.0000
  C   C4107     1.0  0.87852  0.49631  0.44482  1.0000
  H   H7284     1.0  0.86054  0.59127  0.49237  1.0000
  H   H7285     1.0  0.95338  0.50207  0.55814  1.0000
  H   H7286     1.0  0.85223  0.57825  0.45783  1.0000
  H   H7287     1.0  0.97294  0.61370  0.56517  1.0000
  H   H7288     1.0  0.99657  0.62907  0.51124  1.0000
  H   H7289     1.0  0.96634  0.62138  0.48000  1.0000
  C   C4108     1.0  0.98376  0.69827  0.54577  1.0000
  C   C4109     1.0  0.95312  0.50535  0.47648  1.0000
  C   C4110     1.0  0.95304  0.66384  0.48200  1.0000
  H   H7290     1.0  0.97523  0.68121  0.56354  1.0000
  C   C4111     1.0  0.62933  0.95309  0.57222  1.0000
  H   H7291     1.0  0.94922  0.86433  0.58464  1.0000
  H   H7292     1.0  0.52651  0.94003  0.52232  1.0000
  C   C4112     1.0  0.68509  0.90464  0.57931  1.0000
  H   H7293     1.0  0.00027  0.51475  0.46407  1.0000
  H   H7294     1.0  0.89844  0.50022  0.47434  1.0000
  C   C4113     1.0  0.86598  0.58088  0.45521  1.0000
  C   C4114     1.0  0.86638  0.53740  0.49961  1.0000
  H   H7295     1.0  0.94075  0.89776  0.58213  1.0000
  H   H7296     1.0  0.51536  0.97890  0.47018  1.0000
  C   C4115     1.0  0.99173  0.57791  0.56259  1.0000
  C   C4116     1.0  0.86825  0.55578  0.50064  1.0000
  C   C4117     1.0  0.89908  0.66147  0.38581  1.0000
  H   H7297     1.0  0.96493  0.49609  0.57756  1.0000
  S   S914      1.0  0.51269  0.97056  0.43444  1.0000
  C   C4118     1.0  0.56906  0.92730  0.39295  1.0000
  H   H7298     1.0  0.84114  0.53634  0.51348  1.0000
  S   S915      1.0  0.80083  0.95886  0.58054  1.0000
  C   C4119     1.0  0.74787  0.95881  0.57129  1.0000
  H   H7299     1.0  0.69341  0.91274  0.55878  1.0000
  H   H7300     1.0  0.88067  0.60649  0.51264  1.0000
  S   S916      1.0  0.90049  0.60871  0.39535  1.0000
  H   H7301     1.0  0.99844  0.70742  0.56256  1.0000
  H   H7302     1.0  0.86052  0.60889  0.50731  1.0000
  H   H7303     1.0  0.96987  0.64910  0.38765  1.0000
  C   C4120     1.0  0.98198  0.57107  0.55695  1.0000
  C   C4121     1.0  0.78050  0.95351  0.56641  1.0000
  H   H7304     1.0  0.59916  0.98690  0.57853  1.0000
  C   C4122     1.0  0.98333  0.49773  0.43802  1.0000
  H   H7305     1.0  0.88014  0.61529  0.49617  1.0000
  H   H7306     1.0  0.57887  0.91445  0.39425  1.0000
  C   C4123     1.0  0.98641  0.55549  0.58173  1.0000
  C   C4124     1.0  0.66481  0.90785  0.57938  1.0000
  H   H7307     1.0  0.98337  0.52945  0.42743  1.0000
  H   H7308     1.0  0.94061  0.51118  0.47283  1.0000
  H   H7309     1.0  0.93641  0.87549  0.57259  1.0000
  H   H7310     1.0  0.57446  0.93744  0.39491  1.0000
  S   S917      1.0  0.51805  0.94899  0.54683  1.0000
  C   C4125     1.0  0.97923  0.62379  0.48049  1.0000
  C   C4126     1.0  0.63081  0.89935  0.57866  1.0000
  C   C4127     1.0  0.92117  0.50884  0.55553  1.0000
  H   H7311     1.0  0.51785  0.89552  0.44210  1.0000
  C   C4128     1.0  0.87515  0.58505  0.49102  1.0000
  H   H7312     1.0  0.99875  0.63362  0.38778  1.0000
  H   H7313     1.0  0.87968  0.52832  0.49791  1.0000
  H   H7314     1.0  0.99860  0.64518  0.52650  1.0000
  C   C4129     1.0  0.93733  0.50856  0.42144  1.0000
  H   H7315     1.0  0.97789  0.49163  0.41579  1.0000
  H   H7316     1.0  0.89820  0.67189  0.39052  1.0000
  S   S918      1.0  0.53886  0.98355  0.40740  1.0000
  H   H7317     1.0  0.91153  0.62799  0.50966  1.0000
  C   C4130     1.0  0.94671  0.63287  0.50188  1.0000
  H   H7318     1.0  0.96038  0.52049  0.45086  1.0000
  H   H7319     1.0  0.90843  0.57975  0.47408  1.0000
  H   H7320     1.0  0.86144  0.59556  0.46956  1.0000
  H   H7321     1.0  0.90969  0.51059  0.55104  1.0000
  C   C4131     1.0  0.76441  0.95373  0.56331  1.0000
  H   H7322     1.0  0.93543  0.56741  0.57517  1.0000
  H   H7323     1.0  0.89944  0.54347  0.48657  1.0000
  N   N228      1.0  0.93352  0.49098  0.55466  1.0000
  N   N229      1.0  0.87807  0.56658  0.48885  1.0000
  C   C4132     1.0  0.98559  0.64230  0.52661  1.0000
  H   H7324     1.0  0.97464  0.65334  0.52957  1.0000
  H   H7325     1.0  0.94634  0.50007  0.42738  1.0000
  C   C4133     1.0  0.93588  0.87228  0.58293  1.0000
  H   H7326     1.0  0.92812  0.51983  0.55014  1.0000
  H   H7327     1.0  0.99402  0.57008  0.43167  1.0000
  C   C4134     1.0  0.00162  0.56565  0.52167  1.0000
  C   C4135     1.0  0.87017  0.56728  0.47780  1.0000
  C   C4136     1.0  0.95446  0.65419  0.40566  1.0000
  H   H7328     1.0  0.89886  0.64099  0.40288  1.0000
  H   H7329     1.0  0.59200  0.94760  0.56516  1.0000
  H   H7330     1.0  0.98410  0.62971  0.53362  1.0000
  C   C4137     1.0  0.69470  0.91595  0.56748  1.0000
  H   H7331     1.0  0.90383  0.54094  0.56254  1.0000
  H   H7332     1.0  0.73259  0.91787  0.57845  1.0000
  H   H7333     1.0  0.65959  0.92240  0.57663  1.0000
  H   H7334     1.0  0.97948  0.61150  0.50012  1.0000
  H   H7335     1.0  0.86099  0.52729  0.52009  1.0000
  H   H7336     1.0  0.97716  0.67663  0.39903  1.0000
  H   H7337     1.0  0.88793  0.50934  0.42545  1.0000
  H   H7338     1.0  0.90751  0.50175  0.57572  1.0000
  H   H7339     1.0  0.98615  0.55698  0.51198  1.0000
  C   C4138     1.0  0.87944  0.49961  0.43066  1.0000
  H   H7340     1.0  0.94943  0.49713  0.51474  1.0000
  H   H7341     1.0  0.98498  0.80637  0.56201  1.0000
  H   H7342     1.0  0.99121  0.50239  0.53872  1.0000
  C   C4139     1.0  0.99944  0.56064  0.50976  1.0000
  H   H7343     1.0  0.91258  0.51432  0.44600  1.0000
  H   H7344     1.0  0.56893  0.99077  0.38980  1.0000
  C   C4140     1.0  0.00067  0.79306  0.57640  1.0000
  H   H7345     1.0  0.96229  0.64240  0.41115  1.0000
  H   H7346     1.0  0.94981  0.66497  0.41101  1.0000
  H   H7347     1.0  0.94248  0.65055  0.40456  1.0000
  C   C4141     1.0  0.74670  0.91049  0.57603  1.0000
  H   H7348     1.0  0.95009  0.58827  0.57863  1.0000
  H   H7349     1.0  0.90315  0.55724  0.49503  1.0000
  C   C4142     1.0  0.96767  0.69845  0.54063  1.0000
  H   H7350     1.0  0.91137  0.64844  0.49782  1.0000
  H   H7351     1.0  0.98844  0.65266  0.50658  1.0000
  S   S919      1.0  0.58757  0.97341  0.51848  1.0000
  C   C4143     1.0  0.51555  0.90764  0.44579  1.0000
  C   C4144     1.0  0.97274  0.51437  0.45477  1.0000
  C   C4145     1.0  0.95727  0.68120  0.47336  1.0000
  H   H7352     1.0  0.88178  0.59380  0.48260  1.0000
  N   N230      1.0  0.96427  0.63823  0.50005  1.0000
  C   C4146     1.0  0.94928  0.50486  0.53200  1.0000
  H   H7353     1.0  0.66431  0.90218  0.57151  1.0000
  C   C4147     1.0  0.93026  0.64326  0.51006  1.0000
  H   H7354     1.0  0.98579  0.57207  0.39604  1.0000
  H   H7355     1.0  0.51846  0.91873  0.43767  1.0000
  C   C4148     1.0  0.74760  0.96388  0.58235  1.0000
  H   H7356     1.0  0.57669  0.99066  0.55200  1.0000
  H   H7357     1.0  0.95069  0.49395  0.48447  1.0000
  C   C4149     1.0  0.89865  0.52939  0.56893  1.0000
  H   H7358     1.0  0.68897  0.93029  0.56720  1.0000
  H   H7359     1.0  0.55624  0.92578  0.39983  1.0000
  H   H7360     1.0  0.94170  0.61979  0.57739  1.0000
  H   H7361     1.0  0.60339  0.91514  0.58020  1.0000
  H   H7362     1.0  0.89074  0.49488  0.52348  1.0000
  C   C4150     1.0  0.97610  0.61890  0.57233  1.0000
  H   H7363     1.0  0.74711  0.90075  0.57052  1.0000
  H   H7364     1.0  0.51249  0.98848  0.53969  1.0000
  H   H7365     1.0  0.99801  0.57286  0.50219  1.0000
  C   C4151     1.0  0.76377  0.96377  0.58545  1.0000
  C   C4152     1.0  0.90029  0.63057  0.38678  1.0000
  H   H7366     1.0  0.96988  0.68629  0.53698  1.0000
  H   H7367     1.0  0.95466  0.69147  0.47896  1.0000
  H   H7368     1.0  0.95706  0.67147  0.38740  1.0000
  H   H7369     1.0  0.62295  0.98032  0.41262  1.0000
  H   H7370     1.0  0.60878  0.89865  0.57087  1.0000
  H   H7371     1.0  0.99654  0.54120  0.44669  1.0000
  H   H7372     1.0  0.57786  0.97851  0.56789  1.0000
  H   H7373     1.0  0.54318  0.95305  0.38559  1.0000
  H   H7374     1.0  0.97975  0.65601  0.57832  1.0000
  H   H7375     1.0  0.95647  0.51533  0.48016  1.0000
  H   H7376     1.0  0.99655  0.53692  0.49761  1.0000
  C   C4153     1.0  0.98778  0.68129  0.55611  1.0000
  H   H7377     1.0  0.51683  0.98611  0.45339  1.0000
  H   H7378     1.0  0.95937  0.50715  0.53623  1.0000
  H   H7379     1.0  0.99545  0.54267  0.47359  1.0000
  H   H7380     1.0  0.99415  0.59625  0.48362  1.0000
  Fe  Fe459     1.0  0.93417  0.67780  0.58081  1.0000
  H   H7381     1.0  0.92718  0.59826  0.57792  1.0000
  C   C4154     1.0  0.99720  0.49198  0.42634  1.0000
  S   S920      1.0  0.50787  0.96065  0.40225  1.0000
  H   H7382     1.0  0.91311  0.62843  0.57866  1.0000
  H   H7383     1.0  0.98962  0.59382  0.51764  1.0000
  S   S921      1.0  0.94672  0.69854  0.58296  1.0000
  C   C4155     1.0  0.99869  0.69428  0.56920  1.0000
  C   C4156     1.0  0.99107  0.65746  0.58175  1.0000
  C   C4157     1.0  0.59132  0.96892  0.38715  1.0000
  H   H7384     1.0  0.78952  0.90601  0.58546  1.0000
  C   C4158     1.0  0.96527  0.61238  0.58546  1.0000
  H   H7385     1.0  0.84425  0.81438  0.62732  1.0000
  S   S922      1.0  0.93675  0.66109  0.59999  1.0000
  H   H7386     1.0  0.90683  0.74362  0.63730  1.0000
  S   S923      1.0  0.92006  0.69705  0.61138  1.0000
  H   H7387     1.0  0.81991  0.65831  0.67733  1.0000
  S   S924      1.0  0.65596  0.97420  0.60342  1.0000
  Fe  Fe460     1.0  0.90949  0.67664  0.60704  1.0000
  S   S925      1.0  0.88905  0.66178  0.62051  1.0000
  C   C4159     1.0  0.81476  0.70422  0.77507  1.0000
  C   C4160     1.0  0.82216  0.78224  0.62073  1.0000
  H   H7388     1.0  0.94119  0.62359  0.60930  1.0000
  H   H7389     1.0  0.92811  0.71062  0.66343  1.0000
  H   H7390     1.0  0.85364  0.80911  0.66101  1.0000
  H   H7391     1.0  0.91359  0.89130  0.62519  1.0000
  H   H7392     1.0  0.84490  0.70345  0.60752  1.0000
  Fe  Fe461     1.0  0.84428  0.74262  0.67013  1.0000
  S   S926      1.0  0.84959  0.74953  0.68663  1.0000
  S   S927      1.0  0.83237  0.76438  0.65531  1.0000
  Fe  Fe462     1.0  0.85806  0.70310  0.67899  1.0000
  S   S928      1.0  0.86432  0.70650  0.69642  1.0000
  S   S929      1.0  0.85890  0.67625  0.67594  1.0000
  Fe  Fe463     1.0  0.83804  0.72612  0.69829  1.0000
  S   S930      1.0  0.81620  0.72856  0.71581  1.0000
  Fe  Fe464     1.0  0.87539  0.72953  0.68330  1.0000
  S   S931      1.0  0.90146  0.73346  0.68519  1.0000
  S   S932      1.0  0.83078  0.72069  0.68202  1.0000
  S   S933      1.0  0.87129  0.72457  0.66567  1.0000
  H   H7393     1.0  0.88595  0.83089  0.64641  1.0000
  S   S934      1.0  0.85527  0.92872  0.62243  1.0000
  C   C4161     1.0  0.87435  0.83693  0.65317  1.0000
  S   S935      1.0  0.76673  0.94001  0.64357  1.0000
  S   S936      1.0  0.80785  0.93398  0.61463  1.0000
  Fe  Fe465     1.0  0.95006  0.83382  0.61564  1.0000
  S   S937      1.0  0.93698  0.82816  0.60224  1.0000
  Fe  Fe466     1.0  0.92554  0.81590  0.63867  1.0000
  S   S938      1.0  0.91103  0.80839  0.62700  1.0000
  S   S939      1.0  0.92010  0.80882  0.65988  1.0000
  Fe  Fe467     1.0  0.93844  0.80130  0.61489  1.0000
  S   S940      1.0  0.95234  0.77698  0.60714  1.0000
  Fe  Fe468     1.0  0.91098  0.83624  0.61558  1.0000
  S   S941      1.0  0.88660  0.85347  0.60818  1.0000
  S   S942      1.0  0.95296  0.80648  0.62761  1.0000
  S   S943      1.0  0.92397  0.84416  0.62804  1.0000
  Fe  Fe469     1.0  0.72508  0.84034  0.68401  1.0000
  S   S944      1.0  0.71148  0.82671  0.67541  1.0000
  S   S945      1.0  0.71724  0.84590  0.70365  1.0000
  Fe  Fe470     1.0  0.75429  0.84638  0.66010  1.0000
  S   S946      1.0  0.74357  0.83266  0.64976  1.0000
  S   S947      1.0  0.77953  0.85707  0.65082  1.0000
  Fe  Fe471     1.0  0.71656  0.84789  0.65789  1.0000
  S   S948      1.0  0.69750  0.86140  0.64476  1.0000
  Fe  Fe472     1.0  0.73961  0.81286  0.66812  1.0000
  S   S949      1.0  0.74767  0.78338  0.67058  1.0000
  S   S950      1.0  0.72742  0.86279  0.66721  1.0000
  S   S951      1.0  0.75290  0.82506  0.67781  1.0000
  H   H7394     1.0  0.92043  0.58823  0.60306  1.0000
  H   H7395     1.0  0.95295  0.88823  0.62612  1.0000
  H   H7396     1.0  0.99005  0.51385  0.59678  1.0000
  Fe  Fe473     1.0  0.75376  0.68477  0.77511  1.0000
  S   S952      1.0  0.76631  0.66176  0.76569  1.0000
  S   S953      1.0  0.73928  0.70968  0.76409  1.0000
  H   H7397     1.0  0.98853  0.77922  0.59439  1.0000
  H   H7398     1.0  0.94402  0.58255  0.60148  1.0000
  Fe  Fe474     1.0  0.79047  0.66112  0.77269  1.0000
  S   S954      1.0  0.81779  0.66033  0.75995  1.0000
  H   H7399     1.0  0.71184  0.96667  0.64787  1.0000
  S   S955      1.0  0.82595  0.96931  0.60211  1.0000
  C   C4162     1.0  0.90338  0.73700  0.63107  1.0000
  S   S956      1.0  0.63939  0.81047  0.76986  1.0000
  H   H7400     1.0  0.97042  0.79336  0.65364  1.0000
  H   H7401     1.0  0.63191  0.90014  0.61691  1.0000
  N   N231      1.0  0.84879  0.83139  0.64530  1.0000
  H   H7402     1.0  0.77905  0.92458  0.60111  1.0000
  Fe  Fe475     1.0  0.66662  0.79397  0.76356  1.0000
  S   S957      1.0  0.67807  0.78908  0.74387  1.0000
  H   H7403     1.0  0.98789  0.54958  0.59137  1.0000
  C   C4163     1.0  0.95014  0.70862  0.69548  1.0000
  H   H7404     1.0  0.96006  0.74400  0.59988  1.0000
  C   C4164     1.0  0.93681  0.60042  0.63318  1.0000
  S   S958      1.0  0.81018  0.95907  0.63290  1.0000
  H   H7405     1.0  0.80307  0.64569  0.67989  1.0000
  C   C4165     1.0  0.92630  0.89623  0.62153  1.0000
  H   H7406     1.0  0.73860  0.80461  0.73903  1.0000
  C   C4166     1.0  0.86661  0.71237  0.61084  1.0000
  H   H7407     1.0  0.83401  0.78850  0.67382  1.0000
  H   H7408     1.0  0.67775  0.74950  0.75829  1.0000
  H   H7409     1.0  0.94247  0.87478  0.60411  1.0000
  C   C4167     1.0  0.72893  0.72524  0.77359  1.0000
  C   C4168     1.0  0.71787  0.74111  0.76880  1.0000
  H   H7410     1.0  0.62716  0.92289  0.60868  1.0000
  H   H7411     1.0  0.86994  0.82812  0.62869  1.0000
  C   C4169     1.0  0.68529  0.98236  0.64470  1.0000
  H   H7412     1.0  0.81593  0.70545  0.65196  1.0000
  H   H7413     1.0  0.71660  0.74422  0.75905  1.0000
  H   H7414     1.0  0.69913  0.76477  0.77307  1.0000
  H   H7415     1.0  0.62948  0.92125  0.63019  1.0000
  H   H7416     1.0  0.98132  0.90870  0.60451  1.0000
  H   H7417     1.0  0.99353  0.89419  0.59386  1.0000
  H   H7418     1.0  0.70732  0.97789  0.62297  1.0000
  H   H7419     1.0  0.86498  0.79003  0.61861  1.0000
  H   H7420     1.0  0.82188  0.72277  0.65634  1.0000
  H   H7421     1.0  0.67671  0.98850  0.62169  1.0000
  H   H7422     1.0  0.92423  0.90792  0.62568  1.0000
  H   H7423     1.0  0.91751  0.89644  0.58598  1.0000
  C   C4170     1.0  0.95231  0.71784  0.67176  1.0000
  H   H7424     1.0  0.92062  0.93677  0.60945  1.0000
  C   C4171     1.0  0.70787  0.82912  0.71496  1.0000
  C   C4172     1.0  0.70221  0.81671  0.71116  1.0000
  C   C4173     1.0  0.69362  0.80410  0.72018  1.0000
  C   C4174     1.0  0.69060  0.80383  0.73308  1.0000
  C   C4175     1.0  0.69675  0.81585  0.73697  1.0000
  C   C4176     1.0  0.70548  0.82845  0.72790  1.0000
  H   H7425     1.0  0.70410  0.81698  0.70127  1.0000
  H   H7426     1.0  0.68884  0.79485  0.71714  1.0000
  H   H7427     1.0  0.69471  0.81549  0.74694  1.0000
  H   H7428     1.0  0.71014  0.83783  0.73088  1.0000
  C   C4177     1.0  0.77074  0.91691  0.64628  1.0000
  C   C4178     1.0  0.78820  0.90671  0.64377  1.0000
  C   C4179     1.0  0.79096  0.88826  0.64534  1.0000
  C   C4180     1.0  0.77623  0.88010  0.64903  1.0000
  C   C4181     1.0  0.75891  0.89045  0.65136  1.0000
  C   C4182     1.0  0.75616  0.90865  0.65048  1.0000
  H   H7429     1.0  0.79958  0.91301  0.64078  1.0000
  H   H7430     1.0  0.80447  0.88041  0.64362  1.0000
  H   H7431     1.0  0.74753  0.88466  0.65338  1.0000
  H   H7432     1.0  0.74263  0.91643  0.65242  1.0000
  C   C4183     1.0  0.86275  0.90755  0.61887  1.0000
  C   C4184     1.0  0.85651  0.90294  0.60992  1.0000
  C   C4185     1.0  0.86383  0.88627  0.60671  1.0000
  C   C4186     1.0  0.87736  0.87420  0.61243  1.0000
  C   C4187     1.0  0.88319  0.87874  0.62157  1.0000
  C   C4188     1.0  0.87591  0.89532  0.62479  1.0000
  H   H7433     1.0  0.84638  0.91236  0.60527  1.0000
  H   H7434     1.0  0.93152  0.67611  0.65357  1.0000
  H   H7435     1.0  0.89326  0.86948  0.62620  1.0000
  H   H7436     1.0  0.88055  0.89877  0.63185  1.0000
  C   C4189     1.0  0.80872  0.76907  0.65874  1.0000
  C   C4190     1.0  0.79915  0.75624  0.66637  1.0000
  C   C4191     1.0  0.78034  0.76045  0.66962  1.0000
  C   C4192     1.0  0.77103  0.77766  0.66547  1.0000
  C   C4193     1.0  0.78052  0.79040  0.65759  1.0000
  C   C4194     1.0  0.79928  0.78598  0.65399  1.0000
  H   H7437     1.0  0.80612  0.74304  0.66972  1.0000
  H   H7438     1.0  0.77305  0.75049  0.67560  1.0000
  H   H7439     1.0  0.77342  0.80366  0.65421  1.0000
  H   H7440     1.0  0.80640  0.79586  0.64775  1.0000
  C   C4195     1.0  0.81680  0.70941  0.72788  1.0000
  C   C4196     1.0  0.80081  0.70614  0.73626  1.0000
  C   C4197     1.0  0.80105  0.69105  0.74612  1.0000
  C   C4198     1.0  0.81734  0.67935  0.74776  1.0000
  C   C4199     1.0  0.83337  0.68286  0.73958  1.0000
  C   C4200     1.0  0.83308  0.69772  0.72951  1.0000
  H   H7441     1.0  0.78820  0.71528  0.73514  1.0000
  H   H7442     1.0  0.78860  0.68854  0.75244  1.0000
  H   H7443     1.0  0.84600  0.67398  0.74100  1.0000
  H   H7444     1.0  0.84549  0.70038  0.72320  1.0000
  C   C4201     1.0  0.90573  0.75474  0.67815  1.0000
  C   C4202     1.0  0.91764  0.76057  0.68250  1.0000
  C   C4203     1.0  0.92179  0.77723  0.67688  1.0000
  C   C4204     1.0  0.91454  0.78797  0.66660  1.0000
  C   C4205     1.0  0.90273  0.78213  0.66211  1.0000
  C   C4206     1.0  0.89812  0.76559  0.66800  1.0000
  H   H7445     1.0  0.92353  0.75224  0.69032  1.0000
  H   H7446     1.0  0.93082  0.78174  0.68042  1.0000
  H   H7447     1.0  0.89697  0.79043  0.65424  1.0000
  H   H7448     1.0  0.88900  0.76108  0.66455  1.0000
  C   C4207     1.0  0.68955  0.92165  0.63200  1.0000
  C   C4208     1.0  0.68800  0.91154  0.62413  1.0000
  C   C4209     1.0  0.69070  0.89302  0.62805  1.0000
  C   C4210     1.0  0.69522  0.88451  0.63978  1.0000
  C   C4211     1.0  0.69717  0.89460  0.64753  1.0000
  C   C4212     1.0  0.69431  0.91314  0.64365  1.0000
  H   H7449     1.0  0.68416  0.91798  0.61523  1.0000
  H   H7450     1.0  0.68911  0.88526  0.62207  1.0000
  H   H7451     1.0  0.70013  0.88823  0.65672  1.0000
  H   H7452     1.0  0.69547  0.92091  0.64980  1.0000
  H   H7453     1.0  0.66904  0.71436  0.75848  1.0000
  C   C4213     1.0  0.88379  0.74453  0.63013  1.0000
  H   H7454     1.0  0.96263  0.80269  0.66764  1.0000
  H   H7455     1.0  0.96051  0.71597  0.69484  1.0000
  C   C4214     1.0  0.93468  0.87642  0.64184  1.0000
  H   H7456     1.0  0.88166  0.79007  0.62681  1.0000
  H   H7457     1.0  0.96133  0.72645  0.67160  1.0000
  H   H7458     1.0  0.91493  0.61462  0.62426  1.0000
  C   C4215     1.0  0.88120  0.66612  0.63587  1.0000
  C   C4216     1.0  0.87013  0.65565  0.64491  1.0000
  C   C4217     1.0  0.86355  0.65876  0.65721  1.0000
  C   C4218     1.0  0.86775  0.67255  0.66050  1.0000
  C   C4219     1.0  0.87878  0.68308  0.65149  1.0000
  C   C4220     1.0  0.88556  0.67981  0.63921  1.0000
  H   H7459     1.0  0.86669  0.64506  0.64242  1.0000
  H   H7460     1.0  0.85506  0.65055  0.66414  1.0000
  H   H7461     1.0  0.88222  0.69361  0.65401  1.0000
  H   H7462     1.0  0.89402  0.68797  0.63235  1.0000
  H   H7463     1.0  0.78917  0.70447  0.71522  1.0000
  H   H7464     1.0  0.68102  0.96994  0.67115  1.0000
  C   C4221     1.0  0.94641  0.75049  0.59909  1.0000
  C   C4222     1.0  0.93902  0.76715  0.60209  1.0000
  C   C4223     1.0  0.84261  0.82046  0.65835  1.0000
  C   C4224     1.0  0.93075  0.88551  0.60214  1.0000
  S   S959      1.0  0.90640  0.74023  0.58814  1.0000
  H   H7465     1.0  0.98821  0.81793  0.66071  1.0000
  H   H7466     1.0  0.85915  0.88281  0.59967  1.0000
  C   C4225     1.0  0.73457  0.94531  0.62525  1.0000
  H   H7467     1.0  0.90329  0.95220  0.59277  1.0000
  C   C4226     1.0  0.97026  0.80463  0.65766  1.0000
  C   C4227     1.0  0.83720  0.85398  0.62624  1.0000
  H   H7468     1.0  0.81269  0.75906  0.76257  1.0000
  H   H7469     1.0  0.84138  0.73173  0.61297  1.0000
  H   H7470     1.0  0.90550  0.72255  0.63520  1.0000
  S   S960      1.0  0.97388  0.84613  0.60557  1.0000
  H   H7471     1.0  0.76351  0.96784  0.59393  1.0000
  H   H7472     1.0  0.98600  0.66810  0.58713  1.0000
  H   H7473     1.0  0.95442  0.69384  0.64159  1.0000
  H   H7474     1.0  0.87397  0.64661  0.71918  1.0000
  H   H7475     1.0  0.85128  0.79647  0.63997  1.0000
  H   H7476     1.0  0.80650  0.76423  0.78432  1.0000
  S   S961      1.0  0.66130  0.76970  0.77822  1.0000
  C   C4228     1.0  0.83488  0.71897  0.63728  1.0000
  H   H7477     1.0  0.92294  0.87021  0.64396  1.0000
  H   H7478     1.0  0.93086  0.88789  0.64648  1.0000
  C   C4229     1.0  0.67648  0.85456  0.75475  1.0000
  N   N232      1.0  0.93279  0.61092  0.59774  1.0000
  H   H7479     1.0  0.68337  0.97095  0.64170  1.0000
  C   C4230     1.0  0.81181  0.90492  0.59309  1.0000
  Fe  Fe476     1.0  0.94713  0.68275  0.60274  1.0000
  C   C4231     1.0  0.93730  0.75807  0.63804  1.0000
  C   C4232     1.0  0.93627  0.74218  0.59501  1.0000
  C   C4233     1.0  0.87999  0.85127  0.65688  1.0000
  H   H7480     1.0  0.64798  0.92982  0.61919  1.0000
  H   H7481     1.0  0.75516  0.85366  0.62422  1.0000
  H   H7482     1.0  0.78466  0.90642  0.61366  1.0000
  H   H7483     1.0  0.77034  0.93433  0.68575  1.0000
  S   S962      1.0  0.97105  0.67245  0.61182  1.0000
  H   H7484     1.0  0.75706  0.74722  0.76606  1.0000
  H   H7485     1.0  0.96309  0.81696  0.65217  1.0000
  H   H7486     1.0  0.99223  0.71931  0.65176  1.0000
  H   H7487     1.0  0.79493  0.88633  0.59750  1.0000
  H   H7488     1.0  0.87555  0.80867  0.61426  1.0000
  H   H7489     1.0  0.80931  0.86721  0.62559  1.0000
  H   H7490     1.0  0.76251  0.93766  0.61705  1.0000
  H   H7491     1.0  0.73703  0.95848  0.62472  1.0000
  C   C4234     1.0  0.77928  0.91017  0.60485  1.0000
  H   H7492     1.0  0.84766  0.67322  0.70360  1.0000
  N   N233      1.0  0.85830  0.73768  0.62293  1.0000
  H   H7493     1.0  0.92548  0.86431  0.58772  1.0000
  C   C4235     1.0  0.63406  0.90519  0.58981  1.0000
  Fe  Fe477     1.0  0.65213  0.81761  0.78284  1.0000
  C   C4236     1.0  0.69891  0.68764  0.76856  1.0000
  H   H7494     1.0  0.86273  0.85314  0.63759  1.0000
  C   C4237     1.0  0.82573  0.81288  0.66047  1.0000
  H   H7495     1.0  0.98836  0.70805  0.66811  1.0000
  C   C4238     1.0  0.65811  0.68747  0.77695  1.0000
  C   C4239     1.0  0.94487  0.61994  0.58637  1.0000
  H   H7496     1.0  0.64917  0.87399  0.61520  1.0000
  C   C4240     1.0  0.67748  0.72179  0.76049  1.0000
  C   C4241     1.0  0.66889  0.74149  0.75738  1.0000
  H   H7497     1.0  0.93661  0.71743  0.69724  1.0000
  C   C4242     1.0  0.71907  0.66059  0.76058  1.0000
  H   H7498     1.0  0.94837  0.76517  0.63587  1.0000
  H   H7499     1.0  0.70959  0.69535  0.76376  1.0000
  H   H7500     1.0  0.69180  0.68841  0.76111  1.0000
  H   H7501     1.0  0.90480  0.61640  0.60751  1.0000
  C   C4243     1.0  0.82982  0.69183  0.78180  1.0000
  H   H7502     1.0  0.75104  0.78288  0.74505  1.0000
  H   H7503     1.0  0.99775  0.77762  0.66208  1.0000
  H   H7504     1.0  0.91393  0.69598  0.65233  1.0000
  H   H7505     1.0  0.84783  0.85414  0.65250  1.0000
  H   H7506     1.0  0.66550  0.68231  0.76835  1.0000
  H   H7507     1.0  0.65049  0.70123  0.77422  1.0000
  H   H7508     1.0  0.94211  0.72928  0.59281  1.0000
  H   H7509     1.0  0.96665  0.88389  0.60693  1.0000
  Fe  Fe478     1.0  0.91852  0.71106  0.59137  1.0000
  H   H7510     1.0  0.89234  0.84538  0.66074  1.0000
  H   H7511     1.0  0.69072  0.71984  0.75379  1.0000
  H   H7512     1.0  0.94558  0.87036  0.62348  1.0000
  H   H7513     1.0  0.65552  0.74445  0.76375  1.0000
  C   C4244     1.0  0.99971  0.78938  0.66459  1.0000
  H   H7514     1.0  0.66706  0.74543  0.74746  1.0000
  C   C4245     1.0  0.99811  0.78830  0.59103  1.0000
  H   H7515     1.0  0.81171  0.69638  0.76939  1.0000
  C   C4246     1.0  0.93930  0.61030  0.60938  1.0000
  H   H7516     1.0  0.72896  0.66868  0.75464  1.0000
  H   H7517     1.0  0.72652  0.64681  0.76361  1.0000
  H   H7518     1.0  0.70970  0.66032  0.75488  1.0000
  H   H7519     1.0  0.82313  0.84986  0.64587  1.0000
  H   H7520     1.0  0.93676  0.75062  0.65787  1.0000
  C   C4247     1.0  0.92755  0.68957  0.64775  1.0000
  Fe  Fe479     1.0  0.66172  0.96185  0.58661  1.0000
  H   H7521     1.0  0.98920  0.85081  0.64399  1.0000
  N   N234      1.0  0.64582  0.85468  0.73246  1.0000
  C   C4248     1.0  0.64645  0.86542  0.71906  1.0000
  C   C4249     1.0  0.62830  0.86108  0.74118  1.0000
  C   C4250     1.0  0.66090  0.85760  0.73700  1.0000
  C   C4251     1.0  0.64872  0.83513  0.73305  1.0000
  C   C4252     1.0  0.63500  0.82932  0.72836  1.0000
  C   C4253     1.0  0.66406  0.86068  0.70918  1.0000
  C   C4254     1.0  0.66175  0.84921  0.75109  1.0000
  C   C4255     1.0  0.61126  0.86851  0.73545  1.0000
  C   C4256     1.0  0.91396  0.62216  0.59890  1.0000
  C   C4257     1.0  0.64049  0.80954  0.72829  1.0000
  C   C4258     1.0  0.66265  0.87171  0.69591  1.0000
  Fe  Fe480     1.0  0.68174  0.95672  0.60769  1.0000
  H   H7522     1.0  0.64423  0.87977  0.71902  1.0000
  H   H7523     1.0  0.63536  0.86434  0.71523  1.0000
  H   H7524     1.0  0.62541  0.85032  0.74966  1.0000
  H   H7525     1.0  0.62935  0.87212  0.74504  1.0000
  H   H7526     1.0  0.66021  0.87209  0.73547  1.0000
  H   H7527     1.0  0.67413  0.85209  0.73143  1.0000
  H   H7528     1.0  0.66237  0.83012  0.72777  1.0000
  H   H7529     1.0  0.64840  0.82746  0.74293  1.0000
  H   H7530     1.0  0.63385  0.83658  0.71861  1.0000
  H   H7531     1.0  0.62167  0.83143  0.73489  1.0000
  H   H7532     1.0  0.67568  0.86341  0.71148  1.0000
  H   H7533     1.0  0.66705  0.84653  0.70865  1.0000
  H   H7534     1.0  0.94363  0.69024  0.66559  1.0000
  H   H7535     1.0  0.64891  0.85344  0.75760  1.0000
  H   H7536     1.0  0.61212  0.88162  0.72897  1.0000
  H   H7537     1.0  0.60959  0.85972  0.72998  1.0000
  H   H7538     1.0  0.91891  0.87947  0.60716  1.0000
  H   H7539     1.0  0.69008  0.72299  0.77461  1.0000
  C   C4259     1.0  0.89617  0.94725  0.60256  1.0000
  H   H7540     1.0  0.63046  0.80569  0.72489  1.0000
  H   H7541     1.0  0.65382  0.80643  0.72191  1.0000
  H   H7542     1.0  0.64110  0.80154  0.73801  1.0000
  H   H7543     1.0  0.65168  0.86905  0.69274  1.0000
  H   H7544     1.0  0.66013  0.88608  0.69574  1.0000
  H   H7545     1.0  0.67548  0.86810  0.68913  1.0000
  H   H7546     1.0  0.98465  0.78704  0.61572  1.0000
  C   C4260     1.0  0.97250  0.70500  0.61484  1.0000
  H   H7547     1.0  0.75736  0.92561  0.59036  1.0000
  H   H7548     1.0  0.86923  0.85695  0.66427  1.0000
  H   H7549     1.0  0.85851  0.65108  0.70150  1.0000
  H   H7550     1.0  0.90191  0.90981  0.60584  1.0000
  H   H7551     1.0  0.78350  0.69729  0.70313  1.0000
  H   H7552     1.0  0.91242  0.73932  0.62158  1.0000
  H   H7553     1.0  0.73495  0.96775  0.58853  1.0000
  H   H7554     1.0  0.87533  0.74245  0.63979  1.0000
  H   H7555     1.0  0.94810  0.91635  0.60858  1.0000
  H   H7556     1.0  0.84869  0.84735  0.61978  1.0000
  H   H7557     1.0  0.71884  0.66729  0.77769  1.0000
  N   N235      1.0  0.76057  0.90668  0.60794  1.0000
  C   C4261     1.0  0.76150  0.88709  0.61315  1.0000
  H   H7558     1.0  0.95909  0.70980  0.61301  1.0000
  C   C4262     1.0  0.74948  0.91610  0.61840  1.0000
  C   C4263     1.0  0.75199  0.91394  0.59652  1.0000
  C   C4264     1.0  0.64200  0.91789  0.62310  1.0000
  C   C4265     1.0  0.74307  0.88175  0.61919  1.0000
  C   C4266     1.0  0.74954  0.93602  0.61595  1.0000
  C   C4267     1.0  0.98133  0.68739  0.61464  1.0000
  H   H7559     1.0  0.83928  0.82848  0.66571  1.0000
  C   C4268     1.0  0.83289  0.84156  0.63942  1.0000
  C   C4269     1.0  0.74432  0.86233  0.61942  1.0000
  H   H7560     1.0  0.76961  0.88210  0.62063  1.0000
  H   H7561     1.0  0.76882  0.87934  0.60580  1.0000
  H   H7562     1.0  0.81769  0.84826  0.61823  1.0000
  H   H7563     1.0  0.86194  0.71569  0.63898  1.0000
  H   H7564     1.0  0.75427  0.90960  0.62730  1.0000
  H   H7565     1.0  0.73518  0.91501  0.62050  1.0000
  C   C4270     1.0  0.94175  0.70362  0.65923  1.0000
  H   H7566     1.0  0.97387  0.68713  0.66227  1.0000
  H   H7567     1.0  0.71796  0.98711  0.63108  1.0000
  C   C4271     1.0  0.98254  0.84747  0.62746  1.0000
  H   H7568     1.0  0.73865  0.88359  0.62913  1.0000
  H   H7569     1.0  0.94108  0.55957  0.59052  1.0000
  H   H7570     1.0  0.74757  0.94277  0.60631  1.0000
  Fe  Fe481     1.0  0.78892  0.94988  0.62836  1.0000
  H   H7571     1.0  0.87792  0.63560  0.59830  1.0000
  H   H7572     1.0  0.82706  0.80562  0.65312  1.0000
  C   C4272     1.0  0.98939  0.80625  0.65683  1.0000
  C   C4273     1.0  0.94675  0.90884  0.60199  1.0000
  H   H7573     1.0  0.82182  0.89779  0.58609  1.0000
  H   H7574     1.0  0.69930  0.65947  0.77799  1.0000
  H   H7575     1.0  0.78022  0.72376  0.77515  1.0000
  C   C4274     1.0  0.95332  0.70206  0.68332  1.0000
  H   H7576     1.0  0.74714  0.86021  0.60964  1.0000
  H   H7577     1.0  0.90074  0.61198  0.58844  1.0000
  H   H7578     1.0  0.73138  0.85853  0.62464  1.0000
  C   C4275     1.0  0.82259  0.80015  0.67332  1.0000
  H   H7579     1.0  0.82086  0.80690  0.68113  1.0000
  H   H7580     1.0  0.81023  0.79533  0.67452  1.0000
  C   C4276     1.0  0.99833  0.71009  0.62010  1.0000
  N   N236      1.0  0.75251  0.88656  0.69291  1.0000
  C   C4277     1.0  0.75479  0.90471  0.69283  1.0000
  C   C4278     1.0  0.74897  0.87570  0.70634  1.0000
  C   C4279     1.0  0.77003  0.87720  0.68579  1.0000
  C   C4280     1.0  0.73787  0.88757  0.68633  1.0000
  C   C4281     1.0  0.71900  0.89819  0.69139  1.0000
  C   C4282     1.0  0.75854  0.91728  0.67963  1.0000
  C   C4283     1.0  0.77097  0.85779  0.68530  1.0000
  C   C4284     1.0  0.73837  0.88576  0.71704  1.0000
  C   C4285     1.0  0.73260  0.87287  0.72941  1.0000
  C   C4286     1.0  0.70590  0.89974  0.68313  1.0000
  C   C4287     1.0  0.75945  0.93551  0.68089  1.0000
  C   C4288     1.0  0.79030  0.84832  0.68072  1.0000
  H   H7581     1.0  0.76599  0.90330  0.69753  1.0000
  H   H7582     1.0  0.74275  0.91202  0.69848  1.0000
  H   H7583     1.0  0.74185  0.86519  0.70687  1.0000
  H   H7584     1.0  0.76185  0.86836  0.70926  1.0000
  H   H7585     1.0  0.78137  0.87728  0.68989  1.0000
  H   H7586     1.0  0.77305  0.88423  0.67571  1.0000
  H   H7587     1.0  0.74182  0.89301  0.67602  1.0000
  H   H7588     1.0  0.73614  0.87402  0.68701  1.0000
  H   H7589     1.0  0.71938  0.91184  0.69155  1.0000
  H   H7590     1.0  0.71340  0.89121  0.70104  1.0000
  H   H7591     1.0  0.77160  0.91202  0.67374  1.0000
  H   H7592     1.0  0.74775  0.91935  0.67449  1.0000
  H   H7593     1.0  0.76297  0.85784  0.67855  1.0000
  H   H7594     1.0  0.76566  0.84980  0.69462  1.0000
  H   H7595     1.0  0.74704  0.89326  0.71882  1.0000
  H   H7596     1.0  0.72614  0.89530  0.71465  1.0000
  H   H7597     1.0  0.72551  0.88033  0.73699  1.0000
  H   H7598     1.0  0.72329  0.86555  0.72821  1.0000
  H   H7599     1.0  0.74448  0.86320  0.73242  1.0000
  H   H7600     1.0  0.70359  0.88646  0.68370  1.0000
  H   H7601     1.0  0.69278  0.90823  0.68656  1.0000
  H   H7602     1.0  0.71112  0.90578  0.67309  1.0000
  H   H7603     1.0  0.76238  0.94410  0.67130  1.0000
  H   H7604     1.0  0.74644  0.94198  0.68622  1.0000
  H   H7605     1.0  0.79848  0.84651  0.68778  1.0000
  H   H7606     1.0  0.79036  0.83506  0.67940  1.0000
  H   H7607     1.0  0.79653  0.85600  0.67151  1.0000
  C   C4289     1.0  0.82255  0.75189  0.76859  1.0000
  H   H7608     1.0  0.73247  0.89003  0.61404  1.0000
  H   H7609     1.0  0.82617  0.78788  0.62730  1.0000
  H   H7610     1.0  0.94884  0.58946  0.63216  1.0000
  H   H7611     1.0  0.92762  0.59653  0.64238  1.0000
  H   H7612     1.0  0.82121  0.63702  0.74177  1.0000
  S   S963      1.0  0.68005  0.80357  0.77482  1.0000
  H   H7613     1.0  0.82522  0.83248  0.63844  1.0000
  H   H7614     1.0  0.97424  0.72997  0.61779  1.0000
  C   C4290     1.0  0.82120  0.85990  0.61978  1.0000
  H   H7615     1.0  0.88407  0.74223  0.61145  1.0000
  H   H7616     1.0  0.67330  0.86907  0.75419  1.0000
  C   C4291     1.0  0.85897  0.70458  0.60295  1.0000
  C   C4292     1.0  0.70875  0.66809  0.77227  1.0000
  Fe  Fe482     1.0  0.82888  0.94516  0.61790  1.0000
  H   H7617     1.0  0.80793  0.61057  0.74611  1.0000
  C   C4293     1.0  0.85574  0.73127  0.61221  1.0000
  H   H7618     1.0  0.88291  0.86206  0.64854  1.0000
  C   C4294     1.0  0.87823  0.73603  0.62131  1.0000
  H   H7619     1.0  0.85948  0.71301  0.59325  1.0000
  C   C4295     1.0  0.92140  0.77560  0.60092  1.0000
  H   H7620     1.0  0.92706  0.68809  0.63831  1.0000
  H   H7621     1.0  0.96562  0.89020  0.59065  1.0000
  H   H7622     1.0  0.79729  0.71341  0.69881  1.0000
  H   H7623     1.0  0.79958  0.65132  0.74062  1.0000
  H   H7624     1.0  0.63491  0.87202  0.60566  1.0000
  C   C4296     1.0  0.98103  0.71634  0.61761  1.0000
  H   H7625     1.0  0.78612  0.62507  0.74506  1.0000
  H   H7626     1.0  0.86399  0.66940  0.72044  1.0000
  H   H7627     1.0  0.59511  0.88035  0.75141  1.0000
  H   H7628     1.0  0.85979  0.74038  0.60298  1.0000
  H   H7629     1.0  0.79702  0.62457  0.75734  1.0000
  C   C4297     1.0  0.92713  0.60408  0.62237  1.0000
  H   H7630     1.0  0.87926  0.66458  0.70612  1.0000
  N   N237      1.0  0.81869  0.72160  0.76673  1.0000
  C   C4298     1.0  0.80348  0.73011  0.75984  1.0000
  C   C4299     1.0  0.83627  0.71746  0.75738  1.0000
  C   C4300     1.0  0.77042  0.74313  0.75998  1.0000
  H   H7631     1.0  0.82453  0.75717  0.61641  1.0000
  C   C4301     1.0  0.99871  0.68127  0.61697  1.0000
  C   C4302     1.0  0.82890  0.76211  0.62314  1.0000
  H   H7632     1.0  0.51490  0.74636  0.78198  1.0000
  C   C4303     1.0  0.83912  0.73061  0.74435  1.0000
  C   C4304     1.0  0.85830  0.72602  0.73674  1.0000
  C   C4305     1.0  0.99026  0.70653  0.65828  1.0000
  C   C4306     1.0  0.98897  0.76515  0.63131  1.0000
  H   H7633     1.0  0.73190  0.98169  0.60458  1.0000
  H   H7634     1.0  0.80262  0.72106  0.75420  1.0000
  H   H7635     1.0  0.80600  0.74236  0.75281  1.0000
  H   H7636     1.0  0.84783  0.71581  0.76178  1.0000
  H   H7637     1.0  0.83780  0.70448  0.75491  1.0000
  H   H7638     1.0  0.82272  0.77624  0.77347  1.0000
  H   H7639     1.0  0.91393  0.63556  0.60007  1.0000
  H   H7640     1.0  0.95083  0.69713  0.70365  1.0000
  H   H7641     1.0  0.82228  0.75671  0.63298  1.0000
  H   H7642     1.0  0.91566  0.78851  0.60321  1.0000
  H   H7643     1.0  0.83637  0.75141  0.76276  1.0000
  H   H7644     1.0  0.91671  0.92060  0.59307  1.0000
  H   H7645     1.0  0.96660  0.69279  0.68222  1.0000
  H   H7646     1.0  0.58237  0.87700  0.74147  1.0000
  H   H7647     1.0  0.80792  0.73363  0.78303  1.0000
  H   H7648     1.0  0.82997  0.72987  0.73865  1.0000
  H   H7649     1.0  0.83638  0.74452  0.74525  1.0000
  H   H7650     1.0  0.85964  0.73504  0.72723  1.0000
  H   H7651     1.0  0.86807  0.72761  0.74162  1.0000
  H   H7652     1.0  0.86159  0.71218  0.73541  1.0000
  H   H7653     1.0  0.70366  0.98561  0.65524  1.0000
  H   H7654     1.0  0.94247  0.63429  0.58626  1.0000
  C   C4307     1.0  0.96485  0.89541  0.59902  1.0000
  C   C4308     1.0  0.91884  0.75072  0.59351  1.0000
  H   H7655     1.0  0.95933  0.72663  0.63942  1.0000
  C   C4309     1.0  0.79337  0.90093  0.59478  1.0000
  C   C4310     1.0  0.94114  0.70078  0.64622  1.0000
  C   C4311     1.0  0.78452  0.73534  0.76815  1.0000
  H   H7656     1.0  0.90124  0.92858  0.61952  1.0000
  N   N238      1.0  0.74649  0.76016  0.71623  1.0000
  C   C4312     1.0  0.75237  0.74025  0.71835  1.0000
  C   C4313     1.0  0.75968  0.76838  0.70526  1.0000
  C   C4314     1.0  0.74563  0.76569  0.72825  1.0000
  C   C4315     1.0  0.72812  0.76653  0.71305  1.0000
  C   C4316     1.0  0.72499  0.75853  0.70288  1.0000
  C   C4317     1.0  0.73982  0.72974  0.72911  1.0000
  C   C4318     1.0  0.74366  0.78580  0.72710  1.0000
  C   C4319     1.0  0.77940  0.76353  0.70683  1.0000
  C   C4320     1.0  0.79064  0.77556  0.69677  1.0000
  C   C4321     1.0  0.70736  0.76835  0.69878  1.0000
  C   C4322     1.0  0.74639  0.70978  0.72995  1.0000
  C   C4323     1.0  0.73991  0.79016  0.74013  1.0000
  H   H7657     1.0  0.76577  0.73583  0.72091  1.0000
  H   H7658     1.0  0.75434  0.73576  0.70942  1.0000
  H   H7659     1.0  0.76015  0.76429  0.69646  1.0000
  H   H7660     1.0  0.75517  0.78308  0.70295  1.0000
  H   H7661     1.0  0.75764  0.75850  0.73233  1.0000
  H   H7662     1.0  0.73403  0.76173  0.73570  1.0000
  H   H7663     1.0  0.71733  0.76412  0.72166  1.0000
  H   H7664     1.0  0.72538  0.78118  0.70957  1.0000
  H   H7665     1.0  0.72430  0.74438  0.70665  1.0000
  H   H7666     1.0  0.73589  0.75927  0.69430  1.0000
  H   H7667     1.0  0.73959  0.73227  0.73840  1.0000
  H   H7668     1.0  0.72584  0.73352  0.72771  1.0000
  H   H7669     1.0  0.73245  0.79370  0.72247  1.0000
  H   H7670     1.0  0.75618  0.79012  0.72143  1.0000
  H   H7671     1.0  0.78047  0.76456  0.71623  1.0000
  H   H7672     1.0  0.78550  0.74972  0.70564  1.0000
  H   H7673     1.0  0.78572  0.78951  0.69790  1.0000
  H   H7674     1.0  0.80489  0.77112  0.69769  1.0000
  H   H7675     1.0  0.79003  0.77493  0.68715  1.0000
  H   H7676     1.0  0.70537  0.76224  0.69163  1.0000
  H   H7677     1.0  0.69583  0.76760  0.70701  1.0000
  H   H7678     1.0  0.70775  0.78248  0.69438  1.0000
  H   H7679     1.0  0.73708  0.70264  0.73765  1.0000
  H   H7680     1.0  0.74687  0.70636  0.72090  1.0000
  H   H7681     1.0  0.75995  0.70524  0.73222  1.0000
  C   C4324     1.0  0.98090  0.90407  0.59614  1.0000
  H   H7682     1.0  0.74582  0.89066  0.59312  1.0000
  H   H7683     1.0  0.61465  0.97746  0.60857  1.0000
  H   H7684     1.0  0.68972  0.85074  0.74848  1.0000
  H   H7685     1.0  0.82542  0.63437  0.68205  1.0000
  H   H7686     1.0  0.72146  0.94703  0.62281  1.0000
  H   H7687     1.0  0.95277  0.60128  0.60935  1.0000
  H   H7688     1.0  0.86682  0.70314  0.62016  1.0000
  H   H7689     1.0  0.85569  0.76480  0.61239  1.0000
  H   H7690     1.0  0.99245  0.78873  0.67462  1.0000
  Fe  Fe483     1.0  0.80317  0.95920  0.60004  1.0000
  C   C4325     1.0  0.85554  0.80726  0.63207  1.0000
  H   H7691     1.0  0.91807  0.56985  0.58915  1.0000
  H   H7692     1.0  0.96633  0.73651  0.64890  1.0000
  S   S964      1.0  0.68488  0.94494  0.62775  1.0000
  H   H7693     1.0  0.94100  0.61253  0.63330  1.0000
  C   C4326     1.0  0.66004  0.88053  0.59477  1.0000
  C   C4327     1.0  0.70777  0.75264  0.77680  1.0000
  H   H7694     1.0  0.81355  0.82376  0.66022  1.0000
  H   H7695     1.0  0.67745  0.84767  0.76464  1.0000
  C   C4328     1.0  0.84954  0.75712  0.62169  1.0000
  C   C4329     1.0  0.95575  0.72976  0.64896  1.0000
  H   H7696     1.0  0.82479  0.86875  0.61043  1.0000
  H   H7697     1.0  0.99064  0.80049  0.59467  1.0000
  Fe  Fe484     1.0  0.80533  0.98225  0.61687  1.0000
  H   H7698     1.0  0.93710  0.71366  0.63979  1.0000
  C   C4330     1.0  0.68010  0.71565  0.77439  1.0000
  H   H7699     1.0  0.78424  0.74548  0.77328  1.0000
  C   C4331     1.0  0.93792  0.74387  0.65018  1.0000
  C   C4332     1.0  0.91407  0.91552  0.60351  1.0000
  H   H7700     1.0  0.94563  0.86649  0.64588  1.0000
  H   H7701     1.0  0.68894  0.95137  0.66331  1.0000
  H   H7702     1.0  0.79821  0.65985  0.69788  1.0000
  C   C4333     1.0  0.86251  0.81983  0.63701  1.0000
  C   C4334     1.0  0.85128  0.72706  0.63586  1.0000
  H   H7703     1.0  0.92297  0.59181  0.62263  1.0000
  H   H7704     1.0  0.00015  0.75604  0.63556  1.0000
  H   H7705     1.0  0.87304  0.81123  0.64215  1.0000
  C   C4335     1.0  0.69970  0.97480  0.65292  1.0000
  H   H7706     1.0  0.80327  0.63598  0.70260  1.0000
  C   C4336     1.0  0.82034  0.76279  0.77838  1.0000
  C   C4337     1.0  0.94118  0.88234  0.62754  1.0000
  H   H7707     1.0  0.82395  0.72871  0.63321  1.0000
  H   H7708     1.0  0.63507  0.67696  0.77800  1.0000
  H   H7709     1.0  0.93857  0.72612  0.67378  1.0000
  C   C4338     1.0  0.63768  0.91207  0.61257  1.0000
  C   C4339     1.0  0.99369  0.85088  0.63399  1.0000
  H   H7710     1.0  0.70358  0.95691  0.67078  1.0000
  H   H7711     1.0  0.65782  0.92206  0.59766  1.0000
  H   H7712     1.0  0.83893  0.70772  0.63243  1.0000
  H   H7713     1.0  0.76948  0.73306  0.75519  1.0000
  C   C4340     1.0  0.93308  0.59219  0.59717  1.0000
  H   H7714     1.0  0.73728  0.91926  0.59941  1.0000
  H   H7715     1.0  0.84217  0.68763  0.77482  1.0000
  H   H7716     1.0  0.66742  0.72093  0.78076  1.0000
  C   C4341     1.0  0.93104  0.88937  0.58777  1.0000
  H   H7717     1.0  0.66486  0.83455  0.75278  1.0000
  H   H7718     1.0  0.96953  0.84466  0.63243  1.0000
  N   N239      1.0  0.68645  0.69594  0.77922  1.0000
  C   C4342     1.0  0.82713  0.71180  0.65119  1.0000
  H   H7719     1.0  0.93838  0.75199  0.63000  1.0000
  C   C4343     1.0  0.69280  0.96253  0.66530  1.0000
  C   C4344     1.0  0.59429  0.87120  0.74582  1.0000
  H   H7720     1.0  0.81637  0.90059  0.60219  1.0000
  H   H7721     1.0  0.80726  0.78551  0.62237  1.0000
  N   N240      1.0  0.82074  0.65245  0.71523  1.0000
  C   C4345     1.0  0.82513  0.64832  0.70225  1.0000
  C   C4346     1.0  0.83785  0.65201  0.71902  1.0000
  C   C4347     1.0  0.81223  0.63791  0.72454  1.0000
  C   C4348     1.0  0.80745  0.66986  0.71606  1.0000
  C   C4349     1.0  0.81112  0.68634  0.70553  1.0000
  C   C4350     1.0  0.80896  0.64774  0.69719  1.0000
  C   C4351     1.0  0.80852  0.63860  0.73875  1.0000
  C   C4352     1.0  0.85281  0.65963  0.70856  1.0000
  C   C4353     1.0  0.86841  0.66003  0.71398  1.0000
  C   C4354     1.0  0.79422  0.70123  0.70572  1.0000
  C   C4355     1.0  0.81474  0.64643  0.68327  1.0000
  C   C4356     1.0  0.79934  0.62375  0.74727  1.0000
  H   H7722     1.0  0.83481  0.63531  0.70215  1.0000
  H   H7723     1.0  0.83228  0.65801  0.69504  1.0000
  H   H7724     1.0  0.83474  0.65889  0.72694  1.0000
  H   H7725     1.0  0.84439  0.63807  0.72278  1.0000
  H   H7726     1.0  0.82085  0.62464  0.72344  1.0000
  H   H7727     1.0  0.79910  0.63812  0.72261  1.0000
  H   H7728     1.0  0.79371  0.66836  0.71649  1.0000
  H   H7729     1.0  0.80639  0.67361  0.72512  1.0000
  H   H7730     1.0  0.81517  0.68364  0.69589  1.0000
  H   H7731     1.0  0.82179  0.69145  0.70719  1.0000
  H   H7732     1.0  0.67241  0.98694  0.65114  1.0000
  H   H7733     1.0  0.88074  0.71295  0.60602  1.0000
  H   H7734     1.0  0.98020  0.91545  0.58790  1.0000
  H   H7735     1.0  0.97752  0.69913  0.64642  1.0000
  H   H7736     1.0  0.88527  0.72183  0.62273  1.0000
  H   H7737     1.0  0.88226  0.75902  0.62629  1.0000
  H   H7738     1.0  0.87172  0.82657  0.66185  1.0000
  H   H7739     1.0  0.94280  0.69458  0.68461  1.0000
  C   C4357     1.0  0.91136  0.76745  0.59648  1.0000
  C   C4358     1.0  0.98805  0.84838  0.61441  1.0000
  C   C4359     1.0  0.85778  0.84479  0.64691  1.0000
  C   C4360     1.0  0.99948  0.50110  0.59947  1.0000
  C   C4361     1.0  0.75379  0.90088  0.58802  1.0000
  C   C4362     1.0  0.87038  0.79849  0.62236  1.0000
  H   H7740     1.0  0.84043  0.86609  0.62726  1.0000
  H   H7741     1.0  0.83152  0.72651  0.77980  1.0000
  N   N241      1.0  0.92993  0.90138  0.60724  1.0000
  H   H7742     1.0  0.92600  0.73801  0.65232  1.0000
  H   H7743     1.0  0.89784  0.77406  0.59538  1.0000
  H   H7744     1.0  0.72713  0.78658  0.74606  1.0000
  H   H7745     1.0  0.98140  0.75728  0.62876  1.0000
  H   H7746     1.0  0.77383  0.75494  0.75274  1.0000
  H   H7747     1.0  0.83758  0.70176  0.65571  1.0000
  H   H7748     1.0  0.85203  0.76246  0.62907  1.0000
  H   H7749     1.0  0.84781  0.73523  0.64309  1.0000
  H   H7750     1.0  0.73410  0.93764  0.63510  1.0000
  C   C4363     1.0  0.81997  0.73284  0.77512  1.0000
  H   H7751     1.0  0.86706  0.69108  0.60220  1.0000
  C   C4364     1.0  0.97413  0.70073  0.65640  1.0000
  H   H7752     1.0  0.65147  0.90701  0.62798  1.0000
  N   N242      1.0  0.95599  0.71300  0.65910  1.0000
  H   H7753     1.0  0.97970  0.77247  0.63847  1.0000
  H   H7754     1.0  0.82769  0.78845  0.61080  1.0000
  S   S965      1.0  0.68658  0.94267  0.59194  1.0000
  S   S966      1.0  0.69796  0.97693  0.59658  1.0000
  H   H7755     1.0  0.59243  0.85830  0.75229  1.0000
  S   S967      1.0  0.78228  0.97412  0.61347  1.0000
  C   C4365     1.0  0.90867  0.93198  0.60956  1.0000
  H   H7756     1.0  0.94575  0.91878  0.59295  1.0000
  C   C4366     1.0  0.99621  0.77824  0.61958  1.0000
  H   H7757     1.0  0.92436  0.76789  0.63915  1.0000
  H   H7758     1.0  0.67104  0.84718  0.60959  1.0000
  H   H7759     1.0  0.89149  0.95833  0.60764  1.0000
  H   H7760     1.0  0.99162  0.71030  0.58944  1.0000
  H   H7761     1.0  0.88419  0.94288  0.60216  1.0000
  H   H7762     1.0  0.96995  0.61680  0.59234  1.0000
  C   C4367     1.0  0.60808  0.99073  0.61076  1.0000
  H   H7763     1.0  0.99598  0.80872  0.64665  1.0000
  H   H7764     1.0  0.98542  0.63739  0.59876  1.0000
  H   H7765     1.0  0.67384  0.87742  0.59657  1.0000
  H   H7766     1.0  0.60504  0.89198  0.58791  1.0000
  C   C4368     1.0  0.99700  0.64018  0.59091  1.0000
  N   N243      1.0  0.65314  0.90033  0.59167  1.0000
  H   H7767     1.0  0.80269  0.70655  0.78275  1.0000
  S   S968      1.0  0.77839  0.68524  0.78090  1.0000
  H   H7768     1.0  0.82064  0.66748  0.78434  1.0000
  C   C4369     1.0  0.64898  0.87002  0.60653  1.0000
  H   H7769     1.0  0.81133  0.91935  0.58952  1.0000
  C   C4370     1.0  0.88724  0.63891  0.58906  1.0000
  H   H7770     1.0  0.89038  0.65197  0.58812  1.0000
  C   C4371     1.0  0.90449  0.62455  0.58801  1.0000
  H   H7771     1.0  0.66602  0.90083  0.60641  1.0000
  S   S969      1.0  0.90583  0.69167  0.58753  1.0000
  H   H7772     1.0  0.64895  0.84287  0.61683  1.0000
  H   H7773     1.0  0.96833  0.59768  0.58761  1.0000
  S   S970      1.0  0.64475  0.84579  0.78531  1.0000
  H   H7774     1.0  0.65692  0.84520  0.59995  1.0000
  C   C4372     1.0  0.65459  0.90872  0.60188  1.0000
  C   C4373     1.0  0.65702  0.85012  0.60827  1.0000
  H   H7775     1.0  0.62474  0.89998  0.59850  1.0000
  H   H7776     1.0  0.83017  0.75639  0.78458  1.0000
  Fe  Fe485     1.0  0.75752  0.64515  0.78491  1.0000
  H   H7777     1.0  0.71035  0.69688  0.78467  1.0000
  C   C4374     1.0  0.64430  0.67612  0.78413  1.0000
  C   C4375     1.0  0.67078  0.68700  0.78543  1.0000
  C   C4376     1.0  0.70737  0.99038  0.62553  1.0000
  H   H7778     1.0  0.59845  0.98886  0.62003  1.0000
  H   H7779     1.0  0.00199  0.62893  0.58599  1.0000
  H   H7780     1.0  0.62924  0.91984  0.58816  1.0000
  H   H7781     1.0  0.68729  0.90780  0.58771  1.0000
  H   H7782     1.0  0.66156  0.87471  0.58650  1.0000
  S   S971      1.0  0.76922  0.66855  0.81799  1.0000
  H   H7783     1.0  0.58632  0.73287  0.86341  1.0000
  N   N244      1.0  0.72484  0.51931  0.87534  1.0000
  Fe  Fe486     1.0  0.92308  0.58786  0.92743  1.0000
  S   S972      1.0  0.90434  0.61404  0.92965  1.0000
  S   S973      1.0  0.95228  0.58058  0.91782  1.0000
  Fe  Fe487     1.0  0.89333  0.56724  0.93986  1.0000
  S   S974      1.0  0.87225  0.59140  0.94337  1.0000
  S   S975      1.0  0.88651  0.54032  0.94670  1.0000
  Fe  Fe488     1.0  0.88457  0.60394  0.92364  1.0000
  S   S976      1.0  0.86919  0.61688  0.90803  1.0000
  Fe  Fe489     1.0  0.89357  0.59909  0.94929  1.0000
  S   S977      1.0  0.88618  0.61049  0.96693  1.0000
  S   S978      1.0  0.90432  0.57926  0.91980  1.0000
  S   S979      1.0  0.91372  0.57368  0.94734  1.0000
  Fe  Fe490     1.0  0.55667  0.94569  0.90354  1.0000
  S   S980      1.0  0.52911  0.96310  0.90681  1.0000
  S   S981      1.0  0.56632  0.93603  0.88511  1.0000
  Fe  Fe491     1.0  0.56202  0.94636  0.92949  1.0000
  S   S982      1.0  0.53460  0.96302  0.93495  1.0000
  H   H7784     1.0  0.50489  0.80214  0.79309  1.0000
  Fe  Fe492     1.0  0.52571  0.94565  0.92616  1.0000
  H   H7785     1.0  0.66035  0.62862  0.87815  1.0000
  Fe  Fe493     1.0  0.54076  0.97887  0.91504  1.0000
  S   S983      1.0  0.64657  0.79502  0.79901  1.0000
  S   S984      1.0  0.55253  0.92744  0.92256  1.0000
  S   S985      1.0  0.56889  0.96320  0.90995  1.0000
  Fe  Fe494     1.0  0.79328  0.58480  0.89438  1.0000
  S   S986      1.0  0.81303  0.56901  0.88092  1.0000
  S   S987      1.0  0.79874  0.59134  0.91114  1.0000
  Fe  Fe495     1.0  0.76261  0.58981  0.88116  1.0000
  S   S988      1.0  0.77973  0.57444  0.86666  1.0000
  S   S989      1.0  0.73423  0.60389  0.87986  1.0000
  Fe  Fe496     1.0  0.79067  0.55548  0.88293  1.0000
  S   S990      1.0  0.79585  0.52559  0.88675  1.0000
  Fe  Fe497     1.0  0.80034  0.58927  0.86585  1.0000
  S   S991      1.0  0.81603  0.60042  0.84677  1.0000
  S   S992      1.0  0.77170  0.56971  0.89769  1.0000
  S   S993      1.0  0.78244  0.60623  0.87919  1.0000
  Fe  Fe498     1.0  0.55610  0.85059  0.86944  1.0000
  S   S994      1.0  0.54144  0.86991  0.85513  1.0000
  S   S995      1.0  0.56427  0.85713  0.88528  1.0000
  Fe  Fe499     1.0  0.55685  0.81893  0.85875  1.0000
  H   H7786     1.0  0.64121  0.61503  0.82018  1.0000
  S   S996      1.0  0.56393  0.78896  0.86359  1.0000
  Fe  Fe500     1.0  0.56078  0.85439  0.84119  1.0000
  S   S997      1.0  0.57220  0.87149  0.82285  1.0000
  S   S998      1.0  0.57660  0.83622  0.85532  1.0000
  H   H7787     1.0  0.67956  0.61118  0.88131  1.0000
  S   S999      1.0  0.52673  0.70073  0.84286  1.0000
  Fe  Fe501     1.0  0.57397  0.69966  0.82050  1.0000
  S   S1000     1.0  0.56787  0.70613  0.83958  1.0000
  S   S1001     1.0  0.60167  0.70027  0.80828  1.0000
  Fe  Fe502     1.0  0.55358  0.68358  0.84590  1.0000
  S   S1002     1.0  0.55906  0.66389  0.86363  1.0000
  Fe  Fe503     1.0  0.54195  0.72254  0.83473  1.0000
  S   S1003     1.0  0.52982  0.75074  0.83650  1.0000
  S   S1004     1.0  0.56158  0.67573  0.82713  1.0000
  S   S1005     1.0  0.54909  0.71795  0.81503  1.0000
  Fe  Fe504     1.0  0.66524  0.55492  0.84225  1.0000
  S   S1006     1.0  0.64743  0.55427  0.86156  1.0000
  S   S1007     1.0  0.67608  0.53078  0.83366  1.0000
  Fe  Fe505     1.0  0.66562  0.59402  0.83809  1.0000
  S   S1008     1.0  0.64800  0.59634  0.85712  1.0000
  H   H7788     1.0  0.84242  0.61907  0.84834  1.0000
  Fe  Fe506     1.0  0.66525  0.57008  0.86405  1.0000
  S   S1009     1.0  0.67502  0.56344  0.88219  1.0000
  Fe  Fe507     1.0  0.63202  0.58061  0.85265  1.0000
  S   S1010     1.0  0.60212  0.58804  0.85388  1.0000
  S   S1011     1.0  0.68426  0.56896  0.84532  1.0000
  S   S1012     1.0  0.64853  0.57989  0.83306  1.0000
  C   C4377     1.0  0.59007  0.73567  0.80795  1.0000
  H   H7789     1.0  0.57793  0.73241  0.81425  1.0000
  C   C4378     1.0  0.57140  0.64311  0.86058  1.0000
  C   C4379     1.0  0.58741  0.63521  0.86486  1.0000
  C   C4380     1.0  0.59720  0.61848  0.86259  1.0000
  C   C4381     1.0  0.59058  0.60927  0.85653  1.0000
  C   C4382     1.0  0.57431  0.61699  0.85259  1.0000
  C   C4383     1.0  0.56499  0.63405  0.85430  1.0000
  H   H7790     1.0  0.59231  0.64209  0.86984  1.0000
  H   H7791     1.0  0.60954  0.61250  0.86589  1.0000
  H   H7792     1.0  0.56887  0.60976  0.84822  1.0000
  H   H7793     1.0  0.55249  0.63993  0.85117  1.0000
  H   H7794     1.0  0.70059  0.59134  0.81829  1.0000
  C   C4384     1.0  0.59222  0.86341  0.81269  1.0000
  C   C4385     1.0  0.60132  0.84565  0.81496  1.0000
  C   C4386     1.0  0.61730  0.83986  0.80647  1.0000
  C   C4387     1.0  0.62435  0.85198  0.79590  1.0000
  C   C4388     1.0  0.61532  0.86976  0.79385  1.0000
  C   C4389     1.0  0.59927  0.87540  0.80213  1.0000
  H   H7795     1.0  0.59600  0.83647  0.82323  1.0000
  H   H7796     1.0  0.64789  0.49403  0.86834  1.0000
  H   H7797     1.0  0.59232  0.88916  0.80036  1.0000
  C   C4390     1.0  0.55441  0.77820  0.85614  1.0000
  C   C4391     1.0  0.54805  0.78721  0.84517  1.0000
  C   C4392     1.0  0.54155  0.77829  0.83882  1.0000
  C   C4393     1.0  0.54075  0.76046  0.84362  1.0000
  C   C4394     1.0  0.54721  0.75129  0.85456  1.0000
  C   C4395     1.0  0.55404  0.76019  0.86081  1.0000
  H   H7798     1.0  0.54849  0.80095  0.84140  1.0000
  C   C4396     1.0  0.69856  0.69800  0.81037  1.0000
  H   H7799     1.0  0.54659  0.73749  0.85834  1.0000
  H   H7800     1.0  0.55884  0.75319  0.86935  1.0000
  C   C4397     1.0  0.80261  0.61867  0.83847  1.0000
  C   C4398     1.0  0.78594  0.62691  0.84477  1.0000
  C   C4399     1.0  0.77597  0.64237  0.83846  1.0000
  C   C4400     1.0  0.80894  0.62565  0.82563  1.0000
  H   H7801     1.0  0.78075  0.62156  0.85455  1.0000
  H   H7802     1.0  0.76339  0.64891  0.84348  1.0000
  C   C4401     1.0  0.78208  0.64917  0.82563  1.0000
  C   C4402     1.0  0.72009  0.58990  0.88071  1.0000
  C   C4403     1.0  0.70879  0.58430  0.89225  1.0000
  C   C4404     1.0  0.69552  0.57543  0.89269  1.0000
  C   C4405     1.0  0.69303  0.57277  0.88152  1.0000
  C   C4406     1.0  0.70468  0.57788  0.87002  1.0000
  C   C4407     1.0  0.71837  0.58620  0.86965  1.0000
  H   H7803     1.0  0.70995  0.58727  0.90081  1.0000
  H   H7804     1.0  0.68658  0.57147  0.90161  1.0000
  H   H7805     1.0  0.70305  0.57565  0.86139  1.0000
  H   H7806     1.0  0.72725  0.59023  0.86074  1.0000
  H   H7807     1.0  0.63943  0.53130  0.84851  1.0000
  C   C4408     1.0  0.60422  0.72232  0.80385  1.0000
  H   H7808     1.0  0.60089  0.92611  0.82804  1.0000
  C   C4409     1.0  0.73645  0.50087  0.87635  1.0000
  C   C4410     1.0  0.56488  0.91419  0.88561  1.0000
  C   C4411     1.0  0.55858  0.91088  0.87610  1.0000
  C   C4412     1.0  0.55820  0.89346  0.87596  1.0000
  C   C4413     1.0  0.56454  0.87918  0.88514  1.0000
  C   C4414     1.0  0.57112  0.88247  0.89451  1.0000
  C   C4415     1.0  0.57110  0.89990  0.89484  1.0000
  H   H7809     1.0  0.55377  0.92186  0.86892  1.0000
  H   H7810     1.0  0.55304  0.89107  0.86876  1.0000
  H   H7811     1.0  0.57616  0.87149  0.90162  1.0000
  H   H7812     1.0  0.57627  0.90226  0.90209  1.0000
  C   C4416     1.0  0.88772  0.52958  0.93474  1.0000
  C   C4417     1.0  0.88433  0.51253  0.93814  1.0000
  C   C4418     1.0  0.89267  0.53740  0.92193  1.0000
  C   C4419     1.0  0.61107  0.63725  0.82562  1.0000
  H   H7813     1.0  0.89462  0.55070  0.91914  1.0000
  H   H7814     1.0  0.63769  0.98235  0.90929  1.0000
  H   H7815     1.0  0.68519  0.52847  0.87713  1.0000
  H   H7816     1.0  0.53594  0.79962  0.91242  1.0000
  C   C4420     1.0  0.85051  0.60794  0.90942  1.0000
  C   C4421     1.0  0.84900  0.60150  0.89939  1.0000
  C   C4422     1.0  0.83336  0.59590  0.89993  1.0000
  C   C4423     1.0  0.81901  0.59714  0.91037  1.0000
  C   C4424     1.0  0.82070  0.60322  0.92049  1.0000
  C   C4425     1.0  0.83642  0.60853  0.92005  1.0000
  H   H7817     1.0  0.85994  0.60095  0.89120  1.0000
  H   H7818     1.0  0.83225  0.59089  0.89222  1.0000
  H   H7819     1.0  0.80970  0.60410  0.92864  1.0000
  H   H7820     1.0  0.83743  0.61359  0.92778  1.0000
  H   H7821     1.0  0.84528  0.54955  0.86549  1.0000
  C   C4426     1.0  0.97597  0.61499  0.92460  1.0000
  C   C4427     1.0  0.96332  0.60779  0.92205  1.0000
  C   C4428     1.0  0.96736  0.58989  0.92153  1.0000
  S   S1013     1.0  0.78324  0.64195  0.79096  1.0000
  H   H7822     1.0  0.71810  0.64865  0.79689  1.0000
  C   C4429     1.0  0.51301  0.79721  0.80048  1.0000
  H   H7823     1.0  0.95065  0.61615  0.92020  1.0000
  H   H7824     1.0  0.51873  0.66537  0.85645  1.0000
  H   H7825     1.0  0.80315  0.51881  0.92760  1.0000
  C   C4430     1.0  0.96142  0.61423  0.97933  1.0000
  H   H7826     1.0  0.60921  0.92368  0.95606  1.0000
  H   H7827     1.0  0.96218  0.61168  0.94920  1.0000
  C   C4431     1.0  0.82379  0.67503  0.79014  1.0000
  C   C4432     1.0  0.59418  0.65710  0.80435  1.0000
  C   C4433     1.0  0.89227  0.51068  0.91603  1.0000
  C   C4434     1.0  0.74207  0.52696  0.88914  1.0000
  H   H7828     1.0  0.60503  0.94949  0.84280  1.0000
  C   C4435     1.0  0.50405  0.66546  0.82936  1.0000
  S   S1014     1.0  0.53773  0.83172  0.87408  1.0000
  H   H7829     1.0  0.66454  0.51316  0.89455  1.0000
  C   C4436     1.0  0.53482  0.89022  0.92345  1.0000
  H   H7830     1.0  0.95321  0.53344  0.97908  1.0000
  H   H7831     1.0  0.92127  0.49880  0.97203  1.0000
  H   H7832     1.0  0.54841  0.89322  0.92012  1.0000
  C   C4437     1.0  0.62884  0.98689  0.91786  1.0000
  H   H7833     1.0  0.96744  0.53555  0.88995  1.0000
  H   H7834     1.0  0.54518  0.90250  0.83390  1.0000
  C   C4438     1.0  0.85408  0.59822  0.86212  1.0000
  C   C4439     1.0  0.78560  0.50011  0.85817  1.0000
  H   H7835     1.0  0.60355  0.90232  0.81961  1.0000
  H   H7836     1.0  0.93200  0.50762  0.91535  1.0000
  C   C4440     1.0  0.61173  0.64279  0.80227  1.0000
  H   H7837     1.0  0.51183  0.76916  0.79348  1.0000
  H   H7838     1.0  0.60789  0.71900  0.85836  1.0000
  C   C4441     1.0  0.50958  0.74564  0.88130  1.0000
  C   C4442     1.0  0.72747  0.53257  0.83864  1.0000
  H   H7839     1.0  0.97065  0.50575  0.89800  1.0000
  C   C4443     1.0  0.54802  0.91569  0.83291  1.0000
  H   H7840     1.0  0.52402  0.91502  0.95733  1.0000
  C   C4444     1.0  0.56983  0.95383  0.96088  1.0000
  H   H7841     1.0  0.95333  0.56571  0.96153  1.0000
  H   H7842     1.0  0.83940  0.52087  0.94976  1.0000
  H   H7843     1.0  0.86023  0.54894  0.90908  1.0000
  H   H7844     1.0  0.81791  0.49326  0.90225  1.0000
  H   H7845     1.0  0.67038  0.62352  0.79483  1.0000
  H   H7846     1.0  0.63614  0.68093  0.79278  1.0000
  H   H7847     1.0  0.98888  0.63118  0.96953  1.0000
  H   H7848     1.0  0.93880  0.59623  0.96501  1.0000
  C   C4445     1.0  0.81874  0.65015  0.85164  1.0000
  H   H7849     1.0  0.58771  0.66017  0.78607  1.0000
  C   C4446     1.0  0.73480  0.52611  0.85076  1.0000
  H   H7850     1.0  0.71146  0.54034  0.86219  1.0000
  H   H7851     1.0  0.64456  0.49117  0.89685  1.0000
  H   H7852     1.0  0.75331  0.51512  0.88939  1.0000
  C   C4447     1.0  0.50929  0.66081  0.86533  1.0000
  H   H7853     1.0  0.84246  0.66688  0.88516  1.0000
  H   H7854     1.0  0.86159  0.66264  0.87231  1.0000
  H   H7855     1.0  0.92065  0.50707  0.93855  1.0000
  Fe  Fe508     1.0  0.52486  0.84976  0.85841  1.0000
  H   H7856     1.0  0.58535  0.74610  0.84023  1.0000
  H   H7857     1.0  0.60197  0.88096  0.82865  1.0000
  H   H7858     1.0  0.82895  0.53385  0.90794  1.0000
  H   H7859     1.0  0.86069  0.52696  0.90758  1.0000
  C   C4448     1.0  0.99814  0.53907  0.90512  1.0000
  C   C4449     1.0  0.73077  0.72145  0.78615  1.0000
  H   H7860     1.0  0.99675  0.64809  0.94108  1.0000
  C   C4450     1.0  0.85755  0.51420  0.86333  1.0000
  H   H7861     1.0  0.52554  0.81999  0.79402  1.0000
  H   H7862     1.0  0.98700  0.56543  0.92323  1.0000
  H   H7863     1.0  0.67174  0.60228  0.80588  1.0000
  C   C4451     1.0  0.83349  0.54309  0.91158  1.0000
  H   H7864     1.0  0.96101  0.64881  0.96132  1.0000
  H   H7865     1.0  0.83733  0.56414  0.92281  1.0000
  H   H7866     1.0  0.70070  0.49926  0.80357  1.0000
  H   H7867     1.0  0.72145  0.72968  0.80402  1.0000
  C   C4452     1.0  0.63566  0.87844  0.81544  1.0000
  C   C4453     1.0  0.83645  0.52042  0.93102  1.0000
  C   C4454     1.0  0.50208  0.67906  0.81865  1.0000
  H   H7868     1.0  0.65109  0.66201  0.78690  1.0000
  H   H7869     1.0  0.54702  0.93268  0.98028  1.0000
  C   C4455     1.0  0.99610  0.58614  0.92698  1.0000
  C   C4456     1.0  0.78465  0.51842  0.85543  1.0000
  C   C4457     1.0  0.62018  0.72673  0.79603  1.0000
  H   H7870     1.0  0.51973  0.75621  0.80727  1.0000
  C   C4458     1.0  0.72058  0.73297  0.79417  1.0000
  C   C4459     1.0  0.71933  0.52641  0.86271  1.0000
  H   H7871     1.0  0.81367  0.67868  0.85153  1.0000
  H   H7872     1.0  0.88123  0.50665  0.97327  1.0000
  H   H7873     1.0  0.52580  0.78848  0.79674  1.0000
  H   H7874     1.0  0.97076  0.55426  0.89378  1.0000
  H   H7875     1.0  0.74249  0.49367  0.79184  1.0000
  C   C4460     1.0  0.73572  0.53144  0.87647  1.0000
  C   C4461     1.0  0.69105  0.51692  0.88395  1.0000
  H   H7876     1.0  0.63398  0.74799  0.78602  1.0000
  C   C4462     1.0  0.80865  0.66967  0.84800  1.0000
  H   H7877     1.0  0.99168  0.50128  0.88701  1.0000
  H   H7878     1.0  0.82481  0.66627  0.87019  1.0000
  C   C4463     1.0  0.96352  0.60654  0.95919  1.0000
  C   C4464     1.0  0.53255  0.87897  0.91523  1.0000
  C   C4465     1.0  0.90964  0.58303  0.97865  1.0000
  H   H7879     1.0  0.98486  0.56984  0.97784  1.0000
  C   C4466     1.0  0.52276  0.82713  0.91248  1.0000
  H   H7880     1.0  0.59070  0.86955  0.98190  1.0000
  C   C4467     1.0  0.72517  0.49775  0.80959  1.0000
  H   H7881     1.0  0.51342  0.73531  0.87559  1.0000
  S   S1015     1.0  0.54280  0.83590  0.84326  1.0000
  H   H7882     1.0  0.72034  0.54668  0.83770  1.0000
  H   H7883     1.0  0.60270  0.86449  0.87455  1.0000
  C   C4468     1.0  0.83666  0.56712  0.94712  1.0000
  H   H7884     1.0  0.84821  0.55716  0.95036  1.0000
  H   H7885     1.0  0.93086  0.62310  0.95158  1.0000
  C   C4469     1.0  0.00057  0.53156  0.94570  1.0000
  N   N245      1.0  0.82074  0.64356  0.86525  1.0000
  C   C4470     1.0  0.82814  0.62382  0.86724  1.0000
  C   C4471     1.0  0.80216  0.64704  0.87356  1.0000
  H   H7886     1.0  0.73120  0.52424  0.89754  1.0000
  H   H7887     1.0  0.50988  0.72520  0.79068  1.0000
  C   C4472     1.0  0.84408  0.64372  0.87792  1.0000
  H   H7888     1.0  0.80350  0.54129  0.94009  1.0000
  C   C4473     1.0  0.80057  0.64005  0.88802  1.0000
  C   C4474     1.0  0.78096  0.64328  0.89514  1.0000
  H   H7889     1.0  0.58022  0.76369  0.80681  1.0000
  H   H7890     1.0  0.81793  0.61695  0.86674  1.0000
  H   H7891     1.0  0.83079  0.61829  0.87685  1.0000
  H   H7892     1.0  0.79639  0.66152  0.87235  1.0000
  H   H7893     1.0  0.79294  0.64138  0.87058  1.0000
  H   H7894     1.0  0.78741  0.54041  0.86174  1.0000
  H   H7895     1.0  0.50749  0.85246  0.83595  1.0000
  H   H7896     1.0  0.85502  0.63298  0.87456  1.0000
  H   H7897     1.0  0.83600  0.63755  0.88688  1.0000
  H   H7898     1.0  0.72795  0.54540  0.87502  1.0000
  H   H7899     1.0  0.79402  0.67090  0.85206  1.0000
  H   H7900     1.0  0.80609  0.62562  0.89039  1.0000
  H   H7901     1.0  0.80751  0.64721  0.89171  1.0000
  H   H7902     1.0  0.77487  0.65769  0.89370  1.0000
  H   H7903     1.0  0.77300  0.63652  0.89194  1.0000
  H   H7904     1.0  0.78029  0.63781  0.90543  1.0000
  C   C4475     1.0  0.51439  0.73687  0.79127  1.0000
  H   H7905     1.0  0.83229  0.51143  0.92693  1.0000
  H   H7906     1.0  0.64090  0.62033  0.79183  1.0000
  C   C4476     1.0  0.84261  0.54672  0.85711  1.0000
  C   C4477     1.0  0.99697  0.64691  0.95113  1.0000
  H   H7907     1.0  0.52808  0.73221  0.79331  1.0000
  H   H7908     1.0  0.67214  0.60367  0.78955  1.0000
  H   H7909     1.0  0.89908  0.53402  0.90268  1.0000
  C   C4478     1.0  0.83978  0.49422  0.94957  1.0000
  H   H7910     1.0  0.85098  0.53964  0.88711  1.0000
  H   H7911     1.0  0.58381  0.62356  0.80984  1.0000
  H   H7912     1.0  0.51587  0.66260  0.83326  1.0000
  H   H7913     1.0  0.87174  0.54487  0.88710  1.0000
  C   C4479     1.0  0.99221  0.60410  0.92733  1.0000
  C   C4480     1.0  0.79209  0.51606  0.87554  1.0000
  C   C4481     1.0  0.64428  0.51937  0.84481  1.0000
  C   C4482     1.0  0.66128  0.51642  0.83682  1.0000
  H   H7914     1.0  0.80342  0.64601  0.80924  1.0000
  H   H7915     1.0  0.82851  0.52581  0.86741  1.0000
  C   C4483     1.0  0.59143  0.75342  0.80380  1.0000
  H   H7916     1.0  0.75476  0.53817  0.89906  1.0000
  C   C4484     1.0  0.74883  0.54227  0.89054  1.0000
  H   H7917     1.0  0.85026  0.54548  0.93130  1.0000
  C   C4485     1.0  0.79853  0.64072  0.81915  1.0000
  H   H7918     1.0  0.81158  0.64174  0.84922  1.0000
  H   H7919     1.0  0.68198  0.50305  0.90336  1.0000
  N   N246      1.0  0.61679  0.62958  0.81388  1.0000
  Fe  Fe509     1.0  0.67314  0.78018  0.78992  1.0000
  H   H7920     1.0  0.63199  0.88695  0.80651  1.0000
  C   C4486     1.0  0.81089  0.67597  0.83364  1.0000
  C   C4487     1.0  0.70847  0.51987  0.88614  1.0000
  H   H7921     1.0  0.74288  0.51248  0.85069  1.0000
  H   H7922     1.0  0.95611  0.58266  0.94740  1.0000
  H   H7923     1.0  0.83216  0.64886  0.84508  1.0000
  H   H7924     1.0  0.82182  0.61933  0.82069  1.0000
  H   H7925     1.0  0.67417  0.70301  0.80402  1.0000
  C   C4488     1.0  0.79317  0.49775  0.87825  1.0000
  H   H7926     1.0  0.75819  0.49142  0.81506  1.0000
  H   H7927     1.0  0.60084  0.67541  0.78635  1.0000
  H   H7928     1.0  0.50367  0.94449  0.95632  1.0000
  H   H7929     1.0  0.51328  0.93574  0.90777  1.0000
  H   H7930     1.0  0.90288  0.63934  0.96478  1.0000
  C   C4489     1.0  0.95845  0.53678  0.90978  1.0000
  H   H7931     1.0  0.67553  0.67294  0.79002  1.0000
  H   H7932     1.0  0.52209  0.74840  0.88230  1.0000
  H   H7933     1.0  0.52621  0.80856  0.81015  1.0000
  H   H7934     1.0  0.50551  0.94482  0.97190  1.0000
  C   C4490     1.0  0.93930  0.54536  0.90799  1.0000
  S   S1016     1.0  0.69373  0.76110  0.80010  1.0000
  H   H7935     1.0  0.82926  0.50276  0.90976  1.0000
  C   C4491     1.0  0.63919  0.49485  0.88811  1.0000
  H   H7936     1.0  0.66325  0.49990  0.87459  1.0000
  H   H7937     1.0  0.52574  0.91463  0.97320  1.0000
  S   S1017     1.0  0.74632  0.62105  0.78762  1.0000
  H   H7938     1.0  0.69996  0.67920  0.79407  1.0000
  H   H7939     1.0  0.77125  0.53060  0.92627  1.0000
  N   N247      1.0  0.60987  0.98519  0.91921  1.0000
  H   H7940     1.0  0.50544  0.82260  0.80624  1.0000
  C   C4492     1.0  0.70889  0.50831  0.80396  1.0000
  H   H7941     1.0  0.98173  0.54004  0.97986  1.0000
  H   H7942     1.0  0.96121  0.54283  0.91664  1.0000
  H   H7943     1.0  0.95887  0.52257  0.91397  1.0000
  C   C4493     1.0  0.92866  0.49359  0.94161  1.0000
  H   H7944     1.0  0.73975  0.49580  0.88589  1.0000
  C   C4494     1.0  0.69780  0.63590  0.80989  1.0000
  C   C4495     1.0  0.51414  0.87351  0.92003  1.0000
  C   C4496     1.0  0.91755  0.49753  0.96349  1.0000
  H   H7945     1.0  0.50519  0.64908  0.86445  1.0000
  H   H7946     1.0  0.73955  0.70934  0.78983  1.0000
  H   H7947     1.0  0.86126  0.51873  0.87058  1.0000
  S   S1018     1.0  0.74274  0.66840  0.79381  1.0000
  H   H7948     1.0  0.93551  0.53912  0.90167  1.0000
  H   H7949     1.0  0.92976  0.54363  0.91729  1.0000
  H   H7950     1.0  0.93802  0.55980  0.90391  1.0000
  C   C4497     1.0  0.96785  0.63582  0.95872  1.0000
  C   C4498     1.0  0.57170  0.95855  0.97166  1.0000
  H   H7951     1.0  0.62246  0.65033  0.79731  1.0000
  C   C4499     1.0  0.60990  0.96568  0.92161  1.0000
  H   H7952     1.0  0.64286  0.59971  0.80347  1.0000
  C   C4500     1.0  0.91190  0.64617  0.95665  1.0000
  H   H7953     1.0  0.52330  0.82989  0.90220  1.0000
  C   C4501     1.0  0.62075  0.95607  0.91069  1.0000
  C   C4502     1.0  0.60665  0.89294  0.82845  1.0000
  H   H7954     1.0  0.82951  0.49316  0.87909  1.0000
  H   H7955     1.0  0.74969  0.50111  0.86970  1.0000
  H   H7956     1.0  0.53359  0.88694  0.90539  1.0000
  C   C4503     1.0  0.61859  0.93688  0.91387  1.0000
  H   H7957     1.0  0.83798  0.52575  0.85097  1.0000
  H   H7958     1.0  0.63099  0.86586  0.81751  1.0000
  H   H7959     1.0  0.90661  0.64844  0.94800  1.0000
  H   H7960     1.0  0.94926  0.50429  0.96117  1.0000
  H   H7961     1.0  0.59585  0.96382  0.92381  1.0000
  H   H7962     1.0  0.61545  0.95808  0.93008  1.0000
  H   H7963     1.0  0.93409  0.64112  0.97165  1.0000
  C   C4504     1.0  0.93101  0.63493  0.95486  1.0000
  C   C4505     1.0  0.62176  0.74456  0.79214  1.0000
  H   H7964     1.0  0.54224  0.92500  0.82499  1.0000
  H   H7965     1.0  0.60349  0.97000  0.94635  1.0000
  H   H7966     1.0  0.59320  0.98765  0.90605  1.0000
  H   H7967     1.0  0.63529  0.95571  0.90907  1.0000
  H   H7968     1.0  0.61619  0.96266  0.90171  1.0000
  C   C4506     1.0  0.85706  0.54722  0.89114  1.0000
  C   C4507     1.0  0.67699  0.51484  0.89634  1.0000
  C   C4508     1.0  0.62737  0.88803  0.82639  1.0000
  H   H7969     1.0  0.63276  0.90022  0.82388  1.0000
  C   C4509     1.0  0.80822  0.54359  0.92968  1.0000
  S   S1019     1.0  0.58259  0.93456  0.94170  1.0000
  H   H7970     1.0  0.85382  0.54923  0.84889  1.0000
  H   H7971     1.0  0.57414  0.90954  0.82118  1.0000
  Fe  Fe510     1.0  0.76901  0.66629  0.79860  1.0000
  H   H7972     1.0  0.71173  0.51010  0.89480  1.0000
  H   H7973     1.0  0.68818  0.71857  0.79578  1.0000
  H   H7974     1.0  0.62280  0.92956  0.92289  1.0000
  H   H7975     1.0  0.60439  0.93642  0.91478  1.0000
  H   H7976     1.0  0.62702  0.93008  0.90619  1.0000
  H   H7977     1.0  0.82138  0.54745  0.95029  1.0000
  H   H7978     1.0  0.85558  0.62582  0.85619  1.0000
  C   C4510     1.0  0.64580  0.61318  0.80060  1.0000
  C   C4511     1.0  0.97212  0.53963  0.89701  1.0000
  H   H7979     1.0  0.86130  0.64897  0.88797  1.0000
  H   H7980     1.0  0.99517  0.61966  0.95680  1.0000
  H   H7981     1.0  0.70036  0.51771  0.80998  1.0000
  C   C4512     1.0  0.84555  0.61772  0.85767  1.0000
  H   H7982     1.0  0.82650  0.55673  0.90756  1.0000
  H   H7983     1.0  0.86869  0.51585  0.85483  1.0000
  C   C4513     1.0  0.85286  0.65641  0.88097  1.0000
  C   C4514     1.0  0.56829  0.91450  0.83005  1.0000
  H   H7984     1.0  0.58814  0.71675  0.85442  1.0000
  H   H7985     1.0  0.73229  0.50747  0.81036  1.0000
  C   C4515     1.0  0.71440  0.63621  0.80148  1.0000
  C   C4516     1.0  0.59869  0.93343  0.96035  1.0000
  H   H7986     1.0  0.73877  0.53149  0.83030  1.0000
  H   H7987     1.0  0.71812  0.52446  0.83860  1.0000
  C   C4517     1.0  0.62071  0.65189  0.82534  1.0000
  C   C4518     1.0  0.60066  0.93832  0.97084  1.0000
  H   H7988     1.0  0.93959  0.64287  0.94720  1.0000
  C   C4519     1.0  0.88679  0.50303  0.92882  1.0000
  C   C4520     1.0  0.83620  0.55175  0.93019  1.0000
  H   H7989     1.0  0.80606  0.66723  0.82973  1.0000
  H   H7990     1.0  0.55797  0.95992  0.95696  1.0000
  C   C4521     1.0  0.95332  0.59120  0.96473  1.0000
  C   C4522     1.0  0.77808  0.53760  0.93022  1.0000
  H   H7991     1.0  0.74817  0.53136  0.86896  1.0000
  H   H7992     1.0  0.84280  0.65736  0.85886  1.0000
  H   H7993     1.0  0.74380  0.53487  0.85021  1.0000
  H   H7994     1.0  0.71290  0.69864  0.80663  1.0000
  H   H7995     1.0  0.65052  0.87517  0.81403  1.0000
  C   C4523     1.0  0.82554  0.55832  0.94247  1.0000
  H   H7996     1.0  0.64043  0.52283  0.88424  1.0000
  H   H7997     1.0  0.95520  0.58449  0.97441  1.0000
  H   H7998     1.0  0.95359  0.51034  0.98185  1.0000
  H   H7999     1.0  0.61078  0.63572  0.79528  1.0000
  C   C4524     1.0  0.59497  0.72639  0.85564  1.0000
  H   H8000     1.0  0.97806  0.60056  0.95868  1.0000
  N   N248      1.0  0.61144  0.76833  0.83322  1.0000
  C   C4525     1.0  0.60651  0.75458  0.84498  1.0000
  C   C4526     1.0  0.62168  0.77952  0.83619  1.0000
  C   C4527     1.0  0.59444  0.77948  0.82914  1.0000
  C   C4528     1.0  0.62303  0.75973  0.82251  1.0000
  C   C4529     1.0  0.64087  0.74693  0.82509  1.0000
  C   C4530     1.0  0.59832  0.74007  0.84326  1.0000
  C   C4531     1.0  0.59635  0.79707  0.81931  1.0000
  C   C4532     1.0  0.61125  0.79013  0.84662  1.0000
  C   C4533     1.0  0.62170  0.80320  0.84730  1.0000
  C   C4534     1.0  0.65042  0.73768  0.81410  1.0000
  H   H8001     1.0  0.63192  0.87906  0.83487  1.0000
  C   C4535     1.0  0.57914  0.80602  0.81443  1.0000
  H   H8002     1.0  0.59644  0.76107  0.85235  1.0000
  H   H8003     1.0  0.61834  0.74793  0.84936  1.0000
  H   H8004     1.0  0.63385  0.77108  0.83957  1.0000
  H   H8005     1.0  0.62687  0.78882  0.82743  1.0000
  H   H8006     1.0  0.58407  0.78309  0.83742  1.0000
  H   H8007     1.0  0.58848  0.77168  0.82516  1.0000
  H   H8008     1.0  0.61536  0.75259  0.81938  1.0000
  H   H8009     1.0  0.62673  0.76991  0.81398  1.0000
  H   H8010     1.0  0.63854  0.73648  0.83376  1.0000
  H   H8011     1.0  0.65019  0.75434  0.82612  1.0000
  C   C4536     1.0  0.78801  0.52635  0.86404  1.0000
  H   H8012     1.0  0.60741  0.73265  0.83612  1.0000
  H   H8013     1.0  0.60741  0.79493  0.81108  1.0000
  H   H8014     1.0  0.59931  0.80657  0.82359  1.0000
  H   H8015     1.0  0.59789  0.79784  0.84494  1.0000
  H   H8016     1.0  0.60917  0.78096  0.85603  1.0000
  H   H8017     1.0  0.61434  0.81006  0.85516  1.0000
  H   H8018     1.0  0.63524  0.79615  0.84908  1.0000
  H   H8019     1.0  0.62311  0.81336  0.83831  1.0000
  H   H8020     1.0  0.66357  0.72940  0.81590  1.0000
  H   H8021     1.0  0.64225  0.72901  0.81315  1.0000
  H   H8022     1.0  0.65294  0.74758  0.80510  1.0000
  H   H8023     1.0  0.62844  0.94130  0.84329  1.0000
  H   H8024     1.0  0.53421  0.93089  0.95991  1.0000
  S   S1020     1.0  0.51774  0.69269  0.81177  1.0000
  H   H8025     1.0  0.58134  0.81808  0.80703  1.0000
  H   H8026     1.0  0.57530  0.79696  0.81018  1.0000
  H   H8027     1.0  0.56801  0.81008  0.82222  1.0000
  Fe  Fe511     1.0  0.53596  0.69471  0.82343  1.0000
  C   C4537     1.0  0.95986  0.57713  0.95673  1.0000
  H   H8028     1.0  0.77517  0.53321  0.94070  1.0000
  C   C4538     1.0  0.89508  0.52794  0.91257  1.0000
  C   C4539     1.0  0.70441  0.60387  0.81360  1.0000
  H   H8029     1.0  0.64349  0.63502  0.80898  1.0000
  H   H8030     1.0  0.84182  0.57771  0.93944  1.0000
  H   H8031     1.0  0.66284  0.60713  0.87498  1.0000
  H   H8032     1.0  0.59698  0.66833  0.83498  1.0000
  H   H8033     1.0  0.73761  0.55392  0.89164  1.0000
  H   H8034     1.0  0.52535  0.83954  0.92662  1.0000
  H   H8035     1.0  0.75927  0.54616  0.88213  1.0000
  C   C4540     1.0  0.58823  0.61661  0.81883  1.0000
  C   C4541     1.0  0.58199  0.59906  0.82308  1.0000
  C   C4542     1.0  0.61107  0.66208  0.83581  1.0000
  H   H8036     1.0  0.61362  0.62657  0.83409  1.0000
  H   H8037     1.0  0.59636  0.64255  0.82781  1.0000
  H   H8038     1.0  0.61326  0.60365  0.82500  1.0000
  H   H8039     1.0  0.58135  0.62451  0.82613  1.0000
  H   H8040     1.0  0.58607  0.59128  0.83205  1.0000
  H   H8041     1.0  0.56711  0.60172  0.82474  1.0000
  H   H8042     1.0  0.58779  0.59102  0.81571  1.0000
  H   H8043     1.0  0.62086  0.50856  0.85491  1.0000
  H   H8044     1.0  0.61115  0.65305  0.84525  1.0000
  H   H8045     1.0  0.61804  0.67274  0.83506  1.0000
  N   N249      1.0  0.51122  0.86043  0.91369  1.0000
  H   H8046     1.0  0.61393  0.60652  0.80860  1.0000
  N   N250      1.0  0.95767  0.62147  0.96619  1.0000
  C   C4543     1.0  0.52506  0.84344  0.91634  1.0000
  H   H8047     1.0  0.83005  0.55597  0.85486  1.0000
  H   H8048     1.0  0.78129  0.52651  0.84662  1.0000
  C   C4544     1.0  0.63045  0.51463  0.88581  1.0000
  H   H8049     1.0  0.67364  0.52687  0.90036  1.0000
  C   C4545     1.0  0.66713  0.50114  0.83180  1.0000
  H   H8050     1.0  0.96801  0.63821  0.94844  1.0000
  H   H8051     1.0  0.62177  0.66148  0.81610  1.0000
  H   H8052     1.0  0.58247  0.65131  0.80974  1.0000
  C   C4546     1.0  0.53787  0.81108  0.91529  1.0000
  C   C4547     1.0  0.72087  0.60427  0.80483  1.0000
  H   H8053     1.0  0.61271  0.93233  0.97455  1.0000
  H   H8054     1.0  0.57041  0.92814  0.82833  1.0000
  N   N251      1.0  0.93414  0.49211  0.95378  1.0000
  H   H8055     1.0  0.91175  0.65922  0.95836  1.0000
  H   H8056     1.0  0.53878  0.84533  0.91119  1.0000
  H   H8057     1.0  0.52825  0.86774  0.89537  1.0000
  H   H8058     1.0  0.62429  0.51855  0.87738  1.0000
  H   H8059     1.0  0.84435  0.58974  0.86365  1.0000
  H   H8060     1.0  0.97464  0.57229  0.95535  1.0000
  H   H8061     1.0  0.54395  0.86739  0.91547  1.0000
  C   C4548     1.0  0.98772  0.63216  0.95973  1.0000
  H   H8062     1.0  0.51150  0.85721  0.89506  1.0000
  H   H8063     1.0  0.54135  0.92057  0.84176  1.0000
  H   H8064     1.0  0.52476  0.90290  0.92277  1.0000
  C   C4549     1.0  0.68821  0.70427  0.79970  1.0000
  H   H8065     1.0  0.51068  0.79406  0.85838  1.0000
  H   H8066     1.0  0.85126  0.56160  0.88842  1.0000
  H   H8067     1.0  0.68009  0.49885  0.82547  1.0000
  H   H8068     1.0  0.62394  0.97870  0.97986  1.0000
  H   H8069     1.0  0.88001  0.50657  0.94801  1.0000
  H   H8070     1.0  0.70441  0.53304  0.88883  1.0000
  H   H8071     1.0  0.63454  0.64576  0.82687  1.0000
  C   C4550     1.0  0.60891  0.61341  0.81661  1.0000
  H   H8072     1.0  0.72974  0.59203  0.80279  1.0000
  H   H8073     1.0  0.53790  0.80734  0.92556  1.0000
  C   C4551     1.0  0.98387  0.57919  0.92377  1.0000
  H   H8074     1.0  0.55111  0.81402  0.90984  1.0000
  H   H8075     1.0  0.51657  0.65669  0.87320  1.0000
  H   H8076     1.0  0.51119  0.80788  0.83496  1.0000
  C   C4552     1.0  0.93784  0.62926  0.96739  1.0000
  H   H8077     1.0  0.80294  0.55794  0.92624  1.0000
  H   H8078     1.0  0.68880  0.64819  0.81165  1.0000
  H   H8079     1.0  0.81798  0.51673  0.94979  1.0000
  C   C4553     1.0  0.61751  0.94023  0.83926  1.0000
  S   S1021     1.0  0.60824  0.78034  0.79103  1.0000
  C   C4554     1.0  0.94028  0.52394  0.94568  1.0000
  C   C4555     1.0  0.95371  0.53501  0.94481  1.0000
  H   H8080     1.0  0.95485  0.49634  0.92865  1.0000
  C   C4556     1.0  0.63701  0.62348  0.81141  1.0000
  C   C4557     1.0  0.52335  0.92332  0.96400  1.0000
  H   H8081     1.0  0.91002  0.51093  0.95968  1.0000
  C   C4558     1.0  0.72593  0.62049  0.79880  1.0000
  H   H8082     1.0  0.92981  0.61984  0.97416  1.0000
  C   C4559     1.0  0.51403  0.86684  0.89951  1.0000
  H   H8083     1.0  0.81323  0.56833  0.94053  1.0000
  H   H8084     1.0  0.71012  0.51893  0.86164  1.0000
  C   C4560     1.0  0.85382  0.54110  0.90554  1.0000
  C   C4561     1.0  0.83256  0.51415  0.94561  1.0000
  C   C4562     1.0  0.69285  0.61974  0.81605  1.0000
  H   H8085     1.0  0.82826  0.57312  0.95519  1.0000
  C   C4563     1.0  0.84049  0.52759  0.85975  1.0000
  C   C4564     1.0  0.58342  0.94122  0.95522  1.0000
  H   H8086     1.0  0.82521  0.67596  0.82904  1.0000
  H   H8087     1.0  0.69272  0.70657  0.81740  1.0000
  H   H8088     1.0  0.93877  0.52522  0.93595  1.0000
  H   H8089     1.0  0.92722  0.52993  0.95119  1.0000
  H   H8090     1.0  0.94855  0.54911  0.94066  1.0000
  H   H8091     1.0  0.95602  0.53413  0.95431  1.0000
  H   H8092     1.0  0.96663  0.53046  0.93852  1.0000
  H   H8093     1.0  0.85855  0.59619  0.87106  1.0000
  S   S1022     1.0  0.67192  0.62012  0.82651  1.0000
  C   C4565     1.0  0.84207  0.50188  0.89019  1.0000
  H   H8094     1.0  0.50663  0.88068  0.87552  1.0000
  C   C4566     1.0  0.50512  0.93621  0.96576  1.0000
  H   H8095     1.0  0.85130  0.51778  0.92798  1.0000
  C   C4567     1.0  0.51782  0.81305  0.80291  1.0000
  H   H8096     1.0  0.53340  0.88306  0.93351  1.0000
  H   H8097     1.0  0.97297  0.62893  0.92476  1.0000
  N   N252      1.0  0.59652  0.90066  0.83988  1.0000
  C   C4568     1.0  0.60160  0.88901  0.85198  1.0000
  C   C4569     1.0  0.59921  0.91924  0.83821  1.0000
  C   C4570     1.0  0.57674  0.90192  0.84113  1.0000
  H   H8098     1.0  0.86595  0.59403  0.85479  1.0000
  C   C4571     1.0  0.58729  0.95090  0.97653  1.0000
  C   C4572     1.0  0.59876  0.86976  0.85525  1.0000
  H   H8099     1.0  0.77256  0.55209  0.92759  1.0000
  C   C4573     1.0  0.61481  0.92117  0.84332  1.0000
  H   H8100     1.0  0.59564  0.66615  0.80971  1.0000
  H   H8101     1.0  0.53704  0.78527  0.83017  1.0000
  C   C4574     1.0  0.60768  0.85837  0.86614  1.0000
  H   H8102     1.0  0.91008  0.57607  0.97160  1.0000
  H   H8103     1.0  0.59379  0.89516  0.86017  1.0000
  H   H8104     1.0  0.61586  0.88804  0.85191  1.0000
  C   C4575     1.0  0.50776  0.89069  0.88027  1.0000
  H   H8105     1.0  0.58699  0.92743  0.84324  1.0000
  H   H8106     1.0  0.56895  0.90644  0.84995  1.0000
  H   H8107     1.0  0.57401  0.88869  0.84204  1.0000
  H   H8108     1.0  0.68098  0.49643  0.85505  1.0000
  N   N253      1.0  0.82849  0.53955  0.92589  1.0000
  C   C4576     1.0  0.83283  0.65349  0.86766  1.0000
  H   H8109     1.0  0.80009  0.53724  0.91435  1.0000
  H   H8110     1.0  0.58422  0.86975  0.85829  1.0000
  C   C4577     1.0  0.63369  0.50655  0.84835  1.0000
  H   H8111     1.0  0.99449  0.54019  0.93810  1.0000
  H   H8112     1.0  0.83501  0.49765  0.85790  1.0000
  H   H8113     1.0  0.61160  0.91780  0.85386  1.0000
  H   H8114     1.0  0.62769  0.91238  0.84002  1.0000
  H   H8115     1.0  0.81169  0.67837  0.79758  1.0000
  C   C4578     1.0  0.89827  0.59965  0.97897  1.0000
  H   H8116     1.0  0.62131  0.94418  0.82878  1.0000
  C   C4579     1.0  0.94676  0.50421  0.95192  1.0000
  C   C4580     1.0  0.79830  0.53335  0.92482  1.0000
  H   H8117     1.0  0.52173  0.89266  0.87749  1.0000
  H   H8118     1.0  0.80286  0.68966  0.83134  1.0000
  H   H8119     1.0  0.60439  0.84504  0.86887  1.0000
  H   H8120     1.0  0.62250  0.85675  0.86323  1.0000
  H   H8121     1.0  0.69783  0.68413  0.81522  1.0000
  H   H8122     1.0  0.61972  0.51753  0.89415  1.0000
  H   H8123     1.0  0.60452  0.86322  0.84709  1.0000
  N   N254      1.0  0.70361  0.64267  0.84828  1.0000
  C   C4581     1.0  0.71130  0.65725  0.84947  1.0000
  C   C4582     1.0  0.69214  0.65012  0.83852  1.0000
  C   C4583     1.0  0.69276  0.63554  0.86108  1.0000
  C   C4584     1.0  0.71829  0.62762  0.84408  1.0000
  C   C4585     1.0  0.73255  0.63280  0.83195  1.0000
  C   C4586     1.0  0.72461  0.65154  0.85849  1.0000
  C   C4587     1.0  0.68049  0.62325  0.86126  1.0000
  C   C4588     1.0  0.67542  0.66496  0.84167  1.0000
  C   C4589     1.0  0.66288  0.66881  0.83256  1.0000
  C   C4590     1.0  0.74662  0.61648  0.82871  1.0000
  C   C4591     1.0  0.73184  0.66727  0.85873  1.0000
  C   C4592     1.0  0.67021  0.61722  0.87475  1.0000
  H   H8124     1.0  0.70033  0.66782  0.85312  1.0000
  H   H8125     1.0  0.71800  0.66397  0.84000  1.0000
  H   H8126     1.0  0.70015  0.65587  0.82931  1.0000
  H   H8127     1.0  0.68774  0.63930  0.83657  1.0000
  H   H8128     1.0  0.68426  0.64653  0.86571  1.0000
  H   H8129     1.0  0.70186  0.62771  0.86762  1.0000
  H   H8130     1.0  0.72560  0.62030  0.85178  1.0000
  H   H8131     1.0  0.71237  0.61765  0.84229  1.0000
  H   H8132     1.0  0.73981  0.64204  0.83319  1.0000
  H   H8133     1.0  0.72630  0.63913  0.82365  1.0000
  H   H8134     1.0  0.71790  0.64630  0.86834  1.0000
  H   H8135     1.0  0.73623  0.64108  0.85553  1.0000
  H   H8136     1.0  0.68855  0.61135  0.85761  1.0000
  H   H8137     1.0  0.67033  0.63007  0.85541  1.0000
  H   H8138     1.0  0.66747  0.66134  0.85139  1.0000
  H   H8139     1.0  0.67967  0.67742  0.84082  1.0000
  H   H8140     1.0  0.67000  0.67276  0.82260  1.0000
  H   H8141     1.0  0.65760  0.65688  0.83355  1.0000
  H   H8142     1.0  0.65131  0.67977  0.83479  1.0000
  H   H8143     1.0  0.75664  0.62057  0.82003  1.0000
  H   H8144     1.0  0.75380  0.60984  0.83656  1.0000
  H   H8145     1.0  0.74022  0.60695  0.82687  1.0000
  H   H8146     1.0  0.72075  0.67759  0.86255  1.0000
  H   H8147     1.0  0.74177  0.66270  0.86491  1.0000
  H   H8148     1.0  0.73862  0.67317  0.84905  1.0000
  H   H8149     1.0  0.62431  0.82617  0.80826  1.0000
  C   C4593     1.0  0.70860  0.74827  0.78961  1.0000
  H   H8150     1.0  0.50566  0.90356  0.85250  1.0000
  H   H8151     1.0  0.56134  0.96837  0.97599  1.0000
  H   H8152     1.0  0.51271  0.77989  0.81892  1.0000
  H   H8153     1.0  0.92635  0.53047  0.97445  1.0000
  H   H8154     1.0  0.95349  0.60403  0.98472  1.0000
  H   H8155     1.0  0.57732  0.67865  0.79370  1.0000
  C   C4594     1.0  0.93728  0.49315  0.91823  1.0000
  C   C4595     1.0  0.50739  0.76158  0.80323  1.0000
  C   C4596     1.0  0.60723  0.75791  0.79589  1.0000
  H   H8156     1.0  0.85531  0.50223  0.89150  1.0000
  H   H8157     1.0  0.71318  0.51610  0.79428  1.0000
  H   H8158     1.0  0.50395  0.88613  0.91896  1.0000
  C   C4597     1.0  0.50279  0.78680  0.81282  1.0000
  H   H8159     1.0  0.99162  0.56134  0.87688  1.0000
  H   H8160     1.0  0.99028  0.65978  0.95391  1.0000
  H   H8161     1.0  0.83470  0.66633  0.79486  1.0000
  H   H8162     1.0  0.69346  0.50508  0.88004  1.0000
  H   H8163     1.0  0.98749  0.50893  0.91345  1.0000
  C   C4598     1.0  0.58983  0.66846  0.79179  1.0000
  H   H8164     1.0  0.99550  0.52872  0.87782  1.0000
  N   N255      1.0  0.99146  0.53064  0.89728  1.0000
  H   H8165     1.0  0.59329  0.98706  0.96292  1.0000
  H   H8166     1.0  0.97559  0.60673  0.97882  1.0000
  C   C4599     1.0  0.66625  0.61059  0.79754  1.0000
  C   C4600     1.0  0.69703  0.69341  0.78919  1.0000
  H   H8167     1.0  0.50359  0.89524  0.89879  1.0000
  H   H8168     1.0  0.51231  0.86804  0.93043  1.0000
  H   H8169     1.0  0.63461  0.97783  0.92591  1.0000
  H   H8170     1.0  0.57572  0.99045  0.95470  1.0000
  H   H8171     1.0  0.61600  0.98705  0.94298  1.0000
  C   C4601     1.0  0.88755  0.49291  0.97751  1.0000
  C   C4602     1.0  0.83131  0.49414  0.90307  1.0000
  H   H8172     1.0  0.78685  0.49411  0.81903  1.0000
  H   H8173     1.0  0.88479  0.50041  0.87607  1.0000
  S   S1023     1.0  0.89535  0.49872  0.90441  1.0000
  H   H8174     1.0  0.63119  0.71643  0.79291  1.0000
  H   H8175     1.0  0.99496  0.55380  0.90203  1.0000
  N   N256      1.0  0.85615  0.49497  0.86763  1.0000
  H   H8176     1.0  0.66196  0.69319  0.79330  1.0000
  H   H8177     1.0  0.83500  0.51579  0.88722  1.0000
  H   H8178     1.0  0.96025  0.49918  0.94632  1.0000
  H   H8179     1.0  0.76838  0.49382  0.79879  1.0000
  C   C4603     1.0  0.60278  0.98446  0.94335  1.0000
  H   H8180     1.0  0.99081  0.53643  0.91518  1.0000
  C   C4604     1.0  0.50228  0.88481  0.89462  1.0000
  C   C4605     1.0  0.98529  0.50053  0.89718  1.0000
  H   H8181     1.0  0.95673  0.64185  0.98213  1.0000
  C   C4606     1.0  0.99342  0.51109  0.90311  1.0000
  S   S1024     1.0  0.99846  0.50382  0.93660  1.0000
  H   H8182     1.0  0.58361  0.98957  0.93147  1.0000
  H   H8183     1.0  0.50347  0.78724  0.84076  1.0000
  H   H8184     1.0  0.50631  0.76624  0.86494  1.0000
  H   H8185     1.0  0.50987  0.82328  0.91769  1.0000
  H   H8186     1.0  0.83328  0.69843  0.78804  1.0000
  H   H8187     1.0  0.98152  0.51224  0.98297  1.0000
  H   H8188     1.0  0.79822  0.49421  0.80267  1.0000
  C   C4607     1.0  0.92732  0.52668  0.98455  1.0000
  H   H8189     1.0  0.50437  0.82091  0.89271  1.0000
  H   H8190     1.0  0.50664  0.78102  0.88118  1.0000
  H   H8191     1.0  0.85700  0.49523  0.84807  1.0000
  C   C4608     1.0  0.84349  0.49100  0.88031  1.0000
  Fe  Fe512     1.0  0.63543  0.78691  0.78557  1.0000
  H   H8192     1.0  0.62071  0.87919  0.78578  1.0000
