data_image0
_chemical_formula_structural       FeSHFeS2H2SHSH6C6H6NHCH3NC2HCH11CH2CH3SCHFeH5CH4CH2NCH3CH3FeC3HC3SCH2CHCHCH2C2HCH2CHNCH8CHC2HC3FeS2CS2FeS2FeSHFeSFeS3CHCH2C6H4C7H3CHCHNH2CH2CHC2H4C2H2CH7CH3SH3CH2CH2FeH5CH4CH4CH6C3HC2H4CH2CHCH3CHCHCH2FeSCFeS2FeHSHS2H3C8H4CH5SHCH2CNH5CH4C2H3C3H5CH2CNCH3CHC3H3CHCHCH4SC3H5CH3CH4CH2FeH2SHSHFeS2FeSHFeSFeS3CHCFeHC6H4C6HCH9C2H2CH5CH12CHCNHCHC2HC2HFeSCHCH2CH3NHCHSC3HCHCHCH4CHCH3CH3CH4NH2CHCH4C2H2FeS2FeCSH5CHC4SH2FeS2FeS2H2C8H4C2H2C3H4CH3CH3C2SH2C2HC2HCH2CH4CHCHCH4SCH5CHC2SCH3CH2CH3C2HC2HC2HCHCHCH2NH2CHCHC2HCH9CHCH9C4HCHCHSHC2SC2SHSCHCH2CH4FeHCHC2H5CH2SFeS2C2HCH2C2HCH4CH3NH2CFeHCH2CSCHCFeHCH2C2H2CNH2C2HSH2CH3CH7CH2CH3C3H3CHSHCHC4HC2H4CH3CH4CHCH2CHCHCH4CHC2HCH2CH7SH2CH2C2H2CHCNH3NCH3C2H3CH3CHCH3CHC2SFeHSFeS2FeHSC2HCH2C6H5FeCH3C2HCH3SH4CH4C2HNCHCH7C2H3C2HSH2CHNHCH5NH3CH2CHCH2NH5CHC2H4CH4CH3C2HCH3C2H2C3HCH2S2H2CFeS2FeS2FeSFeCS2CHCH2C5H5C6H10CH3C4H3FeHCH4SC2H4CHFeCH2CHCH3CH2CHNH3SH4CH2NCH3CH5C3HFeHSFeHSFeS2FeS2HCH4C6H4NC7H15CH3CH4SH2C2H3C3H2CH8C2HCH2CHCHFeS2FeSHFeS2FeS2FeSFeHS2CHCH2CHC4HNH2C6H10C2H6C4HC2HCH10C2H7CNCSCHCH4CHCH4CH2C2HCHCH4C3HC2H2
_chemical_formula_sum              "Fe48 S96 H768 C432 N24"
_cell_length_a       42.2423
_cell_length_b       42.149
_cell_length_c       26.423
_cell_angle_alpha    90.123
_cell_angle_beta     89.9798
_cell_angle_gamma    119.942

_space_group_name_H-M_alt    "P 1"
_space_group_IT_number       1

loop_
  _space_group_symop_operation_xyz
  'x, y, z'

loop_
  _atom_site_type_symbol
  _atom_site_label
  _atom_site_symmetry_multiplicity
  _atom_site_fract_x
  _atom_site_fract_y
  _atom_site_fract_z
  _atom_site_occupancy
  Fe  Fe1       1.0  0.26645  0.03020  0.44515  1.0000
  S   S1        1.0  0.21970  0.03582  0.41624  1.0000
  H   H1        1.0  0.03090  0.47850  0.37156  1.0000
  Fe  Fe2       1.0  0.18286  0.45555  0.44475  1.0000
  S   S2        1.0  0.13559  0.40313  0.40961  1.0000
  S   S3        1.0  0.23581  0.45787  0.46594  1.0000
  H   H2        1.0  0.00075  0.42474  0.33195  1.0000
  H   H3        1.0  0.27781  0.41364  0.04508  1.0000
  S   S4        1.0  0.04558  0.20667  0.08597  1.0000
  H   H4        1.0  0.18560  0.36830  0.48108  1.0000
  S   S5        1.0  0.04359  0.34413  0.20408  1.0000
  H   H5        1.0  0.23313  0.19165  0.09215  1.0000
  H   H6        1.0  0.26235  0.10879  0.10335  1.0000
  H   H7        1.0  0.02019  0.12348  0.02523  1.0000
  H   H8        1.0  0.24412  0.39157  0.43373  1.0000
  H   H9        1.0  0.09913  0.18848  0.05163  1.0000
  H   H10       1.0  0.25969  0.13718  0.31128  1.0000
  C   C1        1.0  0.07146  0.35846  0.25966  1.0000
  C   C2        1.0  0.06278  0.33631  0.30266  1.0000
  C   C3        1.0  0.08332  0.35019  0.34764  1.0000
  C   C4        1.0  0.11335  0.38608  0.35009  1.0000
  C   C5        1.0  0.12312  0.40762  0.30637  1.0000
  C   C6        1.0  0.10191  0.39413  0.26183  1.0000
  H   H11       1.0  0.03944  0.30889  0.30177  1.0000
  H   H12       1.0  0.07547  0.33312  0.38102  1.0000
  H   H13       1.0  0.14650  0.43492  0.30716  1.0000
  H   H14       1.0  0.10906  0.41148  0.22879  1.0000
  H   H15       1.0  0.27766  0.18531  0.14711  1.0000
  H   H16       1.0  0.15396  0.28741  0.47332  1.0000
  N   N1        1.0  0.07516  0.46669  0.37437  1.0000
  H   H17       1.0  0.29694  0.18010  0.22561  1.0000
  C   C7        1.0  0.99151  0.11423  0.03633  1.0000
  H   H18       1.0  0.09865  0.33818  0.07097  1.0000
  H   H19       1.0  0.23533  0.10145  0.35683  1.0000
  H   H20       1.0  0.06328  0.42598  0.43284  1.0000
  N   N2        1.0  0.29217  0.16771  0.48406  1.0000
  C   C8        1.0  0.01496  0.15483  0.24941  1.0000
  C   C9        1.0  0.10115  0.31477  0.08533  1.0000
  H   H21       1.0  0.29083  0.10240  0.14535  1.0000
  C   C10       1.0  0.27957  0.14066  0.44069  1.0000
  H   H22       1.0  0.00590  0.40205  0.38646  1.0000
  H   H23       1.0  0.20463  0.38203  0.99718  1.0000
  H   H24       1.0  0.06124  0.44070  0.30011  1.0000
  H   H25       1.0  0.23335  0.05581  0.18903  1.0000
  H   H26       1.0  0.09769  0.31354  0.12711  1.0000
  H   H27       1.0  0.29918  0.13104  0.43282  1.0000
  H   H28       1.0  0.21156  0.32666  0.46076  1.0000
  H   H29       1.0  0.11996  0.47417  0.46518  1.0000
  H   H30       1.0  0.03999  0.15768  0.26743  1.0000
  H   H31       1.0  0.19562  0.30121  0.05693  1.0000
  H   H32       1.0  0.12530  0.46480  0.37381  1.0000
  C   C11       1.0  0.27274  0.17627  0.06628  1.0000
  H   H33       1.0  0.98607  0.13701  0.02864  1.0000
  H   H34       1.0  0.13966  0.29605  0.08923  1.0000
  C   C12       1.0  0.25373  0.11456  0.18313  1.0000
  H   H35       1.0  0.04003  0.45102  0.44052  1.0000
  H   H36       1.0  0.24033  0.19414  0.02464  1.0000
  H   H37       1.0  0.28298  0.11712  0.34362  1.0000
  S   S6        1.0  0.00017  0.27288  0.09286  1.0000
  C   C13       1.0  0.27931  0.12054  0.13785  1.0000
  H   H38       1.0  0.25112  0.14716  0.06373  1.0000
  Fe  Fe3       1.0  0.00565  0.22456  0.11607  1.0000
  H   H39       1.0  0.05288  0.22175  0.46940  1.0000
  H   H40       1.0  0.01289  0.11817  0.19179  1.0000
  H   H41       1.0  0.07309  0.26489  0.43653  1.0000
  H   H42       1.0  0.07884  0.28894  0.06900  1.0000
  H   H43       1.0  0.99282  0.08216  0.09804  1.0000
  C   C14       1.0  0.20811  0.24932  0.02086  1.0000
  H   H44       1.0  0.20533  0.06782  0.15065  1.0000
  H   H45       1.0  0.00622  0.12903  0.11360  1.0000
  H   H46       1.0  0.22764  0.26401  0.05208  1.0000
  H   H47       1.0  0.29111  0.18296  0.03302  1.0000
  C   C15       1.0  0.27330  0.15468  0.38945  1.0000
  H   H48       1.0  0.21191  0.36241  0.05165  1.0000
  H   H49       1.0  0.29866  0.17925  0.37655  1.0000
  N   N3        1.0  0.17860  0.32293  0.99467  1.0000
  C   C16       1.0  0.99913  0.37414  0.31599  1.0000
  H   H50       1.0  0.20496  0.07115  0.21865  1.0000
  H   H51       1.0  0.15951  0.34506  0.08965  1.0000
  H   H52       1.0  0.11959  0.29536  0.99753  1.0000
  C   C17       1.0  0.14354  0.32035  0.01338  1.0000
  H   H53       1.0  0.26914  0.11991  0.21912  1.0000
  H   H54       1.0  0.27550  0.37638  0.45186  1.0000
  H   H55       1.0  0.25124  0.16156  0.39257  1.0000
  Fe  Fe4       1.0  0.00314  0.28556  0.17693  1.0000
  C   C18       1.0  0.05628  0.43320  0.34080  1.0000
  C   C19       1.0  0.22249  0.07489  0.18527  1.0000
  C   C20       1.0  0.20986  0.35987  0.00973  1.0000
  H   H56       1.0  0.00970  0.35669  0.33129  1.0000
  C   C21       1.0  0.01414  0.40965  0.34648  1.0000
  C   C22       1.0  0.13837  0.31930  0.07179  1.0000
  C   C23       1.0  0.11574  0.48443  0.36454  1.0000
  S   S7        1.0  0.01138  0.23905  0.19904  1.0000
  C   C24       1.0  0.06667  0.45389  0.42883  1.0000
  H   H57       1.0  0.27428  0.22885  0.06499  1.0000
  H   H58       1.0  0.14103  0.34394  0.99974  1.0000
  C   C25       1.0  0.09237  0.19990  0.01957  1.0000
  H   H59       1.0  0.24134  0.13230  0.18075  1.0000
  C   C26       1.0  0.18229  0.29243  0.01915  1.0000
  H   H60       1.0  0.00703  0.38000  0.27548  1.0000
  C   C27       1.0  0.99460  0.11817  0.22171  1.0000
  H   H61       1.0  0.06774  0.41493  0.34793  1.0000
  H   H62       1.0  0.25690  0.35132  0.01081  1.0000
  C   C28       1.0  0.29499  0.18462  0.11617  1.0000
  C   C29       1.0  0.06628  0.21118  0.02543  1.0000
  H   H63       1.0  0.25823  0.19112  0.46412  1.0000
  C   C30       1.0  0.27667  0.40865  0.00363  1.0000
  H   H64       1.0  0.15481  0.26846  0.02680  1.0000
  H   H65       1.0  0.13369  0.31455  0.46243  1.0000
  C   C31       1.0  0.26217  0.12574  0.34790  1.0000
  H   H66       1.0  0.09462  0.23697  0.43437  1.0000
  N   N4        1.0  0.30961  0.15933  0.12858  1.0000
  C   C32       1.0  0.25436  0.38246  0.46614  1.0000
  H   H67       1.0  0.11858  0.47567  0.28256  1.0000
  H   H68       1.0  0.21958  0.23595  0.99668  1.0000
  H   H69       1.0  0.30167  0.05645  0.31926  1.0000
  H   H70       1.0  0.25373  0.11537  0.45127  1.0000
  H   H71       1.0  0.31819  0.21329  0.11295  1.0000
  H   H72       1.0  0.02330  0.17766  0.22217  1.0000
  H   H73       1.0  0.18180  0.22768  0.03679  1.0000
  H   H74       1.0  0.99750  0.15685  0.27927  1.0000
  C   C33       1.0  0.07919  0.24615  0.45862  1.0000
  H   H75       1.0  0.31245  0.14383  0.05112  1.0000
  C   C34       1.0  0.25403  0.19920  0.06206  1.0000
  C   C35       1.0  0.09549  0.47723  0.46961  1.0000
  H   H76       1.0  0.98978  0.09632  0.24930  1.0000
  C   C36       1.0  0.98631  0.10433  0.09254  1.0000
  C   C37       1.0  0.13832  0.29875  0.49244  1.0000
  C   C38       1.0  0.22316  0.34819  0.49033  1.0000
  Fe  Fe5       1.0  0.22366  0.46574  0.54658  1.0000
  S   S8        1.0  0.17021  0.46139  0.52570  1.0000
  S   S9        1.0  0.21470  0.43243  0.61937  1.0000
  C   C39       1.0  0.10375  0.37226  0.56467  1.0000
  S   S10       1.0  0.18475  0.06813  0.53211  1.0000
  S   S11       1.0  0.24939  0.02500  0.52767  1.0000
  Fe  Fe6       1.0  0.23940  0.27682  0.77105  1.0000
  S   S12       1.0  0.18666  0.22372  0.76063  1.0000
  S   S13       1.0  0.26235  0.32116  0.70919  1.0000
  Fe  Fe7       1.0  0.25680  0.25017  0.87215  1.0000
  S   S14       1.0  0.20456  0.19581  0.86733  1.0000
  H   H77       1.0  0.19975  0.31821  0.92165  1.0000
  Fe  Fe8       1.0  0.21833  0.19606  0.78408  1.0000
  S   S15       1.0  0.22140  0.14749  0.74871  1.0000
  Fe  Fe9       1.0  0.17759  0.22826  0.84455  1.0000
  S   S16       1.0  0.12362  0.22430  0.87075  1.0000
  S   S17       1.0  0.27190  0.24901  0.79067  1.0000
  S   S18       1.0  0.22904  0.28285  0.85314  1.0000
  C   C40       1.0  0.10163  0.21813  0.93075  1.0000
  H   H78       1.0  0.23737  0.22027  0.58661  1.0000
  C   C41       1.0  0.07500  0.22872  0.93638  1.0000
  H   H79       1.0  0.09407  0.38740  0.54083  1.0000
  H   H80       1.0  0.06798  0.23983  0.90420  1.0000
  C   C42       1.0  0.19692  0.09170  0.59133  1.0000
  C   C43       1.0  0.18121  0.11302  0.60541  1.0000
  C   C44       1.0  0.18949  0.13156  0.65243  1.0000
  C   C45       1.0  0.21328  0.12857  0.68638  1.0000
  C   C46       1.0  0.22944  0.10767  0.67187  1.0000
  C   C47       1.0  0.22156  0.08959  0.62459  1.0000
  H   H81       1.0  0.16207  0.11485  0.58009  1.0000
  H   H82       1.0  0.17661  0.14726  0.66305  1.0000
  H   H83       1.0  0.24800  0.10526  0.69770  1.0000
  H   H84       1.0  0.23420  0.07369  0.61406  1.0000
  C   C48       1.0  0.24837  0.35173  0.68487  1.0000
  C   C49       1.0  0.26745  0.37426  0.64349  1.0000
  C   C50       1.0  0.25754  0.39895  0.62273  1.0000
  C   C51       1.0  0.22842  0.40157  0.64330  1.0000
  C   C52       1.0  0.20929  0.37904  0.68463  1.0000
  C   C53       1.0  0.21903  0.35415  0.70516  1.0000
  C   C54       1.0  0.16070  0.25961  0.64311  1.0000
  H   H85       1.0  0.27277  0.41625  0.59130  1.0000
  H   H86       1.0  0.18661  0.38067  0.70077  1.0000
  H   H87       1.0  0.20397  0.33693  0.73676  1.0000
  C   C55       1.0  0.14222  0.03611  0.78150  1.0000
  H   H88       1.0  0.19256  0.37451  0.91427  1.0000
  C   C56       1.0  0.16122  0.02940  0.73695  1.0000
  H   H89       1.0  0.07316  0.43560  0.52864  1.0000
  N   N5        1.0  0.16033  0.32375  0.53536  1.0000
  H   H90       1.0  0.21806  0.03073  0.68541  1.0000
  H   H91       1.0  0.17982  0.28581  0.55039  1.0000
  C   C57       1.0  0.19362  0.35608  0.51240  1.0000
  H   H92       1.0  0.19099  0.04788  0.74225  1.0000
  H   H93       1.0  0.30274  0.10483  0.60096  1.0000
  C   C58       1.0  0.31533  0.12618  0.52401  1.0000
  H   H94       1.0  0.31565  0.17311  0.55878  1.0000
  C   C59       1.0  0.17002  0.34620  0.90723  1.0000
  C   C60       1.0  0.10101  0.26526  0.50629  1.0000
  H   H95       1.0  0.12670  0.46745  0.62495  1.0000
  H   H96       1.0  0.11530  0.31644  0.58347  1.0000
  H   H97       1.0  0.29025  0.37272  0.62754  1.0000
  H   H98       1.0  0.24733  0.45727  0.80806  1.0000
  C   C61       1.0  0.14785  0.28337  0.61656  1.0000
  C   C62       1.0  0.13938  0.33848  0.56381  1.0000
  H   H99       1.0  0.19923  0.32511  0.59010  1.0000
  H   H100      1.0  0.18562  0.26059  0.95550  1.0000
  C   C63       1.0  0.17550  0.31801  0.93791  1.0000
  H   H101      1.0  0.12151  0.39090  0.59511  1.0000
  H   H102      1.0  0.26393  0.18089  0.57891  1.0000
  H   H103      1.0  0.08397  0.27305  0.52918  1.0000
  H   H104      1.0  0.16370  0.35803  0.82902  1.0000
  H   H105      1.0  0.27651  0.04517  0.64714  1.0000
  H   H106      1.0  0.11207  0.01949  0.77746  1.0000
  H   H107      1.0  0.22932  0.29732  0.97454  1.0000
  C   C64       1.0  0.20234  0.27609  0.98873  1.0000
  H   H108      1.0  0.27206  0.13342  0.55056  1.0000
  H   H109      1.0  0.05633  0.46769  0.52980  1.0000
  H   H110      1.0  0.23538  0.33927  0.52035  1.0000
  S   S19       1.0  0.29175  0.26590  0.94492  1.0000
  H   H111      1.0  0.07961  0.34847  0.58190  1.0000
  H   H112      1.0  0.20720  0.41704  0.78556  1.0000
  H   H113      1.0  0.23664  0.22497  0.51885  1.0000
  C   C65       1.0  0.16922  0.33868  0.85042  1.0000
  H   H114      1.0  0.19587  0.34218  0.83773  1.0000
  H   H115      1.0  0.11540  0.01603  0.59540  1.0000
  C   C66       1.0  0.20882  0.00165  0.69443  1.0000
  H   H116      1.0  0.12998  0.19465  0.96893  1.0000
  H   H117      1.0  0.28711  0.00924  0.63691  1.0000
  Fe  Fe10      1.0  0.20191  0.02889  0.49795  1.0000
  H   H118      1.0  0.10190  0.48176  0.55103  1.0000
  H   H119      1.0  0.20246  0.44698  0.82995  1.0000
  H   H120      1.0  0.11917  0.26541  0.60488  1.0000
  H   H121      1.0  0.15006  0.06553  0.78247  1.0000
  H   H122      1.0  0.20743  0.37832  0.54091  1.0000
  C   C67       1.0  0.11003  0.20347  0.97270  1.0000
  H   H123      1.0  0.10666  0.34203  0.50124  1.0000
  H   H124      1.0  0.14831  0.30309  0.64501  1.0000
  H   H125      1.0  0.15892  0.23800  0.61718  1.0000
  H   H126      1.0  0.14321  0.24617  0.67661  1.0000
  C   C68       1.0  0.21830  0.44607  0.79695  1.0000
  H   H127      1.0  0.15218  0.29052  0.92864  1.0000
  H   H128      1.0  0.14730  0.31030  0.84143  1.0000
  H   H129      1.0  0.12318  0.47464  0.69143  1.0000
  H   H130      1.0  0.15682  0.35714  0.59459  1.0000
  C   C69       1.0  0.12513  0.35953  0.53186  1.0000
  H   H131      1.0  0.15247  0.03751  0.70206  1.0000
  H   H132      1.0  0.14813  0.38422  0.51473  1.0000
  H   H133      1.0  0.18594  0.45460  0.74265  1.0000
  H   H134      1.0  0.18935  0.27653  0.65636  1.0000
  H   H135      1.0  0.29177  0.22336  0.54627  1.0000
  H   H136      1.0  0.20774  0.18105  0.54849  1.0000
  C   C70       1.0  0.23488  0.20637  0.54980  1.0000
  C   C71       1.0  0.27190  0.01846  0.66152  1.0000
  C   C72       1.0  0.29853  0.15121  0.53108  1.0000
  H   H137      1.0  0.17987  0.47284  0.66913  1.0000
  C   C73       1.0  0.17324  0.30469  0.57152  1.0000
  C   C74       1.0  0.26550  0.19720  0.54505  1.0000
  H   H138      1.0  0.21782  0.00167  0.73412  1.0000
  H   H139      1.0  0.23056  0.46447  0.72066  1.0000
  H   H140      1.0  0.14361  0.34441  0.91683  1.0000
  H   H141      1.0  0.28278  0.02203  0.70065  1.0000
  C   C75       1.0  0.21530  0.46759  0.75250  1.0000
  H   H142      1.0  0.24900  0.36551  0.94973  1.0000
  H   H143      1.0  0.15069  0.02936  0.81784  1.0000
  C   C76       1.0  0.08060  0.46461  0.52295  1.0000
  H   H144      1.0  0.10532  0.24496  0.52728  1.0000
  C   C77       1.0  0.05759  0.22548  0.98336  1.0000
  H   H145      1.0  0.16853  0.01712  0.63530  1.0000
  H   H146      1.0  0.29461  0.10005  0.50663  1.0000
  H   H147      1.0  0.03740  0.23400  0.98696  1.0000
  C   C78       1.0  0.26154  0.17547  0.49549  1.0000
  H   H148      1.0  0.23496  0.14927  0.49824  1.0000
  C   C79       1.0  0.13883  0.48752  0.65637  1.0000
  H   H149      1.0  0.27011  0.42788  0.98378  1.0000
  C   C80       1.0  0.24825  0.36901  0.99121  1.0000
  H   H150      1.0  0.26730  0.40499  0.49433  1.0000
  H   H151      1.0  0.30406  0.41423  0.99092  1.0000
  Fe  Fe11      1.0  0.26110  0.51955  0.45747  1.0000
  S   S20       1.0  0.20866  0.51669  0.43173  1.0000
  C   C81       1.0  0.09942  0.80222  0.42009  1.0000
  Fe  Fe12      1.0  0.18859  0.97410  0.40990  1.0000
  S   S21       1.0  0.16144  0.94191  0.33706  1.0000
  S   S22       1.0  0.23684  0.96868  0.43472  1.0000
  Fe  Fe13      1.0  0.01022  0.74053  0.11551  1.0000
  H   H152      1.0  0.17794  0.87781  0.31558  1.0000
  S   S23       1.0  0.06312  0.75591  0.07155  1.0000
  H   H153      1.0  0.07799  0.66051  0.14920  1.0000
  S   S24       1.0  0.00257  0.82009  0.25832  1.0000
  S   S25       1.0  0.00524  0.73453  0.20078  1.0000
  H   H154      1.0  0.21863  0.78823  0.06616  1.0000
  H   H155      1.0  0.17894  0.52853  0.26700  1.0000
  H   H156      1.0  0.17277  0.88963  0.44203  1.0000
  C   C82       1.0  0.19804  0.74708  0.00433  1.0000
  C   C83       1.0  0.05625  0.77695  0.34454  1.0000
  C   C84       1.0  0.04705  0.85317  0.28035  1.0000
  C   C85       1.0  0.05030  0.87499  0.32273  1.0000
  C   C86       1.0  0.08490  0.90197  0.34098  1.0000
  C   C87       1.0  0.11685  0.90764  0.31694  1.0000
  C   C88       1.0  0.11356  0.88590  0.27449  1.0000
  C   C89       1.0  0.07901  0.85868  0.25654  1.0000
  H   H157      1.0  0.02583  0.87119  0.34129  1.0000
  H   H158      1.0  0.08676  0.91889  0.37292  1.0000
  H   H159      1.0  0.13795  0.89024  0.25508  1.0000
  H   H160      1.0  0.07708  0.84235  0.22380  1.0000
  C   C90       1.0  0.08966  0.81044  0.36676  1.0000
  H   H161      1.0  0.14052  0.67508  0.12499  1.0000
  H   H162      1.0  0.05079  0.78336  0.30583  1.0000
  H   H163      1.0  0.08492  0.82203  0.00730  1.0000
  H   H164      1.0  0.06613  0.84686  0.03842  1.0000
  H   H165      1.0  0.06112  0.49590  0.31980  1.0000
  S   S26       1.0  0.16613  0.96770  0.48856  1.0000
  H   H166      1.0  0.12957  0.71343  0.03236  1.0000
  C   C91       1.0  0.12366  0.67965  0.09696  1.0000
  H   H167      1.0  0.11267  0.81825  0.34009  1.0000
  H   H168      1.0  0.26647  0.74278  0.14800  1.0000
  C   C92       1.0  0.14779  0.82185  0.48471  1.0000
  N   N6        1.0  0.12740  0.83450  0.45079  1.0000
  H   H169      1.0  0.10826  0.65455  0.07362  1.0000
  H   H170      1.0  0.07204  0.55931  0.32527  1.0000
  H   H171      1.0  0.06722  0.84886  0.43492  1.0000
  H   H172      1.0  0.10876  0.70926  0.15122  1.0000
  H   H173      1.0  0.25959  0.76810  0.06583  1.0000
  C   C93       1.0  0.20711  0.71810  0.08206  1.0000
  H   H174      1.0  0.18158  0.50160  0.31788  1.0000
  H   H175      1.0  0.26215  0.70320  0.11444  1.0000
  H   H176      1.0  0.28719  0.55350  0.32693  1.0000
  H   H177      1.0  0.03169  0.76938  0.36805  1.0000
  C   C94       1.0  0.09527  0.68504  0.12581  1.0000
  C   C95       1.0  0.17039  0.51944  0.30657  1.0000
  H   H178      1.0  0.16063  0.80907  0.46189  1.0000
  H   H179      1.0  0.25480  0.72896  0.03344  1.0000
  H   H180      1.0  0.07351  0.78688  0.44185  1.0000
  C   C96       1.0  0.12868  0.49864  0.30998  1.0000
  C   C97       1.0  0.23171  0.81659  0.99498  1.0000
  C   C98       1.0  0.16889  0.68012  0.00979  1.0000
  H   H181      1.0  0.07724  0.68896  0.09900  1.0000
  H   H182      1.0  0.20436  0.73304  0.11509  1.0000
  H   H183      1.0  0.06095  0.75332  0.34196  1.0000
  H   H184      1.0  0.21416  0.91033  0.35604  1.0000
  H   H185      1.0  0.18047  0.78502  0.03216  1.0000
  C   C99       1.0  0.24871  0.73820  0.06944  1.0000
  H   H186      1.0  0.19929  0.69039  0.09681  1.0000
  H   H187      1.0  0.06206  0.89795  0.47850  1.0000
  C   C100      1.0  0.20621  0.78420  0.02805  1.0000
  N   N7        1.0  0.18135  0.71484  0.03998  1.0000
  C   C101      1.0  0.14765  0.71311  0.06280  1.0000
  H   H188      1.0  0.14214  0.87458  0.39086  1.0000
  H   H189      1.0  0.21866  0.87485  0.32451  1.0000
  H   H190      1.0  0.15531  0.73777  0.08648  1.0000
  C   C102      1.0  0.19910  0.88132  0.34349  1.0000
  H   H191      1.0  0.07176  0.52607  0.42877  1.0000
  C   C103      1.0  0.06766  0.83475  0.00175  1.0000
  C   C104      1.0  0.18154  0.85583  0.38857  1.0000
  C   C105      1.0  0.27053  0.73263  0.11111  1.0000
  H   H192      1.0  0.16704  0.82726  0.37423  1.0000
  H   H193      1.0  0.31628  0.65225  0.27225  1.0000
  H   H194      1.0  0.20384  0.85887  0.41404  1.0000
  C   C106      1.0  0.05537  0.70497  0.99736  1.0000
  H   H195      1.0  0.10867  0.78199  0.41354  1.0000
  C   C107      1.0  0.31613  0.57301  0.32518  1.0000
  H   H196      1.0  0.15408  0.65565  0.03426  1.0000
  C   C108      1.0  0.15539  0.86505  0.41829  1.0000
  H   H197      1.0  0.18221  0.54402  0.33143  1.0000
  H   H198      1.0  0.30009  0.74807  0.10163  1.0000
  H   H199      1.0  0.08375  0.83313  0.36732  1.0000
  H   H200      1.0  0.10884  0.54430  0.38346  1.0000
  S   S27       1.0  0.99340  0.78365  0.11305  1.0000
  C   C109      1.0  0.06491  0.55389  0.36603  1.0000
  C   C110      1.0  0.09026  0.86848  0.45885  1.0000
  C   C111      1.0  0.07875  0.52949  0.38793  1.0000
  H   H201      1.0  0.13155  0.50809  0.39008  1.0000
  H   H202      1.0  0.03480  0.54080  0.37046  1.0000
  H   H203      1.0  0.07786  0.58052  0.38645  1.0000
  H   H204      1.0  0.23692  0.84249  0.01331  1.0000
  H   H205      1.0  0.31583  0.58271  0.24491  1.0000
  C   C112      1.0  0.10901  0.84934  0.48479  1.0000
  H   H206      1.0  0.11004  0.89207  0.43593  1.0000
  H   H207      1.0  0.12516  0.79261  0.00629  1.0000
  H   H208      1.0  0.11919  0.51768  0.29792  1.0000
  C   C113      1.0  0.07590  0.74067  0.01625  1.0000
  H   H209      1.0  0.03014  0.68577  0.01586  1.0000
  H   H210      1.0  0.10459  0.50672  0.46684  1.0000
  H   H211      1.0  0.21603  0.67172  0.01341  1.0000
  H   H212      1.0  0.30662  0.68443  0.24082  1.0000
  C   C114      1.0  0.06034  0.49165  0.36146  1.0000
  H   H213      1.0  0.01677  0.78536  0.01489  1.0000
  H   H214      1.0  0.31826  0.64970  0.47559  1.0000
  Fe  Fe14      1.0  0.98591  0.77543  0.19749  1.0000
  H   H215      1.0  0.09701  0.91441  0.69415  1.0000
  H   H216      1.0  0.21891  0.81450  0.95757  1.0000
  S   S28       1.0  0.19410  0.91410  0.56694  1.0000
  H   H217      1.0  0.13063  0.86657  0.72175  1.0000
  S   S29       1.0  0.17326  0.55340  0.54731  1.0000
  H   H218      1.0  0.30626  0.72061  0.90525  1.0000
  Fe  Fe15      1.0  0.22941  0.78978  0.77228  1.0000
  S   S30       1.0  0.18144  0.73399  0.75384  1.0000
  S   S31       1.0  0.25408  0.84560  0.73226  1.0000
  Fe  Fe16      1.0  0.25320  0.75972  0.86369  1.0000
  S   S32       1.0  0.20702  0.70258  0.85095  1.0000
  H   H219      1.0  0.16805  0.97896  0.60811  1.0000
  Fe  Fe17      1.0  0.21999  0.71209  0.76752  1.0000
  S   S33       1.0  0.23633  0.67598  0.72161  1.0000
  Fe  Fe18      1.0  0.17209  0.72863  0.83911  1.0000
  S   S34       1.0  0.11614  0.70227  0.87862  1.0000
  S   S35       1.0  0.26840  0.76830  0.78139  1.0000
  S   S36       1.0  0.21762  0.78536  0.85603  1.0000
  C   C115      1.0  0.10125  0.71805  0.93121  1.0000
  H   H220      1.0  0.12155  0.97187  0.73555  1.0000
  C   C116      1.0  0.12138  0.75393  0.94952  1.0000
  Fe  Fe19      1.0  0.21520  0.96404  0.51415  1.0000
  H   H221      1.0  0.14672  0.77310  0.93122  1.0000
  C   C117      1.0  0.19125  0.58769  0.59550  1.0000
  C   C118      1.0  0.22755  0.60370  0.61178  1.0000
  C   C119      1.0  0.24076  0.63094  0.64981  1.0000
  C   C120      1.0  0.21797  0.64247  0.67239  1.0000
  C   C121      1.0  0.18168  0.62651  0.65605  1.0000
  C   C122      1.0  0.16849  0.59937  0.61779  1.0000
  H   H222      1.0  0.24557  0.59543  0.59464  1.0000
  H   H223      1.0  0.26901  0.64347  0.66155  1.0000
  H   H224      1.0  0.16376  0.63500  0.67296  1.0000
  H   H225      1.0  0.14040  0.58731  0.60545  1.0000
  C   C123      1.0  0.23679  0.86372  0.68568  1.0000
  C   C124      1.0  0.19996  0.84591  0.67145  1.0000
  C   C125      1.0  0.18754  0.86192  0.63533  1.0000
  C   C126      1.0  0.21175  0.89557  0.61223  1.0000
  C   C127      1.0  0.24858  0.91336  0.62634  1.0000
  C   C128      1.0  0.26088  0.89767  0.66310  1.0000
  H   H226      1.0  0.18101  0.81994  0.68856  1.0000
  C   C129      1.0  0.02927  0.71280  0.81690  1.0000
  H   H227      1.0  0.26757  0.93926  0.60911  1.0000
  H   H228      1.0  0.28934  0.91190  0.67391  1.0000
  H   H229      1.0  0.17223  0.80004  0.56776  1.0000
  H   H230      1.0  0.00232  0.72557  0.97597  1.0000
  H   H231      1.0  0.28036  0.57783  0.76446  1.0000
  H   H232      1.0  0.10975  0.86630  0.66184  1.0000
  H   H233      1.0  0.04986  0.77781  0.94133  1.0000
  H   H234      1.0  0.29049  0.89127  0.95316  1.0000
  H   H235      1.0  0.05262  0.70761  0.81671  1.0000
  C   C130      1.0  0.17887  0.49820  0.66284  1.0000
  C   C131      1.0  0.02918  0.80617  0.98478  1.0000
  H   H236      1.0  0.16682  0.61572  0.97562  1.0000
  H   H237      1.0  0.19304  0.51021  0.62650  1.0000
  C   C132      1.0  0.23042  0.50828  0.76681  1.0000
  H   H238      1.0  0.20448  0.63826  0.93204  1.0000
  H   H239      1.0  0.08264  0.85218  0.71878  1.0000
  H   H240      1.0  0.04241  0.80917  0.90514  1.0000
  H   H241      1.0  0.13648  0.51197  0.64707  1.0000
  H   H242      1.0  0.19929  0.55219  0.69066  1.0000
  C   C133      1.0  0.06809  0.69375  0.95528  1.0000
  H   H243      1.0  0.21194  0.50837  0.79667  1.0000
  H   H244      1.0  0.16132  0.92925  0.65540  1.0000
  H   H245      1.0  0.25827  0.81755  0.98975  1.0000
  H   H246      1.0  0.03096  0.71933  0.89770  1.0000
  H   H247      1.0  0.30102  0.85838  0.82721  1.0000
  H   H248      1.0  0.09938  0.77064  0.50993  1.0000
  H   H249      1.0  0.24225  0.50509  0.66178  1.0000
  H   H250      1.0  0.29743  0.50550  0.63292  1.0000
  H   H251      1.0  0.15895  0.84799  0.62510  1.0000
  H   H252      1.0  0.15275  0.76198  0.52378  1.0000
  H   H253      1.0  0.25915  0.55204  0.65091  1.0000
  H   H254      1.0  0.16373  0.64114  0.92267  1.0000
  C   C134      1.0  0.25478  0.57263  0.74519  1.0000
  H   H255      1.0  0.09934  0.96982  0.66214  1.0000
  C   C135      1.0  0.11493  0.96863  0.62929  1.0000
  N   N8        1.0  0.23435  0.53401  0.72442  1.0000
  H   H256      1.0  0.21113  0.58497  0.76407  1.0000
  C   C136      1.0  0.11861  0.91098  0.71244  1.0000
  H   H257      1.0  0.22173  0.56327  0.81463  1.0000
  C   C137      1.0  0.12472  0.79366  0.52613  1.0000
  C   C138      1.0  0.10690  0.98721  0.58549  1.0000
  H   H258      1.0  0.10438  0.93961  0.61833  1.0000
  C   C139      1.0  0.03164  0.73507  0.86387  1.0000
  C   C140      1.0  0.23362  0.58331  0.78338  1.0000
  H   H259      1.0  0.12156  0.98705  0.55077  1.0000
  Fe  Fe20      1.0  0.20016  0.52212  0.51514  1.0000
  S   S37       1.0  0.29175  0.77995  0.93242  1.0000
  C   C141      1.0  0.18237  0.64041  0.95171  1.0000
  H   H260      1.0  0.05864  0.76065  0.86309  1.0000
  C   C142      1.0  0.15742  0.93877  0.69307  1.0000
  H   H261      1.0  0.17614  0.93535  0.71941  1.0000
  H   H262      1.0  0.29437  0.52056  0.72359  1.0000
  C   C143      1.0  0.31373  0.53399  0.64747  1.0000
  H   H263      1.0  0.03054  0.72799  0.78196  1.0000
  H   H264      1.0  0.05218  0.66596  0.94141  1.0000
  H   H265      1.0  0.27243  0.64186  0.77707  1.0000
  N   N9        1.0  0.16766  0.97863  0.69025  1.0000
  H   H266      1.0  0.31298  0.56813  0.70700  1.0000
  C   C144      1.0  0.10997  0.87163  0.70310  1.0000
  H   H267      1.0  0.25710  0.51809  0.78626  1.0000
  S   S38       1.0  0.25305  0.52738  0.54055  1.0000
  C   C145      1.0  0.25643  0.53215  0.68074  1.0000
  C   C146      1.0  0.29534  0.53953  0.69383  1.0000
  C   C147      1.0  0.14632  0.77781  0.55149  1.0000
  H   H268      1.0  0.26367  0.59284  0.71374  1.0000
  C   C148      1.0  0.25881  0.62083  0.80697  1.0000
  H   H269      1.0  0.11711  0.80704  0.55624  1.0000
  C   C149      1.0  0.03003  0.78749  0.93468  1.0000
  H   H270      1.0  0.11702  0.91451  0.75391  1.0000
  C   C150      1.0  0.19731  0.52667  0.70607  1.0000
  H   H271      1.0  0.24260  0.62916  0.83102  1.0000
  H   H272      1.0  0.22353  0.75068  0.98717  1.0000
  H   H273      1.0  0.16100  0.98241  0.77065  1.0000
  H   H274      1.0  0.07715  0.97246  0.57727  1.0000
  C   C151      1.0  0.29133  0.88801  0.91156  1.0000
  H   H275      1.0  0.12992  0.75916  0.58263  1.0000
  C   C152      1.0  0.00044  0.74447  0.86547  1.0000
  H   H276      1.0  0.00737  0.76650  0.83706  1.0000
  H   H277      1.0  0.21685  0.69862  0.95975  1.0000
  H   H278      1.0  0.22198  0.98624  0.62063  1.0000
  C   C153      1.0  0.15645  0.98711  0.64002  1.0000
  H   H279      1.0  0.26648  0.86233  0.89996  1.0000
  H   H280      1.0  0.27999  0.61997  0.83086  1.0000
  H   H281      1.0  0.29123  0.91154  0.89284  1.0000
  C   C154      1.0  0.15172  0.98874  0.73448  1.0000
  H   H282      1.0  0.22845  0.96371  0.67357  1.0000
  H   H283      1.0  0.17785  0.51863  0.73834  1.0000
  H   H284      1.0  0.08071  0.85699  0.97334  1.0000
  H   H285      1.0  0.00355  0.68595  0.81714  1.0000
  N   N10       1.0  0.99381  0.75621  0.91658  1.0000
  H   H286      1.0  0.05236  0.86038  0.52023  1.0000
  H   H287      1.0  0.01352  0.82070  0.98075  1.0000
  C   C155      1.0  0.19906  0.67510  0.98425  1.0000
  H   H288      1.0  0.14907  0.67780  0.97998  1.0000
  C   C156      1.0  0.10893  0.76498  0.99197  1.0000
  H   H289      1.0  0.17970  0.74187  0.97126  1.0000
  H   H290      1.0  0.09569  0.90262  0.52438  1.0000
  H   H291      1.0  0.08741  0.82705  0.50796  1.0000
  H   H292      1.0  0.12925  0.86936  0.51207  1.0000
  C   C157      1.0  0.23124  0.98995  0.66036  1.0000
  C   C158      1.0  0.07417  0.88321  0.49809  1.0000
  H   H293      1.0  0.31687  0.55347  0.61699  1.0000
  H   H294      1.0  0.17080  0.84577  0.50427  1.0000
  Fe  Fe21      1.0  0.44971  0.20208  0.18348  1.0000
  S   S39       1.0  0.44054  0.24985  0.17153  1.0000
  S   S40       1.0  0.40167  0.14849  0.21428  1.0000
  Fe  Fe22      1.0  0.45476  0.24757  0.08995  1.0000
  C   C159      1.0  0.58857  0.33546  0.01177  1.0000
  S   S41       1.0  0.46226  0.19879  0.10086  1.0000
  H   H295      1.0  0.38042  0.16060  0.11361  1.0000
  H   H296      1.0  0.60992  0.29157  0.43129  1.0000
  H   H297      1.0  0.62964  0.17047  0.13029  1.0000
  H   H298      1.0  0.63685  0.34798  0.14587  1.0000
  H   H299      1.0  0.60876  0.23542  0.39902  1.0000
  C   C160      1.0  0.34407  0.09721  0.36629  1.0000
  H   H300      1.0  0.56752  0.34214  0.02460  1.0000
  C   C161      1.0  0.34539  0.09823  0.27397  1.0000
  C   C162      1.0  0.37966  0.13064  0.27366  1.0000
  C   C163      1.0  0.39546  0.14693  0.32008  1.0000
  C   C164      1.0  0.37791  0.13013  0.36600  1.0000
  S   S42       1.0  0.63823  0.38783  0.41832  1.0000
  H   H301      1.0  0.42177  0.17177  0.32065  1.0000
  H   H302      1.0  0.39104  0.14233  0.40159  1.0000
  Fe  Fe23      1.0  0.52123  0.23827  0.11862  1.0000
  S   S43       1.0  0.51456  0.28700  0.10315  1.0000
  S   S44       1.0  0.57604  0.24708  0.08763  1.0000
  Fe  Fe24      1.0  0.50150  0.28491  0.18613  1.0000
  S   S45       1.0  0.52843  0.33951  0.22946  1.0000
  S   S46       1.0  0.50992  0.23730  0.20275  1.0000
  H   H303      1.0  0.37617  0.24335  0.39341  1.0000
  H   H304      1.0  0.63779  0.28215  0.02089  1.0000
  C   C165      1.0  0.58835  0.23071  0.03308  1.0000
  C   C166      1.0  0.56784  0.19439  0.01660  1.0000
  C   C167      1.0  0.55988  0.35290  0.28089  1.0000
  C   C168      1.0  0.57378  0.38804  0.30225  1.0000
  C   C169      1.0  0.59814  0.39945  0.34377  1.0000
  C   C170      1.0  0.60899  0.37583  0.36444  1.0000
  C   C171      1.0  0.59547  0.34091  0.34261  1.0000
  C   C172      1.0  0.57119  0.32952  0.30111  1.0000
  H   H305      1.0  0.56511  0.40632  0.28713  1.0000
  H   H306      1.0  0.38394  0.27401  0.06691  1.0000
  H   H307      1.0  0.41187  0.23540  0.41569  1.0000
  H   H308      1.0  0.56084  0.30246  0.28513  1.0000
  C   C173      1.0  0.63608  0.29149  0.42771  1.0000
  C   C174      1.0  0.35589  0.14161  0.09143  1.0000
  H   H309      1.0  0.34187  0.11526  0.11194  1.0000
  H   H310      1.0  0.61487  0.36144  0.00739  1.0000
  C   C175      1.0  0.32758  0.08177  0.31985  1.0000
  C   C176      1.0  0.34766  0.19778  0.26413  1.0000
  C   C177      1.0  0.33117  0.15878  0.08319  1.0000
  H   H311      1.0  0.62181  0.27019  0.35122  1.0000
  H   H312      1.0  0.34577  0.11397  0.01843  1.0000
  H   H313      1.0  0.33410  0.22200  0.20240  1.0000
  H   H314      1.0  0.62018  0.37970  0.15223  1.0000
  C   C178      1.0  0.62141  0.25412  0.00816  1.0000
  H   H315      1.0  0.33741  0.15101  0.19151  1.0000
  H   H316      1.0  0.33863  0.17041  0.28084  1.0000
  H   H317      1.0  0.60358  0.32236  0.35800  1.0000
  C   C179      1.0  0.32580  0.20351  0.47076  1.0000
  H   H318      1.0  0.54289  0.17573  0.03617  1.0000
  H   H319      1.0  0.37744  0.21134  0.25616  1.0000
  H   H320      1.0  0.36325  0.19397  0.16132  1.0000
  C   C180      1.0  0.37238  0.26478  0.02962  1.0000
  C   C181      1.0  0.64678  0.28199  0.47935  1.0000
  S   S47       1.0  0.42497  0.24365  0.01527  1.0000
  H   H321      1.0  0.60768  0.42610  0.36061  1.0000
  H   H322      1.0  0.38840  0.12459  0.04810  1.0000
  C   C182      1.0  0.63339  0.36636  0.17271  1.0000
  C   C183      1.0  0.34338  0.26977  0.01278  1.0000
  H   H323      1.0  0.39681  0.26038  0.45495  1.0000
  C   C184      1.0  0.38707  0.24897  0.99751  1.0000
  C   C185      1.0  0.36913  0.13481  0.04098  1.0000
  H   H324      1.0  0.64612  0.40433  0.26056  1.0000
  C   C186      1.0  0.35937  0.20134  0.45166  1.0000
  H   H325      1.0  0.33294  0.28291  0.03748  1.0000
  H   H326      1.0  0.38348  0.16063  0.01898  1.0000
  C   C187      1.0  0.63043  0.26317  0.38725  1.0000
  H   H327      1.0  0.59218  0.31870  0.04113  1.0000
  H   H328      1.0  0.62556  0.19950  0.08362  1.0000
  H   H329      1.0  0.35209  0.17962  0.42290  1.0000
  H   H330      1.0  0.34953  0.18722  0.06931  1.0000
  C   C188      1.0  0.38768  0.23742  0.42754  1.0000
  H   H331      1.0  0.61498  0.34929  0.20368  1.0000
  C   C189      1.0  0.33508  0.17368  0.17368  1.0000
  H   H332      1.0  0.50624  0.20457  0.00124  1.0000
  C   C190      1.0  0.64045  0.19926  0.11806  1.0000
  H   H333      1.0  0.33285  0.08529  0.23844  1.0000
  H   H334      1.0  0.34288  0.21454  0.29227  1.0000
  H   H335      1.0  0.63514  0.21425  0.14847  1.0000
  H   H336      1.0  0.64263  0.46822  0.26380  1.0000
  S   S48       1.0  0.32462  0.07579  0.42544  1.0000
  C   C191      1.0  0.32624  0.19399  0.21566  1.0000
  H   H337      1.0  0.62420  0.33170  0.49328  1.0000
  H   H338      1.0  0.62247  0.25644  0.49312  1.0000
  H   H339      1.0  0.37296  0.19634  0.48411  1.0000
  H   H340      1.0  0.31898  0.21851  0.44211  1.0000
  H   H341      1.0  0.46285  0.13927  0.99468  1.0000
  C   C192      1.0  0.32638  0.11720  0.57469  1.0000
  H   H342      1.0  0.59830  0.36469  0.53990  1.0000
  C   C193      1.0  0.63363  0.24155  0.96709  1.0000
  C   C194      1.0  0.32815  0.25847  0.96407  1.0000
  S   S49       1.0  0.62831  0.18718  0.90111  1.0000
  C   C195      1.0  0.61338  0.20508  0.95109  1.0000
  H   H343      1.0  0.57604  0.32622  0.58289  1.0000
  H   H344      1.0  0.45981  0.26329  0.90780  1.0000
  H   H345      1.0  0.63971  0.07051  0.62911  1.0000
  C   C196      1.0  0.49563  0.19357  0.96297  1.0000
  H   H346      1.0  0.62478  0.28135  0.80699  1.0000
  H   H347      1.0  0.57464  0.33313  0.93359  1.0000
  C   C197      1.0  0.49094  0.22195  0.93134  1.0000
  H   H348      1.0  0.45976  0.31794  0.87797  1.0000
  H   H349      1.0  0.47239  0.22803  0.95395  1.0000
  H   H350      1.0  0.50641  0.33796  0.85680  1.0000
  C   C198      1.0  0.60720  0.26309  0.83773  1.0000
  C   C199      1.0  0.37181  0.23758  0.94889  1.0000
  H   H351      1.0  0.63755  0.33608  0.60845  1.0000
  C   C200      1.0  0.64643  0.44563  0.66350  1.0000
  C   C201      1.0  0.48071  0.31170  0.86322  1.0000
  H   H352      1.0  0.33601  0.09731  0.56852  1.0000
  C   C202      1.0  0.55154  0.24662  0.89275  1.0000
  C   C203      1.0  0.58030  0.18171  0.97593  1.0000
  H   H353      1.0  0.50397  0.26184  0.84643  1.0000
  C   C204      1.0  0.51526  0.27798  0.88193  1.0000
  H   H354      1.0  0.43927  0.16478  0.98855  1.0000
  C   C205      1.0  0.57751  0.31503  0.96124  1.0000
  H   H355      1.0  0.52142  0.28188  0.98764  1.0000
  C   C206      1.0  0.60152  0.35248  0.57545  1.0000
  H   H356      1.0  0.51436  0.18584  0.94447  1.0000
  H   H357      1.0  0.60585  0.37162  0.60704  1.0000
  N   N11       1.0  0.52562  0.25688  0.91801  1.0000
  H   H358      1.0  0.47569  0.20794  0.89620  1.0000
  H   H359      1.0  0.60254  0.29359  0.53498  1.0000
  C   C207      1.0  0.57869  0.27362  0.85294  1.0000
  H   H360      1.0  0.56357  0.27288  0.81812  1.0000
  C   C208      1.0  0.63423  0.34643  0.57143  1.0000
  H   H361      1.0  0.53597  0.22022  0.87180  1.0000
  C   C209      1.0  0.54186  0.27779  0.96642  1.0000
  C   C210      1.0  0.62872  0.31946  0.52785  1.0000
  H   H362      1.0  0.60018  0.31046  0.94962  1.0000
  C   C211      1.0  0.34243  0.24204  0.93236  1.0000
  H   H363      1.0  0.62503  0.26612  0.87036  1.0000
  H   H364      1.0  0.53952  0.30389  0.86997  1.0000
  H   H365      1.0  0.34889  0.14236  0.59216  1.0000
  H   H366      1.0  0.56443  0.15341  0.96408  1.0000
  H   H367      1.0  0.59344  0.30221  0.86678  1.0000
  H   H368      1.0  0.54869  0.26149  0.99244  1.0000
  H   H369      1.0  0.49581  0.30389  0.93748  1.0000
  H   H370      1.0  0.47074  0.29689  0.82667  1.0000
  H   H371      1.0  0.38287  0.22535  0.92361  1.0000
  C   C212      1.0  0.48676  0.28816  0.90159  1.0000
  H   H372      1.0  0.56760  0.24156  0.92187  1.0000
  C   C213      1.0  0.45907  0.15847  0.97009  1.0000
  H   H373      1.0  0.44790  0.14496  0.93307  1.0000
  H   H374      1.0  0.64070  0.28384  0.59244  1.0000
  H   H375      1.0  0.59388  0.23434  0.82395  1.0000
  H   H376      1.0  0.61875  0.43283  0.68056  1.0000
  H   H377      1.0  0.33953  0.13817  0.49913  1.0000
  H   H378      1.0  0.33116  0.23325  0.89481  1.0000
  H   H379      1.0  0.64569  0.45845  0.62722  1.0000
  H   H380      1.0  0.33559  0.22209  0.50412  1.0000
  H   H381      1.0  0.59196  0.62725  0.02301  1.0000
  C   C214      1.0  0.37513  0.60627  0.36562  1.0000
  C   C215      1.0  0.37018  0.61504  0.27533  1.0000
  C   C216      1.0  0.33743  0.58099  0.36900  1.0000
  C   C217      1.0  0.59734  0.63505  0.06365  1.0000
  H   H382      1.0  0.36491  0.73510  0.39640  1.0000
  C   C218      1.0  0.33250  0.58968  0.27866  1.0000
  H   H383      1.0  0.52708  0.61279  0.03471  1.0000
  C   C219      1.0  0.38244  0.72254  0.40159  1.0000
  H   H384      1.0  0.46988  0.84181  0.32116  1.0000
  S   S50       1.0  0.63081  0.88249  0.41353  1.0000
  H   H385      1.0  0.36232  0.73643  0.27562  1.0000
  C   C220      1.0  0.60924  0.73309  0.02465  1.0000
  C   C221      1.0  0.46792  0.51233  0.14911  1.0000
  S   S51       1.0  0.40061  0.72969  0.02324  1.0000
  C   C222      1.0  0.57191  0.72184  0.02976  1.0000
  C   C223      1.0  0.43553  0.71995  0.36963  1.0000
  S   S52       1.0  0.49386  0.72495  0.20051  1.0000
  H   H386      1.0  0.37290  0.66777  0.42398  1.0000
  S   S53       1.0  0.38966  0.63343  0.21494  1.0000
  C   C224      1.0  0.39142  0.62310  0.31922  1.0000
  H   H387      1.0  0.37364  0.67554  0.32175  1.0000
  C   C225      1.0  0.46161  0.83600  0.36148  1.0000
  H   H388      1.0  0.39196  0.61239  0.39908  1.0000
  H   H389      1.0  0.38195  0.78550  0.05573  1.0000
  C   C226      1.0  0.38423  0.70472  0.31228  1.0000
  H   H390      1.0  0.45046  0.73535  0.40414  1.0000
  H   H391      1.0  0.47635  0.55986  0.18982  1.0000
  H   H392      1.0  0.33966  0.80436  0.01872  1.0000
  H   H393      1.0  0.33643  0.66650  0.38741  1.0000
  Fe  Fe25      1.0  0.50364  0.72881  0.11582  1.0000
  H   H394      1.0  0.54718  0.65501  0.06821  1.0000
  C   C227      1.0  0.35709  0.68188  0.41713  1.0000
  H   H395      1.0  0.55356  0.81472  0.02093  1.0000
  C   C228      1.0  0.36876  0.74273  0.00119  1.0000
  C   C229      1.0  0.34140  0.78184  0.00198  1.0000
  H   H396      1.0  0.61717  0.62721  0.07807  1.0000
  H   H397      1.0  0.44324  0.79250  0.41540  1.0000
  H   H398      1.0  0.54861  0.79151  0.28852  1.0000
  H   H399      1.0  0.43486  0.77265  0.30108  1.0000
  H   H400      1.0  0.45212  0.58014  0.01894  1.0000
  C   C230      1.0  0.36541  0.77118  0.02316  1.0000
  H   H401      1.0  0.55154  0.58588  0.09139  1.0000
  H   H402      1.0  0.44974  0.61623  0.09630  1.0000
  S   S54       1.0  0.50559  0.82162  0.24266  1.0000
  Fe  Fe26      1.0  0.48358  0.77188  0.18945  1.0000
  S   S55       1.0  0.42260  0.73561  0.17635  1.0000
  S   S56       1.0  0.55640  0.73127  0.08763  1.0000
  C   C231      1.0  0.48673  0.63683  0.24214  1.0000
  C   C232      1.0  0.47584  0.62671  0.18680  1.0000
  H   H403      1.0  0.62801  0.74892  0.05462  1.0000
  C   C233      1.0  0.32881  0.67991  0.25492  1.0000
  H   H404      1.0  0.44764  0.56103  0.11075  1.0000
  H   H405      1.0  0.54254  0.88998  0.29703  1.0000
  C   C234      1.0  0.54192  0.83882  0.28804  1.0000
  C   C235      1.0  0.49488  0.72139  0.34844  1.0000
  H   H406      1.0  0.42310  0.69063  0.38011  1.0000
  C   C236      1.0  0.55761  0.81825  0.30470  1.0000
  H   H407      1.0  0.49462  0.61779  0.25946  1.0000
  H   H408      1.0  0.39963  0.73670  0.43519  1.0000
  H   H409      1.0  0.48473  0.85606  0.38517  1.0000
  H   H410      1.0  0.46315  0.63482  0.26346  1.0000
  C   C237      1.0  0.48644  0.55395  0.15426  1.0000
  H   H411      1.0  0.51607  0.56471  0.15893  1.0000
  H   H412      1.0  0.47794  0.79587  0.37272  1.0000
  H   H413      1.0  0.59648  0.81588  0.35547  1.0000
  N   N12       1.0  0.49880  0.61230  0.10365  1.0000
  H   H414      1.0  0.48088  0.55832  0.07312  1.0000
  H   H415      1.0  0.60850  0.81155  0.00150  1.0000
  C   C238      1.0  0.46394  0.72653  0.32777  1.0000
  Fe  Fe27      1.0  0.43598  0.73709  0.09350  1.0000
  H   H416      1.0  0.42049  0.64165  0.31730  1.0000
  C   C239      1.0  0.35191  0.70932  0.29392  1.0000
  H   H417      1.0  0.41140  0.60746  0.02293  1.0000
  H   H418      1.0  0.56922  0.62465  0.13429  1.0000
  C   C240      1.0  0.59751  0.86724  0.36391  1.0000
  S   S57       1.0  0.44471  0.68863  0.09969  1.0000
  C   C241      1.0  0.55441  0.87375  0.30944  1.0000
  H   H419      1.0  0.45085  0.70658  0.29648  1.0000
  C   C242      1.0  0.56199  0.61575  0.09445  1.0000
  Fe  Fe28      1.0  0.43378  0.68888  0.18325  1.0000
  H   H420      1.0  0.43774  0.83980  0.36802  1.0000
  C   C243      1.0  0.47753  0.57106  0.10823  1.0000
  H   H421      1.0  0.46596  0.64497  0.17245  1.0000
  H   H422      1.0  0.60990  0.66527  0.06693  1.0000
  C   C244      1.0  0.42268  0.76839  0.33964  1.0000
  C   C245      1.0  0.45234  0.79713  0.37543  1.0000
  H   H423      1.0  0.40089  0.77577  0.33587  1.0000
  H   H424      1.0  0.40181  0.70973  0.27863  1.0000
  C   C246      1.0  0.47574  0.62479  0.07564  1.0000
  N   N13       1.0  0.40624  0.72892  0.35568  1.0000
  H   H425      1.0  0.51046  0.74230  0.37793  1.0000
  H   H426      1.0  0.51396  0.72471  0.31731  1.0000
  C   C247      1.0  0.53333  0.62486  0.07332  1.0000
  C   C248      1.0  0.58486  0.83221  0.34270  1.0000
  H   H427      1.0  0.45255  0.59825  0.18520  1.0000
  S   S58       1.0  0.49604  0.77758  0.10557  1.0000
  H   H428      1.0  0.59134  0.91488  0.36267  1.0000
  H   H429      1.0  0.52687  0.66165  0.14890  1.0000
  C   C249      1.0  0.58220  0.88803  0.34671  1.0000
  H   H430      1.0  0.59323  0.72737  0.43261  1.0000
  H   H431      1.0  0.52493  0.62305  0.17746  1.0000
  H   H432      1.0  0.47632  0.75445  0.31174  1.0000
  C   C250      1.0  0.50862  0.63158  0.15429  1.0000
  H   H433      1.0  0.49019  0.65529  0.07408  1.0000
  H   H434      1.0  0.50986  0.66536  0.24526  1.0000
  H   H435      1.0  0.48388  0.69355  0.36467  1.0000
  H   H436      1.0  0.60527  0.78661  0.47011  1.0000
  H   H437      1.0  0.34581  0.68090  0.22218  1.0000
  H   H438      1.0  0.33365  0.70709  0.32550  1.0000
  H   H439      1.0  0.64441  0.81082  0.42900  1.0000
  C   C251      1.0  0.46450  0.61034  0.02066  1.0000
  H   H440      1.0  0.43781  0.50009  0.14602  1.0000
  H   H441      1.0  0.47826  0.50473  0.11519  1.0000
  C   C252      1.0  0.33619  0.67903  0.46570  1.0000
  H   H442      1.0  0.59309  0.75847  0.38609  1.0000
  H   H443      1.0  0.48841  0.62293  0.99492  1.0000
  H   H444      1.0  0.63202  0.75198  0.39079  1.0000
  C   C253      1.0  0.43668  0.62005  0.99966  1.0000
  C   C254      1.0  0.61058  0.75376  0.41290  1.0000
  C   C255      1.0  0.62795  0.78534  0.45091  1.0000
  H   H445      1.0  0.44835  0.65023  0.99913  1.0000
  H   H446      1.0  0.47395  0.50073  0.18305  1.0000
  H   H447      1.0  0.64843  0.49265  0.34966  1.0000
  C   C256      1.0  0.65127  0.77883  0.49029  1.0000
  H   H448      1.0  0.31874  0.69162  0.46048  1.0000
  S   S59       1.0  0.31893  0.55989  0.42858  1.0000
  H   H449      1.0  0.54108  0.77040  0.99526  1.0000
  C   C257      1.0  0.38159  0.80040  0.85023  1.0000
  H   H450      1.0  0.39552  0.90374  0.91488  1.0000
  C   C258      1.0  0.62249  0.72342  0.98167  1.0000
  C   C259      1.0  0.39532  0.91119  0.83135  1.0000
  C   C260      1.0  0.60958  0.88076  0.81484  1.0000
  C   C261      1.0  0.32762  0.88213  0.83959  1.0000
  H   H451      1.0  0.40888  0.85301  0.81340  1.0000
  C   C262      1.0  0.44674  0.94973  0.89297  1.0000
  C   C263      1.0  0.54799  0.70118  0.99075  1.0000
  H   H452      1.0  0.37917  0.93099  0.74219  1.0000
  H   H453      1.0  0.53789  0.80406  0.95641  1.0000
  H   H454      1.0  0.46030  0.94905  0.92865  1.0000
  H   H455      1.0  0.42475  0.89233  0.88050  1.0000
  C   C264      1.0  0.41422  0.91173  0.88213  1.0000
  H   H456      1.0  0.62730  0.90674  0.83541  1.0000
  H   H457      1.0  0.37841  0.89634  0.66450  1.0000
  H   H458      1.0  0.32997  0.90666  0.74180  1.0000
  C   C265      1.0  0.63886  0.94646  0.65942  1.0000
  H   H459      1.0  0.41553  0.91526  0.80129  1.0000
  H   H460      1.0  0.39267  0.93618  0.82989  1.0000
  H   H461      1.0  0.57158  0.78606  0.89844  1.0000
  H   H462      1.0  0.62380  0.87970  0.78002  1.0000
  C   C266      1.0  0.60852  0.84387  0.58170  1.0000
  H   H463      1.0  0.62602  0.83955  0.50706  1.0000
  C   C267      1.0  0.35408  0.87260  0.76338  1.0000
  H   H464      1.0  0.32697  0.82012  0.83828  1.0000
  H   H465      1.0  0.58127  0.82283  0.82751  1.0000
  C   C268      1.0  0.34703  0.72460  0.95865  1.0000
  H   H466      1.0  0.43751  0.97008  0.89749  1.0000
  C   C269      1.0  0.55405  0.80003  0.98626  1.0000
  H   H467      1.0  0.62613  0.91874  0.64215  1.0000
  C   C270      1.0  0.38058  0.82999  0.81821  1.0000
  H   H468      1.0  0.61917  0.85002  0.62107  1.0000
  H   H469      1.0  0.58304  0.81683  0.58060  1.0000
  H   H470      1.0  0.64070  0.55612  0.65797  1.0000
  H   H471      1.0  0.34129  0.53893  0.65792  1.0000
  C   C271      1.0  0.59356  0.81498  0.96924  1.0000
  H   H472      1.0  0.57352  0.76210  0.82688  1.0000
  C   C272      1.0  0.60140  0.77368  0.81113  1.0000
  C   C273      1.0  0.32255  0.73480  0.93807  1.0000
  H   H473      1.0  0.63734  0.96537  0.63157  1.0000
  C   C274      1.0  0.60016  0.84783  0.84871  1.0000
  H   H474      1.0  0.62307  0.94519  0.69372  1.0000
  H   H475      1.0  0.58489  0.84948  0.88187  1.0000
  C   C275      1.0  0.60181  0.74365  0.77909  1.0000
  H   H476      1.0  0.46703  0.95851  0.86179  1.0000
  H   H477      1.0  0.60579  0.84469  0.96174  1.0000
  H   H478      1.0  0.60190  0.86514  0.56963  1.0000
  H   H479      1.0  0.32887  0.87213  0.66546  1.0000
  H   H480      1.0  0.34933  0.70258  0.94128  1.0000
  H   H481      1.0  0.60721  0.79658  0.78509  1.0000
  H   H482      1.0  0.62835  0.76266  0.87280  1.0000
  S   S60       1.0  0.61314  0.68585  0.89085  1.0000
  H   H483      1.0  0.32801  0.84706  0.75416  1.0000
  H   H484      1.0  0.40049  0.79232  0.83296  1.0000
  C   C276      1.0  0.56107  0.69057  0.94845  1.0000
  H   H485      1.0  0.54215  0.67372  0.91922  1.0000
  H   H486      1.0  0.42930  0.60968  0.96027  1.0000
  C   C277      1.0  0.59602  0.79411  0.92227  1.0000
  C   C278      1.0  0.63532  0.84802  0.86644  1.0000
  H   H487      1.0  0.62874  0.75408  0.76044  1.0000
  H   H488      1.0  0.59249  0.76773  0.93642  1.0000
  C   C279      1.0  0.59837  0.70153  0.94364  1.0000
  H   H489      1.0  0.59602  0.71963  0.80284  1.0000
  C   C280      1.0  0.63081  0.78720  0.85320  1.0000
  N   N14       1.0  0.63069  0.81380  0.89159  1.0000
  H   H490      1.0  0.58054  0.73450  0.74921  1.0000
  H   H491      1.0  0.36017  0.84545  0.88362  1.0000
  H   H492      1.0  0.39108  0.81036  0.88935  1.0000
  N   N15       1.0  0.35880  0.87763  0.82015  1.0000
  C   C281      1.0  0.35546  0.84306  0.84216  1.0000
  H   H493      1.0  0.36992  0.81769  0.78038  1.0000
  H   H494      1.0  0.35406  0.92089  0.65556  1.0000
  H   H495      1.0  0.34928  0.91284  0.91014  1.0000
  C   C282      1.0  0.35447  0.90442  0.73327  1.0000
  C   C283      1.0  0.35399  0.89794  0.67624  1.0000
  H   H496      1.0  0.37632  0.86910  0.74671  1.0000
  H   H497      1.0  0.35392  0.77584  0.85172  1.0000
  H   H498      1.0  0.58409  0.88043  0.80347  1.0000
  C   C284      1.0  0.63708  0.84414  0.54595  1.0000
  H   H499      1.0  0.65119  0.73188  0.97877  1.0000
  H   H500      1.0  0.64898  0.87180  0.89276  1.0000
  H   H501      1.0  0.35539  0.69274  0.49763  1.0000
  C   C285      1.0  0.64799  0.81548  0.56194  1.0000
  H   H502      1.0  0.62252  0.78904  0.56930  1.0000
  C   C286      1.0  0.32569  0.88658  0.89743  1.0000
  H   H503      1.0  0.32496  0.86354  0.91857  1.0000
  H   H504      1.0  0.32863  0.90682  0.82309  1.0000
  H   H505      1.0  0.63178  0.75370  0.51116  1.0000
  C   C287      1.0  0.32008  0.76398  0.95903  1.0000
  H   H506      1.0  0.51931  0.69260  0.99379  1.0000
  C   C288      1.0  0.67057  0.39498  0.19394  1.0000
  C   C289      1.0  0.72472  0.38604  0.33281  1.0000
  S   S61       1.0  0.77159  0.05457  0.36803  1.0000
  Fe  Fe29      1.0  0.67881  0.44399  0.45222  1.0000
  H   H507      1.0  0.88712  0.10253  0.12343  1.0000
  S   S62       1.0  0.73825  0.46194  0.44008  1.0000
  Fe  Fe30      1.0  0.94990  0.20520  0.20510  1.0000
  S   S63       1.0  0.94154  0.25291  0.18741  1.0000
  S   S64       1.0  0.92882  0.16677  0.27431  1.0000
  Fe  Fe31      1.0  0.93929  0.23645  0.10499  1.0000
  H   H508      1.0  0.80597  0.25038  0.07682  1.0000
  S   S65       1.0  0.94495  0.18709  0.12393  1.0000
  C   C290      1.0  0.78942  0.22017  0.08054  1.0000
  C   C291      1.0  0.94701  0.09273  0.10975  1.0000
  H   H509      1.0  0.85015  0.18515  0.43876  1.0000
  C   C292      1.0  0.66645  0.42121  0.23114  1.0000
  H   H510      1.0  0.86396  0.31651  0.99727  1.0000
  H   H511      1.0  0.70977  0.36482  0.36200  1.0000
  C   C293      1.0  0.81571  0.08516  0.34250  1.0000
  C   C294      1.0  0.81819  0.10579  0.29923  1.0000
  C   C295      1.0  0.85238  0.13088  0.27788  1.0000
  C   C296      1.0  0.88473  0.13574  0.29956  1.0000
  C   C297      1.0  0.88226  0.11533  0.34308  1.0000
  C   C298      1.0  0.84807  0.09026  0.36449  1.0000
  H   H512      1.0  0.79342  0.10226  0.28194  1.0000
  H   H513      1.0  0.85370  0.14640  0.24461  1.0000
  H   H514      1.0  0.90705  0.11888  0.36035  1.0000
  H   H515      1.0  0.84677  0.07482  0.39783  1.0000
  H   H516      1.0  0.75139  0.40701  0.34886  1.0000
  Fe  Fe32      1.0  0.74265  0.01365  0.43302  1.0000
  C   C299      1.0  0.85810  0.21432  0.34880  1.0000
  H   H517      1.0  0.79141  0.17873  0.12758  1.0000
  H   H518      1.0  0.69113  0.24694  0.09939  1.0000
  H   H519      1.0  0.73459  0.42493  0.24917  1.0000
  C   C300      1.0  0.95743  0.11144  0.20045  1.0000
  C   C301      1.0  0.70201  0.40349  0.31745  1.0000
  H   H520      1.0  0.74866  0.39351  0.44118  1.0000
  C   C302      1.0  0.89679  0.06506  0.17057  1.0000
  H   H521      1.0  0.82758  0.14628  0.39866  1.0000
  H   H522      1.0  0.85582  0.14200  0.48432  1.0000
  H   H523      1.0  0.89722  0.29230  0.04733  1.0000
  S   S66       1.0  0.68289  0.99725  0.43749  1.0000
  H   H524      1.0  0.70820  0.48499  0.19018  1.0000
  H   H525      1.0  0.73414  0.17871  0.10196  1.0000
  H   H526      1.0  0.79267  0.20768  0.04549  1.0000
  H   H527      1.0  0.88817  0.05294  0.20910  1.0000
  C   C303      1.0  0.72471  0.47743  0.21489  1.0000
  H   H528      1.0  0.75306  0.14988  0.40135  1.0000
  H   H529      1.0  0.80366  0.22127  0.16023  1.0000
  H   H530      1.0  0.89507  0.99975  0.14922  1.0000
  H   H531      1.0  0.74794  0.32224  0.03325  1.0000
  C   C304      1.0  0.74876  0.20808  0.09077  1.0000
  C   C305      1.0  0.87161  0.23997  0.00991  1.0000
  H   H532      1.0  0.69665  0.41479  0.35207  1.0000
  N   N16       1.0  0.93732  0.07982  0.16374  1.0000
  C   C306      1.0  0.74701  0.25534  0.03919  1.0000
  H   H533      1.0  0.80099  0.17487  0.34741  1.0000
  C   C307      1.0  0.68144  0.21773  0.10757  1.0000
  H   H534      1.0  0.65292  0.43373  0.20938  1.0000
  H   H535      1.0  0.69236  0.13880  0.02061  1.0000
  H   H536      1.0  0.76088  0.11243  0.39558  1.0000
  H   H537      1.0  0.93019  0.02115  0.10168  1.0000
  H   H538      1.0  0.94049  0.10756  0.23479  1.0000
  H   H539      1.0  0.69483  0.21615  0.14279  1.0000
  H   H540      1.0  0.85510  0.23007  0.31736  1.0000
  C   C308      1.0  0.94475  0.04914  0.17599  1.0000
  C   C309      1.0  0.88335  0.09296  0.16322  1.0000
  H   H541      1.0  0.93709  0.04048  0.21611  1.0000
  H   H542      1.0  0.83375  0.09602  0.16992  1.0000
  H   H543      1.0  0.73553  0.46431  0.18882  1.0000
  C   C310      1.0  0.84266  0.07551  0.17534  1.0000
  C   C311      1.0  0.68930  0.19871  0.06284  1.0000
  H   H544      1.0  0.71811  0.32451  0.45123  1.0000
  S   S67       1.0  0.89307  0.22015  0.04634  1.0000
  H   H545      1.0  0.83732  0.06613  0.21532  1.0000
  H   H546      1.0  0.67741  0.16947  0.07367  1.0000
  C   C312      1.0  0.82407  0.16782  0.41814  1.0000
  H   H547      1.0  0.86721  0.19587  0.33257  1.0000
  N   N17       1.0  0.79237  0.15053  0.45481  1.0000
  H   H548      1.0  0.82624  0.05187  0.14989  1.0000
  C   C313      1.0  0.80566  0.20901  0.12398  1.0000
  H   H549      1.0  0.89817  0.11713  0.18819  1.0000
  H   H550      1.0  0.77719  0.19217  0.46558  1.0000
  H   H551      1.0  0.74880  0.22322  0.12529  1.0000
  H   H552      1.0  0.87944  0.23390  0.37516  1.0000
  H   H553      1.0  0.77946  0.37618  0.45168  1.0000
  N   N18       1.0  0.72893  0.21465  0.04822  1.0000
  H   H554      1.0  0.79329  0.09993  0.46219  1.0000
  H   H555      1.0  0.65732  0.31868  0.41383  1.0000
  H   H556      1.0  0.66471  0.06743  0.43761  1.0000
  C   C314      1.0  0.72282  0.43477  0.27889  1.0000
  H   H557      1.0  0.88074  0.04262  0.14319  1.0000
  H   H558      1.0  0.68832  0.41042  0.16160  1.0000
  C   C315      1.0  0.82159  0.19223  0.37625  1.0000
  H   H559      1.0  0.68527  0.10470  0.39302  1.0000
  C   C316      1.0  0.92498  0.01430  0.14245  1.0000
  H   H560      1.0  0.83500  0.21892  0.11625  1.0000
  H   H561      1.0  0.81379  0.21170  0.39232  1.0000
  N   N19       1.0  0.70125  0.45062  0.25525  1.0000
  H   H562      1.0  0.75080  0.27033  0.07545  1.0000
  H   H563      1.0  0.71455  0.12372  0.47617  1.0000
  H   H564      1.0  0.73974  0.15248  0.02902  1.0000
  H   H565      1.0  0.67345  0.44916  0.32481  1.0000
  H   H566      1.0  0.68251  0.37993  0.21292  1.0000
  C   C317      1.0  0.75781  0.13035  0.42381  1.0000
  H   H567      1.0  0.96192  0.13752  0.18341  1.0000
  C   C318      1.0  0.87791  0.27546  0.01850  1.0000
  C   C319      1.0  0.75756  0.37987  0.46900  1.0000
  H   H568      1.0  0.96885  0.35858  0.31837  1.0000
  H   H569      1.0  0.67564  0.38140  0.30250  1.0000
  H   H570      1.0  0.72956  0.37278  0.29965  1.0000
  H   H571      1.0  0.69573  0.06800  0.39029  1.0000
  C   C320      1.0  0.69127  0.46931  0.29588  1.0000
  H   H572      1.0  0.68605  0.36058  0.47395  1.0000
  H   H573      1.0  0.67270  0.19829  0.02974  1.0000
  H   H574      1.0  0.74679  0.45634  0.29984  1.0000
  H   H575      1.0  0.72328  0.08573  0.47708  1.0000
  C   C321      1.0  0.72173  0.10636  0.45286  1.0000
  H   H576      1.0  0.94375  0.11698  0.10307  1.0000
  H   H577      1.0  0.92756  0.07158  0.08293  1.0000
  H   H578      1.0  0.77509  0.26594  0.02394  1.0000
  C   C322      1.0  0.69001  0.08543  0.41602  1.0000
  C   C323      1.0  0.79207  0.18052  0.48612  1.0000
  H   H579      1.0  0.69915  0.25883  0.01366  1.0000
  C   C324      1.0  0.79715  0.12337  0.48630  1.0000
  H   H580      1.0  0.66781  0.27421  0.47168  1.0000
  H   H581      1.0  0.97432  0.05848  0.17358  1.0000
  H   H582      1.0  0.97305  0.09018  0.01273  1.0000
  C   C325      1.0  0.72734  0.26764  0.00127  1.0000
  C   C326      1.0  0.74725  0.30931  0.99631  1.0000
  H   H583      1.0  0.82031  0.20403  0.49112  1.0000
  H   H584      1.0  0.96782  0.99976  0.14656  1.0000
  C   C327      1.0  0.72567  0.34275  0.48472  1.0000
  C   C328      1.0  0.72011  0.15553  0.00453  1.0000
  C   C329      1.0  0.73054  0.19635  0.99986  1.0000
  H   H585      1.0  0.65623  0.26290  0.38031  1.0000
  C   C330      1.0  0.67043  0.48873  0.27699  1.0000
  H   H586      1.0  0.71595  0.48928  0.31746  1.0000
  H   H587      1.0  0.70196  0.27681  0.53993  1.0000
  S   S68       1.0  0.68419  0.44965  0.53712  1.0000
  S   S69       1.0  0.77366  0.44944  0.57535  1.0000
  H   H588      1.0  0.74751  0.15551  0.93445  1.0000
  H   H589      1.0  0.76920  0.39789  0.50254  1.0000
  C   C331      1.0  0.66613  0.29747  0.56927  1.0000
  Fe  Fe33      1.0  0.72173  0.27816  0.77545  1.0000
  S   S70       1.0  0.67993  0.21800  0.76755  1.0000
  S   S71       1.0  0.70634  0.31727  0.73517  1.0000
  Fe  Fe34      1.0  0.76382  0.26103  0.85875  1.0000
  S   S72       1.0  0.72411  0.20077  0.85508  1.0000
  S   S73       1.0  0.80936  0.28601  0.91895  1.0000
  Fe  Fe35      1.0  0.72743  0.20756  0.77001  1.0000
  S   S74       1.0  0.74350  0.17294  0.71944  1.0000
  Fe  Fe36      1.0  0.68045  0.21683  0.85315  1.0000
  C   C332      1.0  0.82742  0.23230  0.94347  1.0000
  S   S75       1.0  0.76957  0.26808  0.77366  1.0000
  S   S76       1.0  0.71980  0.27676  0.86089  1.0000
  C   C333      1.0  0.83346  0.26765  0.95240  1.0000
  H   H590      1.0  0.71374  0.43643  0.72650  1.0000
  C   C334      1.0  0.69134  0.26294  0.61833  1.0000
  H   H591      1.0  0.75816  0.21158  0.98250  1.0000
  H   H592      1.0  0.80824  0.21552  0.91448  1.0000
  C   C335      1.0  0.69063  0.07278  0.61146  1.0000
  C   C336      1.0  0.72826  0.09151  0.62090  1.0000
  C   C337      1.0  0.74376  0.12195  0.65404  1.0000
  C   C338      1.0  0.72200  0.13413  0.67832  1.0000
  C   C339      1.0  0.68437  0.11525  0.66908  1.0000
  H   H593      1.0  0.71195  0.19747  0.97094  1.0000
  H   H594      1.0  0.74537  0.08261  0.60258  1.0000
  H   H595      1.0  0.75191  0.02730  0.63452  1.0000
  H   H596      1.0  0.84108  0.19113  0.96503  1.0000
  H   H597      1.0  0.76364  0.11879  0.76533  1.0000
  C   C340      1.0  0.72598  0.35374  0.69032  1.0000
  C   C341      1.0  0.76116  0.36739  0.67055  1.0000
  C   C342      1.0  0.77524  0.39647  0.63526  1.0000
  C   C343      1.0  0.75425  0.41196  0.61866  1.0000
  C   C344      1.0  0.71901  0.39811  0.63815  1.0000
  C   C345      1.0  0.70513  0.36945  0.67394  1.0000
  H   H598      1.0  0.77767  0.35580  0.68283  1.0000
  H   H599      1.0  0.80266  0.40708  0.62082  1.0000
  H   H600      1.0  0.70278  0.41008  0.62655  1.0000
  H   H601      1.0  0.67802  0.35939  0.68923  1.0000
  H   H602      1.0  0.65891  0.25999  0.94809  1.0000
  H   H603      1.0  0.65605  0.24199  0.55374  1.0000
  H   H604      1.0  0.69652  0.01695  0.66751  1.0000
  H   H605      1.0  0.82781  0.08636  0.53674  1.0000
  H   H606      1.0  0.76242  0.07166  0.70364  1.0000
  H   H607      1.0  0.81054  0.06753  0.67219  1.0000
  C   C346      1.0  0.74628  0.09653  0.79211  1.0000
  H   H608      1.0  0.77291  0.13633  0.66088  1.0000
  H   H609      1.0  0.74227  0.40934  0.77811  1.0000
  H   H610      1.0  0.71784  0.47193  0.65832  1.0000
  C   C347      1.0  0.72550  0.05984  0.76442  1.0000
  C   C348      1.0  0.66886  0.08480  0.63593  1.0000
  C   C349      1.0  0.77592  0.17038  0.54042  1.0000
  C   C350      1.0  0.77122  0.20101  0.56372  1.0000
  H   H611      1.0  0.77229  0.45286  0.80736  1.0000
  H   H612      1.0  0.70629  0.06184  0.73756  1.0000
  H   H613      1.0  0.75129  0.20522  0.54155  1.0000
  Fe  Fe37      1.0  0.69238  0.00493  0.52188  1.0000
  H   H614      1.0  0.85067  0.04899  0.63337  1.0000
  C   C351      1.0  0.75201  0.05109  0.73473  1.0000
  H   H615      1.0  0.65341  0.42391  0.65605  1.0000
  H   H616      1.0  0.72669  0.00181  0.82415  1.0000
  H   H617      1.0  0.76382  0.09518  0.82236  1.0000
  H   H618      1.0  0.69891  0.13866  0.92810  1.0000
  S   S77       1.0  0.66932  0.03393  0.57043  1.0000
  C   C352      1.0  0.72042  0.13927  0.95293  1.0000
  C   C353      1.0  0.83424  0.11305  0.55368  1.0000
  H   H619      1.0  0.81368  0.10863  0.58318  1.0000
  H   H620      1.0  0.72661  0.10349  0.80966  1.0000
  H   H621      1.0  0.74908  0.14505  0.54128  1.0000
  H   H622      1.0  0.77613  0.05812  0.75920  1.0000
  C   C354      1.0  0.67417  0.47438  0.69963  1.0000
  H   H623      1.0  0.81594  0.00142  0.63442  1.0000
  Fe  Fe38      1.0  0.74354  0.47014  0.52498  1.0000
  C   C355      1.0  0.75892  0.01507  0.66699  1.0000
  H   H624      1.0  0.72622  0.25591  0.96333  1.0000
  H   H625      1.0  0.79779  0.22700  0.56526  1.0000
  C   C356      1.0  0.74497  0.43595  0.78978  1.0000
  H   H626      1.0  0.86150  0.12516  0.57199  1.0000
  C   C357      1.0  0.74082  0.45520  0.74344  1.0000
  H   H627      1.0  0.71613  0.28830  0.63109  1.0000
  H   H628      1.0  0.67216  0.46043  0.73591  1.0000
  H   H629      1.0  0.71480  0.11075  0.95771  1.0000
  C   C358      1.0  0.82079  0.02976  0.63087  1.0000
  H   H630      1.0  0.84388  0.16600  0.52986  1.0000
  H   H631      1.0  0.76070  0.19354  0.60299  1.0000
  C   C359      1.0  0.84623  0.21858  0.97216  1.0000
  H   H632      1.0  0.73596  0.33240  0.51532  1.0000
  N   N20       1.0  0.65935  0.31127  0.51970  1.0000
  H   H633      1.0  0.72339  0.43045  0.81811  1.0000
  H   H634      1.0  0.81104  0.03286  0.59321  1.0000
  H   H635      1.0  0.70355  0.36616  0.53573  1.0000
  S   S78       1.0  0.75212  0.02341  0.51723  1.0000
  H   H636      1.0  0.67999  0.99763  0.72747  1.0000
  H   H637      1.0  0.79445  0.16607  0.56558  1.0000
  H   H638      1.0  0.76870  0.99983  0.76436  1.0000
  H   H639      1.0  0.70909  0.03864  0.79267  1.0000
  C   C360      1.0  0.80119  0.03778  0.67331  1.0000
  H   H640      1.0  0.81044  0.03205  0.70957  1.0000
  H   H641      1.0  0.76230  0.45917  0.71588  1.0000
  N   N21       1.0  0.73667  0.01284  0.71321  1.0000
  C   C361      1.0  0.69295  0.34634  0.50373  1.0000
  H   H642      1.0  0.77570  0.11083  0.51576  1.0000
  H   H643      1.0  0.66720  0.12414  0.68738  1.0000
  H   H644      1.0  0.69814  0.24069  0.61605  1.0000
  C   C362      1.0  0.69767  0.99816  0.69614  1.0000
  H   H645      1.0  0.65862  0.37341  0.56430  1.0000
  H   H646      1.0  0.68611  0.32081  0.59291  1.0000
  H   H647      1.0  0.66941  0.25516  0.64697  1.0000
  H   H648      1.0  0.77565  0.31980  0.98271  1.0000
  H   H649      1.0  0.73276  0.31723  0.96846  1.0000
  C   C363      1.0  0.85889  0.28909  0.99004  1.0000
  C   C364      1.0  0.67901  0.26879  0.56650  1.0000
  C   C365      1.0  0.83491  0.13880  0.51257  1.0000
  H   H650      1.0  0.72109  0.48654  0.78472  1.0000
  Fe  Fe39      1.0  0.74764  0.51947  0.43493  1.0000
  H   H651      1.0  0.73968  0.71765  0.07159  1.0000
  S   S79       1.0  0.77485  0.56328  0.37253  1.0000
  Fe  Fe40      1.0  0.67072  0.93911  0.44771  1.0000
  H   H652      1.0  0.80538  0.56232  0.20613  1.0000
  S   S80       1.0  0.72991  0.95505  0.43888  1.0000
  Fe  Fe41      1.0  0.94575  0.69189  0.18859  1.0000
  S   S81       1.0  0.92597  0.73230  0.18924  1.0000
  S   S82       1.0  0.91588  0.63572  0.22783  1.0000
  Fe  Fe42      1.0  0.93562  0.73680  0.10475  1.0000
  S   S83       1.0  0.89448  0.72199  0.03950  1.0000
  S   S84       1.0  0.95307  0.69424  0.10389  1.0000
  H   H653      1.0  0.78416  0.62631  0.10173  1.0000
  C   C366      1.0  0.84597  0.62009  0.10542  1.0000
  H   H654      1.0  0.74722  0.83906  0.48638  1.0000
  H   H655      1.0  0.72231  0.67369  0.04029  1.0000
  H   H656      1.0  0.74416  0.64930  0.11108  1.0000
  H   H657      1.0  0.89050  0.78947  0.05257  1.0000
  C   C367      1.0  0.81581  0.58388  0.33558  1.0000
  C   C368      1.0  0.83547  0.56603  0.32477  1.0000
  C   C369      1.0  0.86598  0.58235  0.29195  1.0000
  C   C370      1.0  0.87762  0.61688  0.26989  1.0000
  C   C371      1.0  0.85819  0.63489  0.28114  1.0000
  C   C372      1.0  0.82754  0.61846  0.31360  1.0000
  H   H658      1.0  0.82689  0.53944  0.34107  1.0000
  H   H659      1.0  0.88076  0.56813  0.28363  1.0000
  H   H660      1.0  0.86686  0.66153  0.26493  1.0000
  H   H661      1.0  0.81293  0.63281  0.32211  1.0000
  N   N22       1.0  0.79713  0.67427  0.14731  1.0000
  C   C373      1.0  0.78276  0.65684  0.19826  1.0000
  C   C374      1.0  0.83028  0.71150  0.15566  1.0000
  C   C375      1.0  0.80845  0.65173  0.11567  1.0000
  C   C376      1.0  0.83460  0.64086  0.14174  1.0000
  C   C377      1.0  0.82332  0.74118  0.17940  1.0000
  C   C378      1.0  0.85920  0.77729  0.18580  1.0000
  C   C379      1.0  0.73992  0.60088  0.25014  1.0000
  H   H662      1.0  0.77356  0.67320  0.22043  1.0000
  H   H663      1.0  0.80492  0.65719  0.22158  1.0000
  H   H664      1.0  0.84986  0.70916  0.18123  1.0000
  H   H665      1.0  0.84551  0.72265  0.11964  1.0000
  H   H666      1.0  0.82141  0.62295  0.17484  1.0000
  H   H667      1.0  0.85992  0.66535  0.15479  1.0000
  H   H668      1.0  0.80524  0.74678  0.15520  1.0000
  H   H669      1.0  0.81067  0.73270  0.21734  1.0000
  H   H670      1.0  0.87270  0.78749  0.14855  1.0000
  H   H671      1.0  0.85371  0.79823  0.20263  1.0000
  H   H672      1.0  0.87810  0.77370  0.21131  1.0000
  H   H673      1.0  0.76156  0.59588  0.26507  1.0000
  H   H674      1.0  0.73616  0.61933  0.27645  1.0000
  H   H675      1.0  0.71404  0.57430  0.24875  1.0000
  H   H676      1.0  0.85248  0.81119  0.00926  1.0000
  C   C380      1.0  0.75815  0.51345  0.23437  1.0000
  H   H677      1.0  0.69282  0.53160  0.33464  1.0000
  H   H678      1.0  0.76589  0.54481  0.16530  1.0000
  H   H679      1.0  0.75556  0.59879  0.17372  1.0000
  C   C381      1.0  0.74677  0.70108  0.04621  1.0000
  H   H680      1.0  0.73138  0.88490  0.41127  1.0000
  H   H681      1.0  0.77055  0.87864  0.41227  1.0000
  H   H682      1.0  0.68492  0.50770  0.24543  1.0000
  H   H683      1.0  0.79272  0.52212  0.16852  1.0000
  S   S85       1.0  0.68749  0.50088  0.44343  1.0000
  H   H684      1.0  0.72528  0.61697  0.18145  1.0000
  H   H685      1.0  0.78524  0.68217  0.04069  1.0000
  C   C382      1.0  0.76733  0.67707  0.11981  1.0000
  C   C383      1.0  0.74978  0.61718  0.19703  1.0000
  H   H686      1.0  0.80199  0.72547  0.07237  1.0000
  H   H687      1.0  0.86084  0.63754  0.07244  1.0000
  H   H688      1.0  0.66940  0.77106  0.46974  1.0000
  C   C384      1.0  0.78182  0.53700  0.19065  1.0000
  C   C385      1.0  0.66583  0.51100  0.31897  1.0000
  C   C386      1.0  0.77826  0.69750  0.06845  1.0000
  H   H689      1.0  0.82259  0.66692  0.08072  1.0000
  H   H690      1.0  0.82172  0.59456  0.09196  1.0000
  C   C387      1.0  0.87155  0.77297  0.02320  1.0000
  H   H691      1.0  0.75556  0.69006  0.14444  1.0000
  H   H692      1.0  0.86459  0.61273  0.12532  1.0000
  H   H693      1.0  0.74927  0.53017  0.25616  1.0000
  H   H694      1.0  0.77587  0.50778  0.25920  1.0000
  H   H695      1.0  0.68374  0.85494  0.47660  1.0000
  H   H696      1.0  0.76354  0.90282  0.46344  1.0000
  H   H697      1.0  0.92315  0.96238  0.13088  1.0000
  H   H698      1.0  0.95766  0.65966  0.00478  1.0000
  C   C388      1.0  0.93816  0.98734  0.15465  1.0000
  C   C389      1.0  0.86853  0.73947  0.00966  1.0000
  H   H699      1.0  0.93306  0.97908  0.19507  1.0000
  C   C390      1.0  0.72745  0.84357  0.46438  1.0000
  H   H700      1.0  0.71414  0.82165  0.43554  1.0000
  H   H701      1.0  0.75498  0.71509  0.00899  1.0000
  C   C391      1.0  0.84996  0.78524  0.99848  1.0000
  H   H702      1.0  0.91822  0.66592  0.00050  1.0000
  C   C392      1.0  0.74952  0.87976  0.43620  1.0000
  H   H703      1.0  0.65222  0.52567  0.30367  1.0000
  Fe  Fe43      1.0  0.73367  0.96294  0.52363  1.0000
  S   S86       1.0  0.67447  0.94513  0.53285  1.0000
  S   S87       1.0  0.76253  0.93971  0.57187  1.0000
  Fe  Fe44      1.0  0.69862  0.50861  0.52746  1.0000
  S   S88       1.0  0.67230  0.53107  0.58248  1.0000
  H   H704      1.0  0.71302  0.79183  0.53459  1.0000
  Fe  Fe45      1.0  0.71639  0.77695  0.78431  1.0000
  S   S89       1.0  0.67490  0.71761  0.77040  1.0000
  S   S90       1.0  0.70339  0.81921  0.74828  1.0000
  Fe  Fe46      1.0  0.75385  0.75509  0.86921  1.0000
  S   S91       1.0  0.71350  0.69491  0.86071  1.0000
  S   S92       1.0  0.79815  0.78096  0.93080  1.0000
  Fe  Fe47      1.0  0.72135  0.70583  0.77634  1.0000
  S   S93       1.0  0.73987  0.67609  0.72049  1.0000
  Fe  Fe48      1.0  0.67052  0.71207  0.85562  1.0000
  H   H705      1.0  0.72872  0.82818  0.95328  1.0000
  S   S94       1.0  0.76359  0.76603  0.78535  1.0000
  S   S95       1.0  0.71022  0.77118  0.86919  1.0000
  C   C393      1.0  0.82511  0.76429  0.95999  1.0000
  H   H706      1.0  0.71937  0.78375  0.65058  1.0000
  C   C394      1.0  0.90855  0.76453  0.87807  1.0000
  H   H707      1.0  0.71417  0.86694  0.52807  1.0000
  H   H708      1.0  0.96272  0.77996  0.94767  1.0000
  C   C395      1.0  0.69166  0.57172  0.62023  1.0000
  H   H709      1.0  0.67847  0.93896  0.69994  1.0000
  C   C396      1.0  0.68324  0.60853  0.68564  1.0000
  C   C397      1.0  0.72005  0.63567  0.68216  1.0000
  C   C398      1.0  0.74253  0.63042  0.64769  1.0000
  C   C399      1.0  0.72847  0.59884  0.61677  1.0000
  H   H710      1.0  0.98061  0.79570  0.88585  1.0000
  N   N23       1.0  0.67310  0.80971  0.52688  1.0000
  H   H711      1.0  0.77102  0.65118  0.64451  1.0000
  H   H712      1.0  0.74603  0.59573  0.58986  1.0000
  C   C400      1.0  0.72049  0.85219  0.69857  1.0000
  C   C401      1.0  0.69915  0.86736  0.68216  1.0000
  C   C402      1.0  0.71120  0.89350  0.64287  1.0000
  C   C403      1.0  0.74536  0.90577  0.62041  1.0000
  C   C404      1.0  0.76689  0.89095  0.63722  1.0000
  C   C405      1.0  0.75444  0.86408  0.67566  1.0000
  H   H713      1.0  0.96410  0.73107  0.98560  1.0000
  H   H714      1.0  0.69402  0.90400  0.62984  1.0000
  H   H715      1.0  0.79340  0.90019  0.62025  1.0000
  H   H716      1.0  0.77134  0.85294  0.68797  1.0000
  H   H717      1.0  0.71894  0.75329  0.60179  1.0000
  H   H718      1.0  0.92238  0.78496  0.84755  1.0000
  H   H719      1.0  0.68596  0.73578  0.65227  1.0000
  H   H720      1.0  0.73703  0.59799  0.79600  1.0000
  H   H721      1.0  0.97126  0.67693  0.91393  1.0000
  H   H722      1.0  0.92010  0.63094  0.96360  1.0000
  C   C406      1.0  0.93665  0.65912  0.97894  1.0000
  C   C407      1.0  0.76877  0.57255  0.77170  1.0000
  H   H723      1.0  0.66132  0.79885  0.94256  1.0000
  H   H724      1.0  0.70071  0.94098  0.86316  1.0000
  H   H725      1.0  0.78500  0.62364  0.81147  1.0000
  H   H726      1.0  0.66170  0.83971  0.95992  1.0000
  H   H727      1.0  0.80324  0.71437  0.91700  1.0000
  H   H728      1.0  0.79671  0.58235  0.75707  1.0000
  C   C408      1.0  0.71613  0.97767  0.79870  1.0000
  C   C409      1.0  0.66270  0.82404  0.92674  1.0000
  C   C410      1.0  0.73895  0.54603  0.73423  1.0000
  C   C411      1.0  0.67512  0.76642  0.59559  1.0000
  H   H729      1.0  0.79460  0.58669  0.66885  1.0000
  C   C412      1.0  0.69616  0.79923  0.55888  1.0000
  C   C413      1.0  0.84380  0.71857  0.97110  1.0000
  H   H730      1.0  0.77041  0.62272  0.74730  1.0000
  C   C414      1.0  0.82218  0.73081  0.94647  1.0000
  H   H731      1.0  0.84123  0.69264  0.96020  1.0000
  H   H732      1.0  0.88040  0.74469  0.86526  1.0000
  H   H733      1.0  0.75207  0.98716  0.65406  1.0000
  H   H734      1.0  0.76606  0.55851  0.80831  1.0000
  H   H735      1.0  0.73647  0.56204  0.70255  1.0000
  H   H736      1.0  0.65722  0.74089  0.57436  1.0000
  H   H737      1.0  0.90655  0.77872  0.91239  1.0000
  H   H738      1.0  0.68710  0.96793  0.78967  1.0000
  H   H739      1.0  0.76718  0.55415  0.62147  1.0000
  H   H740      1.0  0.72919  0.86883  0.97658  1.0000
  C   C415      1.0  0.92930  0.74427  0.88971  1.0000
  C   C416      1.0  0.76494  0.60616  0.78223  1.0000
  H   H741      1.0  0.84788  0.58007  0.64505  1.0000
  H   H742      1.0  0.93009  0.73062  0.85429  1.0000
  H   H743      1.0  0.80305  0.53919  0.71347  1.0000
  H   H744      1.0  0.83014  0.59303  0.59177  1.0000
  H   H745      1.0  0.67279  0.85834  0.69943  1.0000
  H   H746      1.0  0.70561  0.87611  0.89394  1.0000
  H   H747      1.0  0.71583  0.82315  0.58212  1.0000
  C   C417      1.0  0.78958  0.56144  0.64879  1.0000
  N   N24       1.0  0.74393  0.51530  0.71409  1.0000
  C   C418      1.0  0.95476  0.68611  0.93556  1.0000
  S   S96       1.0  0.75875  0.52970  0.51893  1.0000
  C   C419      1.0  0.69882  0.84487  0.49980  1.0000
  H   H748      1.0  0.66556  0.61199  0.71195  1.0000
  C   C420      1.0  0.67860  0.95918  0.67304  1.0000
  H   H749      1.0  0.91327  0.72327  0.91871  1.0000
  H   H750      1.0  0.93284  0.68376  0.91030  1.0000
  H   H751      1.0  0.76898  0.50772  0.78087  1.0000
  H   H752      1.0  0.71361  0.51046  0.64575  1.0000
  C   C421      1.0  0.70158  0.75953  0.62678  1.0000
  H   H753      1.0  0.66102  0.82512  0.59968  1.0000
  C   C422      1.0  0.77983  0.52969  0.68645  1.0000
  H   H754      1.0  0.74587  0.95550  0.83923  1.0000
  H   H755      1.0  0.70629  0.83704  0.86937  1.0000
  H   H756      1.0  0.71262  0.53495  0.75494  1.0000
  H   H757      1.0  0.70609  0.92171  0.80497  1.0000
  C   C423      1.0  0.66923  0.57680  0.65497  1.0000
  H   H758      1.0  0.65714  0.79926  0.83289  1.0000
  H   H759      1.0  0.75852  0.87193  0.92489  1.0000
  C   C424      1.0  0.82419  0.57073  0.61908  1.0000
  C   C425      1.0  0.70147  0.84875  0.90399  1.0000
  H   H760      1.0  0.78018  0.50722  0.66454  1.0000
  C   C426      1.0  0.73117  0.85473  0.94217  1.0000
  H   H761      1.0  0.97537  0.72055  0.85053  1.0000
  C   C427      1.0  0.71735  0.94709  0.82819  1.0000
  H   H762      1.0  0.73462  0.96174  0.73171  1.0000
  H   H763      1.0  0.82056  0.54647  0.59746  1.0000
  H   H764      1.0  0.65803  0.77144  0.62272  1.0000
  H   H765      1.0  0.69270  0.95885  0.63794  1.0000
  C   C428      1.0  0.97942  0.72582  0.95545  1.0000
  C   C429      1.0  0.71341  0.49301  0.67729  1.0000
  C   C430      1.0  0.74012  0.98767  0.75063  1.0000
  H   H766      1.0  0.66142  0.87195  0.54754  1.0000
  C   C431      1.0  0.96794  0.77096  0.91051  1.0000
  C   C432      1.0  0.74365  0.49224  0.75792  1.0000
  H   H767      1.0  0.66575  0.49518  0.70616  1.0000
  H   H768      1.0  0.65412  0.85501  0.83341  1.0000
