data_image0
_chemical_formula_structural       FeS2FeS2FeSFeS3CFeS2FeSFeSFeS3HSCHFeSFeSH3C6H5C5H5C6H6C3HCH8CH2NSH8CHCH2NH3CHCH3CH3C3HCH5CHCH4FeH2C2H2NH3C2H5NH2C5H2CH5CH6C3HCH3C5H2CHC3H3CHCH3C6HCHCHCH2CH4CH4CH4CH2C2HS3H3CH3NHC2H2CHCHCH4C3H2CH2CHCH2CFeS2FeS2FeSFeS3CFeS2FeSFeSFeS3CSCNFeSCH4C6H3CH2SCH2CH2CHC6H6C2H2C2H2CNHC3H4CH2CH2CH3CH2FeH4CHC2H2CH2CH4CH2CHC2NHC4H9C2HCHCHCH2CH3CH3CHSCNH2CH6CHCNHCH6C2H3CHCH2CH2C2H2CH3NH3CH4CH3CH4C2H9C4H3C2H4SCHCH4C2H2CHC3H2CH2C3HCH3C3H4C3H3SH2CH2CH3CHSHC2HCHFeSH4C6H7CHCH5CHNCHC3H5C2HSH7CH2CH3C2HC2HCSHSCSFeSCSHC7H4NC4H2C5H9SH12C2H7FeCSH2C2H4CH2CH6C2SC5H2CHCH3CNH3CH2CH2CHSCH2CH4CHCH2CHCH6CHSC2HC3HCH8CHC3H7CH2CHC3FeSHFeS2FeSFeS3HSFeS2FeSFeSCSFeS2FeSFeHFeHS2CH3CH2CH3CH2CHC6H5CHCH2CH3C6H5CSHC3H4CHCNHCH2CH2CH5CH2NHCH3CH12CH5C2H2CH2CH4SCHC2H4SCHCHC3HCHCH8CH4CHFeHCH2C2H4CH2CH2SHCNH6C3H3CH6CH5CHCHCHCH2CH5FeSCFeS2FeSFeS3HSFeS2FeSFeS3FeS2FeSFeH3S2CH4CH5CH2CHC6H4C2HCNC2H3C6H5CNH13CH3CHCH2C2H2C2HC2HCH3CH2CH7CH3C2H3NC9NC2H9CH8CHCHFeH2CH2CHC2H2C4HCH7CHNH3CHC2HCH6NH4CH2CH2NHC2H11SCH2CH2CFeCHCHCHC2H4C2HCH2CH3C4HCHCHCHCHC2H2CH6C2HCHC2H6CH9C6H2CSH5CH3CH4C2H3NC6H2CH3CH3CH3CSH3C3H3C2H4SH8FeS2FeSFeCFeHS2FeS2FeSFeSFeS3FeS2FeSFeSFeS3C5H5C6H4C3HC6H5C3H7CH2CH3CHCH2CHCH4CH3CH3NCH4CH4CH7C3SH2CHCH9C2H7C2H3C2H4CHCH3CHC4SH2CH2CHCHCHC2H5CHCH7C2H4NH3CNH4C2HCH3C2HCNH2C3H6C2H2CH3C2HCH4CH2CH2NHCHC2H2C2H3C3H2NCH10CFeS2FeSFeH3S2FeS2FeSFeSFeS3FeS2FeSFeSFeS3CHC2H6C6H4C3HC6H5C3H6CHC5H8C2H3NHC2H2CHCH3FeH4CH6C2H2NC12H22NH7CHC2H4NC5NH5C5H3CH4C4HCH7CHC2H8C2HSCHCHCHC3H2CH5C2H7C3HCHCH2CH4CH15FeSFeS2FeSFeS3FeSFeSH2S2FeS2FeS2FeSFeHS3C3H2C4H4C3HC6H4CHC2HCH4C6H4C3HNC5HC2SH5CH2CHNH6CHC5H14CSHC2H5C3H2CHC2HCHC2H2CH6CHCH2CH6FeHC6H7CH4CHCHCHSNH2C2HCH9CH3C2H4C2H5CH5CH6C3HCH6CH3CHCH2CH9CFeSFeS2FeSFeS3FeSHSHNSCFeS2FeS2FeSFeS3H2CH2CHCH3CHC4HC6H4C6HCH2C6H6CH2CHCH2C3H5CHCH2CH2CH3CH3CH2CH2C2H5C3HNH6C3H2CHNHCH2SH3CH5CHCH3C2HCHCHC2H2CH3CH2C2H3CHCH2CH4C3HCHC2HNH2CH2FeHCHCH2C3H3NH3CH3CH3CH2CHC2H3CH3CH2CH2CH3C2H2NCH2CH3CNCH3CHCH3CS2H9C3H2SH7FeH2SC6H8NH2CH3C4H2C2HC2H7C2HCH2CHCH2SHCH4CHCHNH2C2SC6H4CH3C3H2CFeCH2SHCHCH4SH4CH4CH2CH5SNFeH2SHC4HCH4C2H5SH2C2H10CHCHC2H3C2H4CHC2H3C4H2CSHC2H4CH3CHCH6NFeSHFeSCFeSFeS2FeS2FeSFeSFeS3FeS2FeS2Fe2S3NC4H2CH2CH2C7H4C6H4C2H5CHCHC2H2C2HC3HCH2CH4CH5CHNC2H7C3HCH4NH6CH2CHC2H3CH7CHNC6HC4H6NH4C2H16CH3C5H6CHCH10CHCHSHCH2CHCH2SH5C2H3CHSH3CH3C2HCH7C4H8CH4C3H3C2FeSCFeSHFeSFeS2FeS2FeSFeSFeS3FeS2FeS2Fe2S3HCH2CHC3HCHC8H4C6H5CH3C2HC2H4C3HSCH4NC12H32CH3CH2CH2CH5CH2CHCHCH6CH4C3H2C4H3CH16CH2NCH6C3HC4H7NHC3H8CNH2SCH4CH4FeSFeS2FeSFeS3H2SCFeSFeSFeS2FeS2FeSFeS3HC2HC2HC5HCHCH6SC6H4C6H4CH2CH4CH3C2H3C2H2SCH5CNHCH3NH9C2HC2H5CH3NC3HC3FeH8CSH9CH8CH4CH2CH4CH3C2H3C3H3NC3HC2H4CNHC2HC2HC3H3CH2CHCHCHCHCH3CH2CH2CHCH6C3H2CH3CHCNHCHFeSFeS2FeSFeS3HCSH2SCSFeS2FeS2FeSFeS3H4CH2C4H3C2H4CH2C6H4C6H4CHC2H4CHCH6CH4C2H2CH3C2H5CHCH2SH2CHCHCH3CH5SH2C2HCHCH8FeCH2CH2FeC2HCNHNCH3CH5SH3CH2CHC3HSCH2C2H6CH3C2HC2HCNH5CHC2HC2HCH2CHCHC3HC2H5CH3C2FeH4CH3CH5CH2SHSC7H7NHCH3CH5CH2CH3C2SCHCH8C2H2CHSFeCH2CH3CSHFeSHC8H4C2H4SHNH5CH5C2HCSH7CHCH7CH2C2HSHC2H2CHCH3CHCH3CFeS2FeS2FeSFeS3HFeSFeS2FeSFeS3HCSCFeSFeSC4H4CHC6H6CHC6H4C3H2C2H4C2HCH3CHCHNC4HC3H2CH3CH5NCH12C2H3C4H4C2H4CHC2H2CH8CH4C2H3C2H5CHCNH2C2HCHCH5CH3C2H2CH6SH3C4HC2HC2H5CHNHCH3CHCH3C2HC3HCHC2HFeH3CHCH2CHCH4CH4CH5CH4CH2CH2CHCH2CH8NCHCH2CSCH2NFeS2FeS2FeSFeS3HFeSFeS2FeSFeS3H2SC2HFeSCHC2HCH2CHC6NCH2CSH2C6H4C4H2C3H3CHCH3CH2CH3C2HCH3CH4SH7CHCH8CH9C2H6CH2SHC2NCH5C2H3CHC4H3CH3CH3C2H5CHC2HSHCH4CH2FeCHCH4CHCH2C2HC4H2CH2C2H3CH4NHCH2CH5CHCH3FeH2CSHCH2C6H3CH2SH2CH7SC2HCNH2CH3CHC2H4FeH2CHCH5C2HFeS2C2HC6H3NCH3C2H5CNHCH3CH3CHCHCH7C2HCHC3H3CH7SCH2CH7CHNCH3C2HSHSC2HCH3C8H3C2HSH3NH2CH4CH3CH8CH2C5HSH3C2HCHCH4CHCH3C2H5FeSFeS2FeSFeS3CSFeSHFeSFeSCHFeS2FeSFeHFeCS2CHCHC2HCH3C7H4C2HCHC2H3C6H4CH4SH3CH3C2HCH6CHCH5C2HSCH2CH2C2HCH2C2H3CSCH3CH6CHCFeSH2CH2C5H6C3H7NCH2C2HC2H5NHCHSHCH4CHNH5CH3NH4C5H5C3HCH5CH3CH3CH2CH2CH4CHNH2C4H6CHCH2CH2CH2C3SH2CH3FeSFeS2FeSFeS3HSFeS2FeSFeS3FeS2FeSFeSFeHS2C3NC4H4C6H4CH4CH4C6H4C3H2CHCH7C3H8CH2C3H6CNH5C2HCHCH5C2H5CHC2HC2HC4HC2HCH3CH2CNH3CH2C2SC2H2CH8C2HFeHC2HCH5CH2CHC3HCH3CHCH5CH2C4H4CH2CH11CH2NH8CH3CHCHCH13CH2NCNCHCHC2NH
_chemical_formula_sum              "Fe192 S384 C1728 H3072 N96"
_cell_length_a       58.9267
_cell_length_b       89.6343
_cell_length_c       48.995
_cell_angle_alpha    89.6251
_cell_angle_beta     89.8344
_cell_angle_gamma    88.2411

_space_group_name_H-M_alt    "P 1"
_space_group_IT_number       1

loop_
  _space_group_symop_operation_xyz
  'x, y, z'

loop_
  _atom_site_type_symbol
  _atom_site_label
  _atom_site_symmetry_multiplicity
  _atom_site_fract_x
  _atom_site_fract_y
  _atom_site_fract_z
  _atom_site_occupancy
  Fe  Fe1       1.0  0.08615  0.01260  0.37229  1.0000
  S   S1        1.0  0.07314  0.03656  0.37361  1.0000
  S   S2        1.0  0.07822  0.99725  0.40910  1.0000
  Fe  Fe2       1.0  0.09971  0.01547  0.31072  1.0000
  S   S3        1.0  0.08794  0.03962  0.30893  1.0000
  S   S4        1.0  0.11749  0.00589  0.27235  1.0000
  Fe  Fe3       1.0  0.10443  0.04252  0.34990  1.0000
  S   S5        1.0  0.12872  0.06095  0.36297  1.0000
  Fe  Fe4       1.0  0.05780  0.03187  0.33280  1.0000
  S   S6        1.0  0.02253  0.03923  0.31947  1.0000
  S   S7        1.0  0.11849  0.01865  0.35049  1.0000
  S   S8        1.0  0.06846  0.00765  0.33240  1.0000
  C   C1        1.0  0.08217  0.98041  0.48707  1.0000
  Fe  Fe5       1.0  0.15488  0.15426  0.35281  1.0000
  S   S9        1.0  0.13143  0.17484  0.35316  1.0000
  S   S10       1.0  0.13504  0.13235  0.34845  1.0000
  Fe  Fe6       1.0  0.19729  0.17403  0.35677  1.0000
  S   S11       1.0  0.17610  0.19506  0.35668  1.0000
  Fe  Fe7       1.0  0.15356  0.18337  0.38664  1.0000
  S   S12       1.0  0.14263  0.19855  0.42207  1.0000
  Fe  Fe8       1.0  0.15586  0.18479  0.32325  1.0000
  S   S13       1.0  0.14439  0.20124  0.28964  1.0000
  S   S14       1.0  0.17564  0.16247  0.38829  1.0000
  S   S15       1.0  0.17848  0.16409  0.32109  1.0000
  H   H1        1.0  0.00474  0.99606  0.14080  1.0000
  S   S16       1.0  0.09831  0.19378  0.09583  1.0000
  C   C2        1.0  0.20732  0.20905  0.41586  1.0000
  H   H2        1.0  0.22046  0.19333  0.01798  1.0000
  Fe  Fe9       1.0  0.12085  0.20428  0.06464  1.0000
  S   S17       1.0  0.13560  0.18912  0.03130  1.0000
  Fe  Fe10      1.0  0.11975  0.20410  0.12786  1.0000
  S   S18       1.0  0.13074  0.18877  0.16292  1.0000
  H   H3        1.0  0.06183  0.02645  0.46542  1.0000
  H   H4        1.0  0.12853  0.21998  0.24570  1.0000
  H   H5        1.0  0.14591  0.07967  0.46022  1.0000
  C   C3        1.0  0.14100  0.19760  0.25441  1.0000
  C   C4        1.0  0.14632  0.18362  0.24324  1.0000
  C   C5        1.0  0.14325  0.18120  0.21513  1.0000
  C   C6        1.0  0.13490  0.19270  0.19791  1.0000
  C   C7        1.0  0.12968  0.20671  0.20902  1.0000
  C   C8        1.0  0.13274  0.20915  0.23715  1.0000
  H   H6        1.0  0.15268  0.17466  0.25630  1.0000
  H   H7        1.0  0.14728  0.17030  0.20672  1.0000
  H   H8        1.0  0.20037  0.14910  0.43862  1.0000
  H   H9        1.0  0.17793  0.05337  0.34370  1.0000
  H   H10       1.0  0.13115  0.06277  0.42482  1.0000
  C   C9        1.0  0.99323  0.20277  0.10121  1.0000
  C   C10       1.0  0.13369  0.18052  0.46730  1.0000
  C   C11       1.0  0.13516  0.19498  0.45663  1.0000
  C   C12       1.0  0.13094  0.20719  0.47402  1.0000
  C   C13       1.0  0.03294  0.19098  0.19943  1.0000
  H   H11       1.0  0.03004  0.19835  0.21742  1.0000
  H   H12       1.0  0.13670  0.17103  0.45413  1.0000
  H   H13       1.0  0.00110  0.99762  0.08887  1.0000
  H   H14       1.0  0.18239  0.18335  0.44513  1.0000
  H   H15       1.0  0.14339  0.02223  0.45117  1.0000
  C   C14       1.0  0.12994  0.08086  0.35916  1.0000
  C   C15       1.0  0.11127  0.08976  0.35081  1.0000
  C   C16       1.0  0.11323  0.10539  0.34765  1.0000
  C   C17       1.0  0.13376  0.11249  0.35314  1.0000
  C   C18       1.0  0.15235  0.10359  0.36192  1.0000
  C   C19       1.0  0.15042  0.08794  0.36489  1.0000
  H   H16       1.0  0.09526  0.08463  0.34678  1.0000
  H   H17       1.0  0.09866  0.11209  0.34103  1.0000
  H   H18       1.0  0.16825  0.10878  0.36632  1.0000
  H   H19       1.0  0.16500  0.08127  0.37158  1.0000
  H   H20       1.0  0.08357  0.20838  0.18725  1.0000
  H   H21       1.0  0.11246  0.04193  0.41348  1.0000
  C   C20       1.0  0.11164  0.99382  0.44970  1.0000
  C   C21       1.0  0.08904  0.99188  0.44204  1.0000
  C   C22       1.0  0.00087  0.03557  0.34307  1.0000
  H   H22       1.0  0.12332  0.99856  0.43527  1.0000
  C   C23       1.0  0.10709  0.99445  0.24553  1.0000
  H   H23       1.0  0.15353  0.04983  0.20914  1.0000
  H   H24       1.0  0.07088  0.16520  0.15512  1.0000
  H   H25       1.0  0.17303  0.03313  0.29383  1.0000
  H   H26       1.0  0.14283  0.01491  0.40261  1.0000
  H   H27       1.0  0.19279  0.03585  0.33736  1.0000
  H   H28       1.0  0.05184  0.21970  0.15758  1.0000
  H   H29       1.0  0.06523  0.21053  0.21601  1.0000
  H   H30       1.0  0.01189  0.02636  0.02825  1.0000
  C   C24       1.0  0.19727  0.21640  0.16057  1.0000
  H   H31       1.0  0.02323  0.02588  0.37350  1.0000
  H   H32       1.0  0.16251  0.03623  0.34254  1.0000
  N   N1        1.0  0.10350  0.04236  0.45648  1.0000
  S   S19       1.0  0.14430  0.21282  0.09680  1.0000
  H   H33       1.0  0.18106  0.19551  0.17045  1.0000
  H   H34       1.0  0.08945  0.17412  0.27231  1.0000
  H   H35       1.0  0.15070  0.02197  0.21046  1.0000
  H   H36       1.0  0.21516  0.16291  0.47863  1.0000
  H   H37       1.0  0.03033  0.98545  0.13454  1.0000
  H   H38       1.0  0.13219  0.08963  0.43245  1.0000
  H   H39       1.0  0.01230  0.18495  0.16389  1.0000
  H   H40       1.0  0.12389  0.07265  0.24478  1.0000
  C   C25       1.0  0.13941  0.04470  0.22052  1.0000
  H   H41       1.0  0.03003  0.17952  0.20735  1.0000
  C   C26       1.0  0.08560  0.98828  0.24659  1.0000
  H   H42       1.0  0.16186  0.03669  0.25198  1.0000
  H   H43       1.0  0.03820  0.02752  0.04665  1.0000
  N   N2        1.0  0.14669  0.05750  0.26704  1.0000
  H   H44       1.0  0.13202  0.21842  0.46599  1.0000
  H   H45       1.0  0.10272  0.16795  0.24107  1.0000
  H   H46       1.0  0.15028  0.04096  0.44156  1.0000
  C   C27       1.0  0.07443  0.98512  0.46098  1.0000
  H   H47       1.0  0.12287  0.02949  0.48639  1.0000
  C   C28       1.0  0.06306  0.03304  0.44628  1.0000
  H   H48       1.0  0.01624  0.20448  0.16614  1.0000
  H   H49       1.0  0.22542  0.21117  0.41141  1.0000
  H   H50       1.0  0.07839  0.05255  0.42950  1.0000
  C   C29       1.0  0.05509  0.17212  0.15192  1.0000
  H   H51       1.0  0.20439  0.21658  0.26454  1.0000
  H   H52       1.0  0.13180  0.05398  0.47386  1.0000
  H   H53       1.0  0.17179  0.15541  0.44768  1.0000
  C   C30       1.0  0.11514  0.05654  0.46397  1.0000
  C   C31       1.0  0.20244  0.19563  0.01245  1.0000
  C   C32       1.0  0.03900  0.03843  0.43876  1.0000
  H   H54       1.0  0.11761  0.08786  0.46465  1.0000
  C   C33       1.0  0.07815  0.97912  0.22521  1.0000
  H   H55       1.0  0.13673  0.04672  0.30458  1.0000
  H   H56       1.0  0.06113  0.17462  0.10820  1.0000
  H   H57       1.0  0.17812  0.20131  0.13521  1.0000
  H   H58       1.0  0.20242  0.19882  0.40504  1.0000
  H   H59       1.0  0.07495  0.99038  0.26418  1.0000
  C   C34       1.0  0.13550  0.02948  0.20783  1.0000
  H   H60       1.0  0.14924  0.03386  0.39257  1.0000
  C   C35       1.0  0.11603  0.07612  0.28757  1.0000
  H   H61       1.0  0.02509  0.04422  0.03228  1.0000
  H   H62       1.0  0.12930  0.08374  0.29428  1.0000
  H   H63       1.0  0.02233  0.00254  0.23483  1.0000
  H   H64       1.0  0.99816  0.19232  0.09162  1.0000
  Fe  Fe11      1.0  0.07700  0.21509  0.09585  1.0000
  H   H65       1.0  0.05842  0.03471  0.00514  1.0000
  H   H66       1.0  0.08986  0.18117  0.19580  1.0000
  C   C36       1.0  0.17127  0.08101  0.27001  1.0000
  C   C37       1.0  0.02857  0.00787  0.21585  1.0000
  H   H67       1.0  0.11122  0.06919  0.30541  1.0000
  H   H68       1.0  0.24151  0.20747  0.36591  1.0000
  N   N3        1.0  0.00942  0.97638  0.16648  1.0000
  H   H69       1.0  0.20286  0.21725  0.03264  1.0000
  H   H70       1.0  0.03173  0.17688  0.11827  1.0000
  H   H71       1.0  0.02290  0.00794  0.17284  1.0000
  C   C38       1.0  0.01696  0.00149  0.19079  1.0000
  C   C39       1.0  0.08621  0.17118  0.25069  1.0000
  H   H72       1.0  0.04168  0.16739  0.16499  1.0000
  H   H73       1.0  0.13691  0.99067  0.48133  1.0000
  H   H74       1.0  0.08651  0.19413  0.23888  1.0000
  H   H75       1.0  0.02524  0.98479  0.08474  1.0000
  H   H76       1.0  0.20756  0.08017  0.26091  1.0000
  N   N4        1.0  0.05708  0.19231  0.18921  1.0000
  H   H77       1.0  0.20731  0.17583  0.43016  1.0000
  H   H78       1.0  0.04154  0.98376  0.18208  1.0000
  C   C40       1.0  0.01192  0.98448  0.13955  1.0000
  C   C41       1.0  0.07914  0.04633  0.44923  1.0000
  C   C42       1.0  0.05965  0.18860  0.15935  1.0000
  C   C43       1.0  0.00993  0.21338  0.10613  1.0000
  C   C44       1.0  0.07247  0.18149  0.20488  1.0000
  H   H79       1.0  0.08093  0.07835  0.27367  1.0000
  H   H80       1.0  0.13271  0.03575  0.26102  1.0000
  C   C45       1.0  0.10677  0.98389  0.00597  1.0000
  H   H81       1.0  0.06636  0.16991  0.20310  1.0000
  H   H82       1.0  0.03900  0.04485  0.41929  1.0000
  H   H83       1.0  0.02813  0.02863  0.43604  1.0000
  H   H84       1.0  0.10660  0.02432  0.42739  1.0000
  H   H85       1.0  0.19033  0.09038  0.23603  1.0000
  C   C46       1.0  0.19248  0.20713  0.03244  1.0000
  H   H86       1.0  0.18787  0.14340  0.47049  1.0000
  H   H87       1.0  0.04730  0.00610  0.21443  1.0000
  H   H88       1.0  0.13773  0.99584  0.22161  1.0000
  H   H89       1.0  0.20483  0.19368  0.14744  1.0000
  H   H90       1.0  0.03433  0.22149  0.18789  1.0000
  H   H91       1.0  0.99837  0.00342  0.19311  1.0000
  C   C47       1.0  0.19856  0.16635  0.46982  1.0000
  C   C48       1.0  0.02833  0.03209  0.02903  1.0000
  C   C49       1.0  0.17335  0.04446  0.30278  1.0000
  H   H92       1.0  0.19594  0.09847  0.26881  1.0000
  C   C50       1.0  0.09182  0.97622  0.20204  1.0000
  H   H93       1.0  0.11006  0.05783  0.26149  1.0000
  H   H94       1.0  0.15720  0.08938  0.26731  1.0000
  H   H95       1.0  0.07722  0.19089  0.15226  1.0000
  C   C51       1.0  0.18979  0.20081  0.15292  1.0000
  C   C52       1.0  0.19260  0.08787  0.25811  1.0000
  C   C53       1.0  0.20025  0.17992  0.44997  1.0000
  C   C54       1.0  0.12789  0.17836  0.49500  1.0000
  C   C55       1.0  0.04177  0.02944  0.00269  1.0000
  H   H96       1.0  0.08945  0.09266  0.29680  1.0000
  H   H97       1.0  0.12061  0.02424  0.21751  1.0000
  C   C56       1.0  0.07521  0.18458  0.23583  1.0000
  H   H98       1.0  0.18496  0.20816  0.45056  1.0000
  C   C57       1.0  0.04786  0.17050  0.12219  1.0000
  C   C58       1.0  0.01355  0.19430  0.17845  1.0000
  C   C59       1.0  0.11487  0.03497  0.43221  1.0000
  H   H99       1.0  0.12311  0.21561  0.19602  1.0000
  H   H100      1.0  0.05858  0.18720  0.24564  1.0000
  H   H101      1.0  0.18830  0.05030  0.29476  1.0000
  C   C60       1.0  0.11328  0.98248  0.20085  1.0000
  H   H102      1.0  0.06173  0.97418  0.22677  1.0000
  C   C61       1.0  0.15095  0.05341  0.29660  1.0000
  H   H103      1.0  0.19229  0.20227  0.05336  1.0000
  H   H104      1.0  0.16307  0.22068  0.17668  1.0000
  H   H105      1.0  0.04524  0.15856  0.11762  1.0000
  C   C62       1.0  0.09510  0.08560  0.27938  1.0000
  C   C63       1.0  0.12092  0.99138  0.22258  1.0000
  C   C64       1.0  0.06551  0.20782  0.19391  1.0000
  C   C65       1.0  0.11913  0.06764  0.44003  1.0000
  C   C66       1.0  0.17680  0.04239  0.33349  1.0000
  C   C67       1.0  0.20364  0.20725  0.44701  1.0000
  H   H106      1.0  0.18147  0.05937  0.25334  1.0000
  C   C68       1.0  0.16565  0.06642  0.25506  1.0000
  H   H107      1.0  0.09914  0.09308  0.26198  1.0000
  C   C69       1.0  0.10490  0.03167  0.48036  1.0000
  H   H108      1.0  0.13205  0.03080  0.18566  1.0000
  C   C70       1.0  0.11936  0.98920  0.47585  1.0000
  H   H109      1.0  0.16945  0.02271  0.41196  1.0000
  H   H110      1.0  0.10507  0.06274  0.47972  1.0000
  C   C71       1.0  0.18907  0.15277  0.45566  1.0000
  H   H111      1.0  0.03156  0.04554  0.45518  1.0000
  H   H112      1.0  0.02476  0.02006  0.21712  1.0000
  H   H113      1.0  0.15099  0.06347  0.30963  1.0000
  H   H114      1.0  0.19028  0.21502  0.21784  1.0000
  C   C72       1.0  0.14542  0.04310  0.25130  1.0000
  H   H115      1.0  0.20725  0.22090  0.14323  1.0000
  H   H116      1.0  0.12375  0.05165  0.21721  1.0000
  H   H117      1.0  0.19286  0.18523  0.01528  1.0000
  H   H118      1.0  0.17436  0.07913  0.29209  1.0000
  C   C73       1.0  0.23804  0.19152  0.45113  1.0000
  H   H119      1.0  0.13297  0.00009  0.00275  1.0000
  H   H120      1.0  0.04872  0.19604  0.14655  1.0000
  H   H121      1.0  0.07489  0.16150  0.25033  1.0000
  H   H122      1.0  0.06918  0.02548  0.43001  1.0000
  C   C74       1.0  0.12406  0.06583  0.26388  1.0000
  H   H123      1.0  0.16157  0.06981  0.23371  1.0000
  H   H124      1.0  0.04523  0.01730  0.00093  1.0000
  C   C75       1.0  0.14063  0.03110  0.43552  1.0000
  C   C76       1.0  0.15108  0.02530  0.40896  1.0000
  H   H125      1.0  0.17471  0.21033  0.02682  1.0000
  S   S20       1.0  0.03864  0.20948  0.09519  1.0000
  S   S21       1.0  0.23614  0.17428  0.36184  1.0000
  S   S22       1.0  0.11456  0.97861  0.04010  1.0000
  H   H126      1.0  0.02138  0.97944  0.20781  1.0000
  H   H127      1.0  0.00121  0.00146  0.30430  1.0000
  H   H128      1.0  0.09859  0.02057  0.47447  1.0000
  C   C77       1.0  0.00584  0.02881  0.36822  1.0000
  H   H129      1.0  0.10303  0.07068  0.42941  1.0000
  H   H130      1.0  0.05697  0.98342  0.45534  1.0000
  H   H131      1.0  0.20893  0.21504  0.17808  1.0000
  N   N5        1.0  0.21346  0.19307  0.45985  1.0000
  H   H132      1.0  0.23935  0.19018  0.42858  1.0000
  C   C78       1.0  0.02311  0.98464  0.18728  1.0000
  C   C79       1.0  0.12933  0.08206  0.45012  1.0000
  H   H133      1.0  0.07141  0.05414  0.46445  1.0000
  H   H134      1.0  0.12415  0.98029  0.18342  1.0000
  C   C80       1.0  0.05200  0.22087  0.18010  1.0000
  H   H135      1.0  0.99717  0.20948  0.04240  1.0000
  C   C81       1.0  0.00661  0.98566  0.08818  1.0000
  H   H136      1.0  0.12561  0.21520  0.99615  1.0000
  C   C82       1.0  0.00020  0.97765  0.11461  1.0000
  H   H137      1.0  0.17486  0.19320  0.49164  1.0000
  H   H138      1.0  0.03834  0.99098  0.28540  1.0000
  H   H139      1.0  0.18697  0.16914  0.48705  1.0000
  H   H140      1.0  0.99822  0.98030  0.07068  1.0000
  C   C83       1.0  0.21220  0.19504  0.49042  1.0000
  C   C84       1.0  0.10477  0.98236  0.49472  1.0000
  C   C85       1.0  0.01046  0.97802  0.30112  1.0000
  H   H141      1.0  0.02565  0.97889  0.26053  1.0000
  H   H142      1.0  0.01712  0.97770  0.32230  1.0000
  C   C86       1.0  0.03081  0.97992  0.28219  1.0000
  H   H143      1.0  0.21086  0.21724  0.45680  1.0000
  H   H144      1.0  0.01978  0.21211  0.99978  1.0000
  C   C87       1.0  0.99717  0.22049  0.03197  1.0000
  H   H145      1.0  0.17515  0.22083  0.40710  1.0000
  C   C88       1.0  0.99284  0.99110  0.29752  1.0000
  H   H146      1.0  0.99217  0.02054  0.40607  1.0000
  H   H147      1.0  0.03390  0.21936  0.02919  1.0000
  C   C89       1.0  0.01911  0.22107  0.01535  1.0000
  Fe  Fe12      1.0  0.09674  0.01351  0.88075  1.0000
  S   S23       1.0  0.08875  0.03838  0.87961  1.0000
  S   S24       1.0  0.08940  0.99702  0.91627  1.0000
  Fe  Fe13      1.0  0.10104  0.01212  0.81653  1.0000
  S   S25       1.0  0.09366  0.03683  0.81161  1.0000
  S   S26       1.0  0.10415  0.99342  0.78424  1.0000
  Fe  Fe14      1.0  0.11651  0.04011  0.84791  1.0000
  S   S27       1.0  0.14386  0.05810  0.84902  1.0000
  Fe  Fe15      1.0  0.06671  0.03363  0.84360  1.0000
  S   S28       1.0  0.03147  0.04385  0.83842  1.0000
  S   S29       1.0  0.12607  0.01524  0.85100  1.0000
  S   S30       1.0  0.07265  0.00903  0.84635  1.0000
  C   C90       1.0  0.00612  0.04822  0.92580  1.0000
  Fe  Fe16      1.0  0.16672  0.15095  0.84922  1.0000
  S   S31       1.0  0.14632  0.17190  0.83782  1.0000
  S   S32       1.0  0.14456  0.13017  0.84434  1.0000
  Fe  Fe17      1.0  0.20919  0.17001  0.86027  1.0000
  S   S33       1.0  0.19127  0.19139  0.84889  1.0000
  Fe  Fe18      1.0  0.16248  0.18258  0.87412  1.0000
  S   S34       1.0  0.14455  0.19915  0.90266  1.0000
  Fe  Fe19      1.0  0.17680  0.17876  0.81381  1.0000
  S   S35       1.0  0.18050  0.18728  0.76995  1.0000
  S   S36       1.0  0.18099  0.16151  0.88725  1.0000
  S   S37       1.0  0.19674  0.15757  0.82353  1.0000
  C   C91       1.0  0.03181  0.04437  0.92960  1.0000
  S   S38       1.0  0.07996  0.20457  0.60905  1.0000
  C   C92       1.0  0.15517  0.98989  0.70208  1.0000
  N   N6        1.0  0.01748  0.99811  0.77800  1.0000
  Fe  Fe20      1.0  0.10864  0.20564  0.57835  1.0000
  S   S39       1.0  0.11591  0.18732  0.54701  1.0000
  C   C93       1.0  0.07733  0.04363  0.95438  1.0000
  H   H148      1.0  0.01055  0.03133  0.77352  1.0000
  H   H149      1.0  0.03851  0.04691  0.75079  1.0000
  H   H150      1.0  0.01341  0.19087  0.71432  1.0000
  H   H151      1.0  0.01905  0.21005  0.59761  1.0000
  C   C94       1.0  0.15834  0.19166  0.74655  1.0000
  C   C95       1.0  0.13585  0.19384  0.75507  1.0000
  C   C96       1.0  0.11867  0.19709  0.73581  1.0000
  C   C97       1.0  0.12388  0.19860  0.70792  1.0000
  C   C98       1.0  0.14648  0.19689  0.69947  1.0000
  C   C99       1.0  0.16359  0.19339  0.71871  1.0000
  H   H152      1.0  0.13180  0.19335  0.77657  1.0000
  H   H153      1.0  0.01481  0.97784  0.75479  1.0000
  H   H154      1.0  0.03904  0.04175  0.90901  1.0000
  C   C100      1.0  0.08761  0.98752  0.69244  1.0000
  H   H155      1.0  0.03956  0.05495  0.93600  1.0000
  H   H156      1.0  0.12515  0.12039  0.74519  1.0000
  S   S40       1.0  0.10154  0.20215  0.68444  1.0000
  C   C101      1.0  0.14125  0.19609  0.93828  1.0000
  H   H157      1.0  0.04178  0.17974  0.61899  1.0000
  H   H158      1.0  0.11675  0.15987  0.73448  1.0000
  C   C102      1.0  0.08665  0.00182  0.70428  1.0000
  H   H159      1.0  0.15213  0.17297  0.93769  1.0000
  H   H160      1.0  0.12330  0.14222  0.72033  1.0000
  C   C103      1.0  0.16232  0.14115  0.74796  1.0000
  H   H161      1.0  0.18184  0.20071  0.97707  1.0000
  C   C104      1.0  0.14352  0.07818  0.84793  1.0000
  C   C105      1.0  0.12348  0.08688  0.84511  1.0000
  C   C106      1.0  0.12420  0.10267  0.84427  1.0000
  C   C107      1.0  0.14490  0.11011  0.84624  1.0000
  C   C108      1.0  0.16493  0.10142  0.84908  1.0000
  C   C109      1.0  0.16421  0.08563  0.84987  1.0000
  H   H162      1.0  0.10740  0.08144  0.84365  1.0000
  H   H163      1.0  0.10853  0.10916  0.84238  1.0000
  H   H164      1.0  0.18101  0.10684  0.85064  1.0000
  H   H165      1.0  0.17986  0.07911  0.85209  1.0000
  H   H166      1.0  0.02311  0.97965  0.50697  1.0000
  H   H167      1.0  0.00651  0.00056  0.72131  1.0000
  C   C110      1.0  0.11417  0.99908  0.96498  1.0000
  C   C111      1.0  0.09672  0.99227  0.95082  1.0000
  H   H168      1.0  0.14827  0.98060  0.93943  1.0000
  H   H169      1.0  0.02327  0.98013  0.95617  1.0000
  C   C112      1.0  0.09669  0.99156  0.74908  1.0000
  C   C113      1.0  0.09116  0.00384  0.73234  1.0000
  H   H170      1.0  0.10349  0.03243  0.97922  1.0000
  H   H171      1.0  0.11185  0.04970  0.96357  1.0000
  C   C114      1.0  0.14432  0.18029  0.97874  1.0000
  N   N7        1.0  0.03781  0.03195  0.94964  1.0000
  H   H172      1.0  0.08269  0.01145  0.69155  1.0000
  C   C115      1.0  0.01303  0.02060  0.86687  1.0000
  C   C116      1.0  0.00903  0.03421  0.85340  1.0000
  C   C117      1.0  0.04269  0.18473  0.66250  1.0000
  H   H173      1.0  0.02998  0.01582  0.86804  1.0000
  H   H174      1.0  0.11267  0.14489  0.80723  1.0000
  H   H175      1.0  0.20745  0.16761  0.71864  1.0000
  H   H176      1.0  0.20411  0.21321  0.98237  1.0000
  C   C118      1.0  0.02111  0.99011  0.94277  1.0000
  H   H177      1.0  0.13663  0.99284  0.70216  1.0000
  H   H178      1.0  0.23338  0.20489  0.76520  1.0000
  C   C119      1.0  0.14648  0.18223  0.95030  1.0000
  H   H179      1.0  0.05781  0.19429  0.71017  1.0000
  H   H180      1.0  0.21962  0.16898  0.92332  1.0000
  C   C120      1.0  0.13362  0.20794  0.95500  1.0000
  H   H181      1.0  0.05291  0.21165  0.72697  1.0000
  H   H182      1.0  0.99834  0.00288  0.89024  1.0000
  H   H183      1.0  0.06871  0.02528  0.92867  1.0000
  C   C121      1.0  0.08439  0.98122  0.96450  1.0000
  H   H184      1.0  0.14832  0.00537  0.65487  1.0000
  H   H185      1.0  0.00663  0.98017  0.80451  1.0000
  Fe  Fe21      1.0  0.10561  0.21078  0.64075  1.0000
  H   H186      1.0  0.14627  0.98856  0.60047  1.0000
  H   H187      1.0  0.01632  0.99607  0.82209  1.0000
  H   H188      1.0  0.01135  0.06170  0.88918  1.0000
  H   H189      1.0  0.12406  0.00744  0.95482  1.0000
  C   C122      1.0  0.23280  0.18399  0.72818  1.0000
  H   H190      1.0  0.08418  0.01437  0.52055  1.0000
  C   C123      1.0  0.99265  0.00250  0.77480  1.0000
  C   C124      1.0  0.06327  0.02958  0.94899  1.0000
  H   H191      1.0  0.08351  0.16645  0.70603  1.0000
  H   H192      1.0  0.19946  0.20332  0.54346  1.0000
  C   C125      1.0  0.02990  0.00380  0.95737  1.0000
  H   H193      1.0  0.12184  0.21455  0.51470  1.0000
  H   H194      1.0  0.06898  0.02071  0.96351  1.0000
  C   C126      1.0  0.04466  0.97446  0.83781  1.0000
  H   H195      1.0  0.21636  0.17869  0.68998  1.0000
  H   H196      1.0  0.08524  0.13357  0.72491  1.0000
  H   H197      1.0  0.10130  0.19866  0.74259  1.0000
  H   H198      1.0  0.05898  0.16692  0.63911  1.0000
  C   C127      1.0  0.09243  0.03680  0.50674  1.0000
  H   H199      1.0  0.05777  0.19166  0.66000  1.0000
  H   H200      1.0  0.09289  0.15065  0.68564  1.0000
  C   C128      1.0  0.11922  0.99485  0.99224  1.0000
  H   H201      1.0  0.04789  0.00139  0.96245  1.0000
  C   C129      1.0  0.14778  0.98079  0.65628  1.0000
  C   C130      1.0  0.02149  0.20187  0.71182  1.0000
  N   N8        1.0  0.01918  0.20722  0.68257  1.0000
  H   H202      1.0  0.12657  0.16714  0.50300  1.0000
  C   C131      1.0  0.12346  0.19059  0.51233  1.0000
  C   C132      1.0  0.02700  0.01798  0.93942  1.0000
  C   C133      1.0  0.10213  0.03943  0.96045  1.0000
  C   C134      1.0  0.15355  0.99571  0.64202  1.0000
  H   H203      1.0  0.16379  0.00013  0.69517  1.0000
  H   H204      1.0  0.19569  0.14933  0.94422  1.0000
  H   H205      1.0  0.09095  0.01493  0.74087  1.0000
  H   H206      1.0  0.22601  0.17186  0.76576  1.0000
  H   H207      1.0  0.17086  0.01017  0.74162  1.0000
  H   H208      1.0  0.00835  0.01968  0.93725  1.0000
  H   H209      1.0  0.06346  0.19195  0.75980  1.0000
  H   H210      1.0  0.00279  0.99171  0.93783  1.0000
  H   H211      1.0  0.17865  0.98182  0.94170  1.0000
  C   C135      1.0  0.13139  0.20599  0.98349  1.0000
  C   C136      1.0  0.02477  0.98822  0.75448  1.0000
  H   H212      1.0  0.04039  0.18072  0.74895  1.0000
  C   C137      1.0  0.04600  0.19235  0.75133  1.0000
  H   H213      1.0  0.14848  0.16952  0.98784  1.0000
  C   C138      1.0  0.18652  0.19693  0.53246  1.0000
  H   H214      1.0  0.20875  0.20517  0.65822  1.0000
  C   C139      1.0  0.20562  0.21526  0.92939  1.0000
  H   H215      1.0  0.15147  0.97872  0.74216  1.0000
  H   H216      1.0  0.07721  0.05096  0.93599  1.0000
  C   C140      1.0  0.18828  0.19955  0.50169  1.0000
  H   H217      1.0  0.11632  0.09596  0.78400  1.0000
  H   H218      1.0  0.04430  0.17807  0.68159  1.0000
  H   H219      1.0  0.07605  0.14944  0.74507  1.0000
  C   C141      1.0  0.04287  0.17369  0.63884  1.0000
  H   H220      1.0  0.21724  0.19303  0.91710  1.0000
  H   H221      1.0  0.16940  0.20071  0.53972  1.0000
  H   H222      1.0  0.02797  0.98845  0.68317  1.0000
  C   C142      1.0  0.01969  0.98891  0.80392  1.0000
  H   H223      1.0  0.15065  0.19796  0.67806  1.0000
  S   S41       1.0  0.13453  0.20930  0.61105  1.0000
  C   C143      1.0  0.02032  0.19424  0.66306  1.0000
  N   N9        1.0  0.12039  0.14208  0.76439  1.0000
  H   H224      1.0  0.22320  0.14229  0.93343  1.0000
  H   H225      1.0  0.05433  0.21359  0.67778  1.0000
  C   C144      1.0  0.12080  0.12514  0.76556  1.0000
  H   H226      1.0  0.08832  0.14417  0.78644  1.0000
  H   H227      1.0  0.09511  0.17005  0.76795  1.0000
  H   H228      1.0  0.11885  0.17104  0.79066  1.0000
  H   H229      1.0  0.18933  0.19403  0.92947  1.0000
  H   H230      1.0  0.02844  0.16605  0.64062  1.0000
  H   H231      1.0  0.07032  0.05027  0.97163  1.0000
  C   C145      1.0  0.10249  0.16574  0.78735  1.0000
  H   H232      1.0  0.12919  0.98114  0.66015  1.0000
  C   C146      1.0  0.14441  0.14697  0.76909  1.0000
  N   N10       1.0  0.16011  0.97716  0.68258  1.0000
  H   H233      1.0  0.99235  0.01905  0.80795  1.0000
  C   C147      1.0  0.04302  0.98086  0.80884  1.0000
  H   H234      1.0  0.11081  0.02092  0.53332  1.0000
  H   H235      1.0  0.07438  0.03992  0.50291  1.0000
  H   H236      1.0  0.19134  0.21871  0.69658  1.0000
  H   H237      1.0  0.08524  0.18316  0.81078  1.0000
  H   H238      1.0  0.04920  0.04026  0.78309  1.0000
  H   H239      1.0  0.01990  0.00515  0.97648  1.0000
  C   C148      1.0  0.09301  0.02430  0.52818  1.0000
  C   C149      1.0  0.04438  0.03680  0.76227  1.0000
  H   H240      1.0  0.14133  0.00610  0.74723  1.0000
  H   H241      1.0  0.19878  0.13977  0.74173  1.0000
  H   H242      1.0  0.06387  0.15221  0.69726  1.0000
  C   C150      1.0  0.08175  0.15426  0.70287  1.0000
  H   H243      1.0  0.08377  0.12143  0.76458  1.0000
  C   C151      1.0  0.08795  0.14555  0.72891  1.0000
  H   H244      1.0  0.22407  0.97597  0.64462  1.0000
  H   H245      1.0  0.06936  0.16638  0.80744  1.0000
  C   C152      1.0  0.03262  0.01140  0.78015  1.0000
  H   H246      1.0  0.08433  0.02819  0.54710  1.0000
  H   H247      1.0  0.18734  0.21540  0.89090  1.0000
  C   C153      1.0  0.10128  0.10049  0.77264  1.0000
  C   C154      1.0  0.11304  0.14778  0.73666  1.0000
  H   H248      1.0  0.18996  0.13675  0.77651  1.0000
  H   H249      1.0  0.01070  0.03326  0.97937  1.0000
  C   C155      1.0  0.08659  0.17077  0.81045  1.0000
  H   H250      1.0  0.05037  0.00813  0.77426  1.0000
  H   H251      1.0  0.19223  0.98690  0.67212  1.0000
  H   H252      1.0  0.03395  0.01514  0.80174  1.0000
  N   N11       1.0  0.21454  0.19284  0.96151  1.0000
  H   H253      1.0  0.24123  0.20705  0.97593  1.0000
  H   H254      1.0  0.19142  0.17463  0.96286  1.0000
  H   H255      1.0  0.09331  0.16682  0.83050  1.0000
  C   C156      1.0  0.10570  0.14852  0.78703  1.0000
  H   H256      1.0  0.16086  0.12907  0.74391  1.0000
  H   H257      1.0  0.03368  0.01527  0.91867  1.0000
  H   H258      1.0  0.00897  0.07229  0.92044  1.0000
  H   H259      1.0  0.16256  0.99921  0.77079  1.0000
  C   C157      1.0  0.12516  0.20503  0.50168  1.0000
  H   H260      1.0  0.01631  0.20664  0.52515  1.0000
  H   H261      1.0  0.14543  0.15932  0.76858  1.0000
  H   H262      1.0  0.19235  0.22035  0.75508  1.0000
  C   C158      1.0  0.09909  0.11744  0.77578  1.0000
  H   H263      1.0  0.02048  0.02312  0.74244  1.0000
  H   H264      1.0  0.09646  0.11971  0.79786  1.0000
  H   H265      1.0  0.10294  0.09742  0.75079  1.0000
  H   H266      1.0  0.16014  0.14732  0.72834  1.0000
  C   C159      1.0  0.99508  0.01331  0.87955  1.0000
  C   C160      1.0  0.18651  0.14346  0.75774  1.0000
  H   H267      1.0  0.04293  0.98460  0.75657  1.0000
  H   H268      1.0  0.13446  0.12088  0.77963  1.0000
  H   H269      1.0  0.03464  0.19832  0.76605  1.0000
  H   H270      1.0  0.08594  0.09523  0.78113  1.0000
  H   H271      1.0  0.03679  0.00334  0.72273  1.0000
  H   H272      1.0  0.15018  0.14350  0.78992  1.0000
  H   H273      1.0  0.99772  0.03930  0.91447  1.0000
  H   H274      1.0  0.18094  0.19194  0.71188  1.0000
  H   H275      1.0  0.14469  0.00845  0.60548  1.0000
  C   C161      1.0  0.20666  0.19806  0.93361  1.0000
  C   C162      1.0  0.02889  0.03619  0.97758  1.0000
  C   C163      1.0  0.09266  0.97520  0.70928  1.0000
  C   C164      1.0  0.22247  0.16565  0.94482  1.0000
  H   H276      1.0  0.05951  0.03188  0.75174  1.0000
  H   H277      1.0  0.17197  0.99620  0.63756  1.0000
  H   H278      1.0  0.18910  0.15542  0.76195  1.0000
  C   C165      1.0  0.09727  0.97723  0.73733  1.0000
  C   C166      1.0  0.14090  0.99751  0.61492  1.0000
  H   H279      1.0  0.22493  0.19435  0.79409  1.0000
  H   H280      1.0  0.04208  0.98338  0.85323  1.0000
  H   H281      1.0  0.05709  0.98859  0.80560  1.0000
  H   H282      1.0  0.10080  0.04659  0.51557  1.0000
  S   S42       1.0  0.08259  0.98581  0.65661  1.0000
  C   C167      1.0  0.20997  0.17643  0.96469  1.0000
  H   H283      1.0  0.23495  0.16397  0.70292  1.0000
  C   C168      1.0  0.00551  0.21702  0.52573  1.0000
  H   H284      1.0  0.21798  0.21492  0.88737  1.0000
  H   H285      1.0  0.07089  0.97580  0.95387  1.0000
  H   H286      1.0  0.01685  0.19831  0.64196  1.0000
  H   H287      1.0  0.18015  0.98348  0.73426  1.0000
  C   C169      1.0  0.99619  0.21501  0.67916  1.0000
  C   C170      1.0  0.04590  0.20044  0.72375  1.0000
  H   H288      1.0  0.18873  0.18486  0.53735  1.0000
  H   H289      1.0  0.12946  0.21870  0.94588  1.0000
  C   C171      1.0  0.20016  0.20115  0.98246  1.0000
  H   H290      1.0  0.99506  0.22075  0.65894  1.0000
  C   C172      1.0  0.15903  0.00158  0.74889  1.0000
  C   C173      1.0  0.18547  0.97593  0.67833  1.0000
  C   C174      1.0  0.08912  0.97722  0.99193  1.0000
  H   H291      1.0  0.04327  0.97676  0.70725  1.0000
  H   H292      1.0  0.12225  0.99708  0.61822  1.0000
  C   C175      1.0  0.19687  0.21475  0.65400  1.0000
  H   H293      1.0  0.10983  0.03321  0.94300  1.0000
  H   H294      1.0  0.00689  0.18617  0.66777  1.0000
  C   C176      1.0  0.02707  0.98311  0.70368  1.0000
  C   C177      1.0  0.16215  0.98724  0.73237  1.0000
  C   C178      1.0  0.02325  0.99510  0.72544  1.0000
  H   H295      1.0  0.99734  0.04973  0.94568  1.0000
  C   C179      1.0  0.00250  0.06259  0.90919  1.0000
  H   H296      1.0  0.03088  0.98805  0.92363  1.0000
  H   H297      1.0  0.21945  0.19263  0.73249  1.0000
  H   H298      1.0  0.19416  0.97315  0.69787  1.0000
  C   C180      1.0  0.02537  0.02563  0.76362  1.0000
  C   C181      1.0  0.22229  0.17282  0.70881  1.0000
  C   C182      1.0  0.00534  0.21807  0.60150  1.0000
  H   H299      1.0  0.21772  0.14550  0.96920  1.0000
  H   H300      1.0  0.21827  0.18484  0.50138  1.0000
  H   H301      1.0  0.01188  0.20948  0.72591  1.0000
  H   H302      1.0  0.02902  0.04853  0.98030  1.0000
  C   C183      1.0  0.24009  0.19847  0.78298  1.0000
  C   C184      1.0  0.16444  0.97397  0.94124  1.0000
  C   C185      1.0  0.21421  0.14974  0.94823  1.0000
  H   H303      1.0  0.22133  0.21587  0.82531  1.0000
  H   H304      1.0  0.07070  0.97518  0.50122  1.0000
  H   H305      1.0  0.17975  0.21039  0.65004  1.0000
  S   S43       1.0  0.11567  0.97658  0.52740  1.0000
  H   H306      1.0  0.21486  0.17233  0.98538  1.0000
  H   H307      1.0  0.01289  0.97523  0.70375  1.0000
  C   C186      1.0  0.23930  0.19583  0.96671  1.0000
  H   H308      1.0  0.24095  0.16526  0.94915  1.0000
  H   H309      1.0  0.22094  0.22048  0.93771  1.0000
  C   C187      1.0  0.03692  0.21824  0.67449  1.0000
  H   H310      1.0  0.20274  0.22066  0.63537  1.0000
  H   H311      1.0  0.19049  0.22015  0.94007  1.0000
  H   H312      1.0  0.03611  0.22054  0.65211  1.0000
  C   C188      1.0  0.20341  0.21957  0.89930  1.0000
  H   H313      1.0  0.18456  0.21160  0.49774  1.0000
  S   S44       1.0  0.06769  0.97269  0.58373  1.0000
  H   H314      1.0  0.22396  0.20383  0.49694  1.0000
  C   C189      1.0  0.24117  0.17615  0.75489  1.0000
  C   C190      1.0  0.23379  0.22155  0.81210  1.0000
  H   H315      1.0  0.16524  0.22157  0.77207  1.0000
  C   C191      1.0  0.13678  0.19213  0.99550  1.0000
  H   H316      1.0  0.16368  0.26252  0.18917  1.0000
  Fe  Fe22      1.0  0.12135  0.23315  0.09639  1.0000
  S   S45       1.0  0.13618  0.25647  0.09689  1.0000
  H   H317      1.0  0.12613  0.26781  0.15216  1.0000
  H   H318      1.0  0.19836  0.23286  0.41478  1.0000
  H   H319      1.0  0.18130  0.24889  0.22425  1.0000
  H   H320      1.0  0.20478  0.24851  0.15200  1.0000
  C   C192      1.0  0.20191  0.28362  0.09764  1.0000
  C   C193      1.0  0.20374  0.26803  0.10164  1.0000
  C   C194      1.0  0.18398  0.25922  0.10102  1.0000
  C   C195      1.0  0.16234  0.26606  0.09703  1.0000
  C   C196      1.0  0.16088  0.28155  0.09338  1.0000
  C   C197      1.0  0.18033  0.29015  0.09339  1.0000
  H   H321      1.0  0.22681  0.25016  0.00149  1.0000
  H   H322      1.0  0.18543  0.24725  0.10371  1.0000
  H   H323      1.0  0.14443  0.28701  0.09030  1.0000
  H   H324      1.0  0.17856  0.30209  0.09019  1.0000
  H   H325      1.0  0.22373  0.27689  0.48959  1.0000
  H   H326      1.0  0.22031  0.26277  0.10466  1.0000
  H   H327      1.0  0.99799  0.22928  0.04774  1.0000
  C   C198      1.0  0.20549  0.26085  0.03239  1.0000
  H   H328      1.0  0.21304  0.25421  0.04945  1.0000
  C   C199      1.0  0.21033  0.26219  0.18747  1.0000
  H   H329      1.0  0.01562  0.23503  0.12294  1.0000
  H   H330      1.0  0.21178  0.26108  0.20997  1.0000
  H   H331      1.0  0.19764  0.27120  0.18256  1.0000
  H   H332      1.0  0.23783  0.27784  0.18681  1.0000
  H   H333      1.0  0.06030  0.23829  0.20899  1.0000
  C   C200      1.0  0.12173  0.26132  0.17073  1.0000
  H   H334      1.0  0.10416  0.25742  0.16835  1.0000
  N   N12       1.0  0.18105  0.24115  0.18244  1.0000
  C   C201      1.0  0.18367  0.25334  0.02391  1.0000
  H   H335      1.0  0.17221  0.25238  0.04185  1.0000
  C   C202      1.0  0.22241  0.26174  0.00817  1.0000
  C   C203      1.0  0.13815  0.24792  0.17446  1.0000
  C   C204      1.0  0.20392  0.24711  0.17460  1.0000
  H   H336      1.0  0.12223  0.26876  0.18875  1.0000
  H   H337      1.0  0.21316  0.22807  0.21975  1.0000
  H   H338      1.0  0.13336  0.24217  0.19358  1.0000
  H   H339      1.0  0.18743  0.24196  0.01595  1.0000
  H   H340      1.0  0.21793  0.23909  0.17982  1.0000
  C   C205      1.0  0.16318  0.25294  0.17487  1.0000
  C   C206      1.0  0.17914  0.23837  0.21278  1.0000
  H   H341      1.0  0.16669  0.25762  0.15422  1.0000
  S   S46       1.0  0.22533  0.29582  0.09618  1.0000
  H   H342      1.0  0.13544  0.24023  0.15722  1.0000
  H   H343      1.0  0.05357  0.24490  0.17504  1.0000
  H   H344      1.0  0.22370  0.29020  0.00125  1.0000
  H   H345      1.0  0.02052  0.23211  0.00514  1.0000
  H   H346      1.0  0.17572  0.22396  0.26282  1.0000
  H   H347      1.0  0.08069  0.23577  0.18175  1.0000
  H   H348      1.0  0.17460  0.26009  0.00802  1.0000
  C   C207      1.0  0.00314  0.22674  0.11885  1.0000
  H   H349      1.0  0.16178  0.23485  0.21815  1.0000
  H   H350      1.0  0.20070  0.27213  0.04003  1.0000
  C   C208      1.0  0.23316  0.26737  0.17651  1.0000
  H   H351      1.0  0.19716  0.22362  0.38226  1.0000
  H   H352      1.0  0.22841  0.28858  0.03662  1.0000
  H   H353      1.0  0.16977  0.23007  0.14583  1.0000
  C   C209      1.0  0.06234  0.23584  0.18690  1.0000
  C   C210      1.0  0.23680  0.28666  0.01648  1.0000
  H   H354      1.0  0.23210  0.26967  0.15423  1.0000
  C   C211      1.0  0.19347  0.22586  0.25625  1.0000
  C   C212      1.0  0.19363  0.22243  0.40443  1.0000
  H   H355      1.0  0.23432  0.31766  0.00941  1.0000
  C   C213      1.0  0.17658  0.22713  0.16647  1.0000
  S   S47       1.0  0.09778  0.22495  0.12969  1.0000
  H   H356      1.0  0.19914  0.23651  0.26502  1.0000
  S   S48       1.0  0.09868  0.22515  0.06232  1.0000
  C   C214      1.0  0.19522  0.22618  0.22511  1.0000
  S   S49       1.0  0.10031  0.23546  0.63459  1.0000
  Fe  Fe23      1.0  0.12809  0.23385  0.60265  1.0000
  S   S50       1.0  0.16376  0.24389  0.60114  1.0000
  C   C215      1.0  0.22721  0.26977  0.50790  1.0000
  S   S51       1.0  0.03871  0.23995  0.60201  1.0000
  H   H357      1.0  0.21278  0.26682  0.99075  1.0000
  C   C216      1.0  0.16781  0.23606  0.73663  1.0000
  C   C217      1.0  0.21020  0.28475  0.60080  1.0000
  C   C218      1.0  0.18656  0.28675  0.59740  1.0000
  C   C219      1.0  0.17202  0.27449  0.59787  1.0000
  C   C220      1.0  0.18099  0.25996  0.60126  1.0000
  C   C221      1.0  0.20461  0.25796  0.60487  1.0000
  C   C222      1.0  0.21909  0.27024  0.60485  1.0000
  H   H358      1.0  0.17944  0.29790  0.59421  1.0000
  H   H359      1.0  0.15393  0.27626  0.59507  1.0000
  H   H360      1.0  0.21179  0.24680  0.60763  1.0000
  H   H361      1.0  0.16182  0.23332  0.67268  1.0000
  N   N13       1.0  0.17879  0.25121  0.69360  1.0000
  C   C223      1.0  0.18507  0.24626  0.72218  1.0000
  C   C224      1.0  0.19473  0.26317  0.68439  1.0000
  C   C225      1.0  0.15515  0.25828  0.69480  1.0000
  C   C226      1.0  0.17882  0.23845  0.67355  1.0000
  H   H362      1.0  0.00938  0.22385  0.50739  1.0000
  H   H363      1.0  0.18282  0.28182  0.50157  1.0000
  C   C227      1.0  0.14595  0.26539  0.66787  1.0000
  C   C228      1.0  0.22025  0.25865  0.68211  1.0000
  C   C229      1.0  0.19618  0.22532  0.67838  1.0000
  C   C230      1.0  0.05623  0.24264  0.68449  1.0000
  C   C231      1.0  0.12090  0.27010  0.67060  1.0000
  H   H364      1.0  0.20189  0.24039  0.72259  1.0000
  H   H365      1.0  0.19015  0.26734  0.66363  1.0000
  H   H366      1.0  0.19303  0.27301  0.69816  1.0000
  H   H367      1.0  0.14261  0.24980  0.70081  1.0000
  H   H368      1.0  0.21358  0.22919  0.68167  1.0000
  H   H369      1.0  0.18177  0.24280  0.65265  1.0000
  H   H370      1.0  0.22678  0.25298  0.70074  1.0000
  H   H371      1.0  0.11046  0.26034  0.67567  1.0000
  H   H372      1.0  0.21077  0.28436  0.53919  1.0000
  S   S52       1.0  0.22787  0.30058  0.59872  1.0000
  H   H373      1.0  0.14750  0.25737  0.65081  1.0000
  H   H374      1.0  0.15524  0.27558  0.66241  1.0000
  H   H375      1.0  0.05457  0.25333  0.69575  1.0000
  H   H376      1.0  0.22858  0.30006  0.50738  1.0000
  H   H377      1.0  0.05818  0.24526  0.66243  1.0000
  H   H378      1.0  0.11857  0.27868  0.68671  1.0000
  H   H379      1.0  0.07161  0.23639  0.69192  1.0000
  H   H380      1.0  0.20305  0.23191  0.89714  1.0000
  H   H381      1.0  0.17213  0.27530  0.53388  1.0000
  H   H382      1.0  0.22298  0.25121  0.66429  1.0000
  H   H383      1.0  0.23717  0.26846  0.60767  1.0000
  H   H384      1.0  0.22466  0.22744  0.79520  1.0000
  C   C232      1.0  0.23470  0.27235  0.67746  1.0000
  C   C233      1.0  0.99187  0.24343  0.60811  1.0000
  H   H385      1.0  0.18708  0.25617  0.73549  1.0000
  H   H386      1.0  0.20944  0.26470  0.54627  1.0000
  H   H387      1.0  0.15421  0.26707  0.71080  1.0000
  H   H388      1.0  0.23388  0.41423  0.53434  1.0000
  H   H389      1.0  0.99524  0.25519  0.60985  1.0000
  H   H390      1.0  0.11475  0.27492  0.65091  1.0000
  H   H391      1.0  0.02045  0.24030  0.68054  1.0000
  Fe  Fe24      1.0  0.07518  0.22916  0.60178  1.0000
  C   C234      1.0  0.01024  0.23320  0.60395  1.0000
  S   S53       1.0  0.10269  0.23001  0.56885  1.0000
  H   H392      1.0  0.16135  0.22751  0.72260  1.0000
  H   H393      1.0  0.18490  0.23639  0.77607  1.0000
  C   C235      1.0  0.17833  0.22815  0.76146  1.0000
  C   C236      1.0  0.03500  0.23358  0.68899  1.0000
  H   H394      1.0  0.00995  0.22336  0.54427  1.0000
  H   H395      1.0  0.23771  0.26483  0.95433  1.0000
  H   H396      1.0  0.15300  0.24291  0.74399  1.0000
  H   H397      1.0  0.23407  0.27970  0.69562  1.0000
  C   C237      1.0  0.20872  0.27326  0.52982  1.0000
  H   H398      1.0  0.99385  0.22401  0.69455  1.0000
  H   H399      1.0  0.03227  0.23220  0.71126  1.0000
  C   C238      1.0  0.18492  0.27306  0.51758  1.0000
  H   H400      1.0  0.23882  0.43368  0.52794  1.0000
  H   H401      1.0  0.22873  0.27887  0.65937  1.0000
  H   H402      1.0  0.22424  0.25818  0.50113  1.0000
  H   H403      1.0  0.18165  0.26196  0.50870  1.0000
  H   H404      1.0  0.19966  0.64994  0.42185  1.0000
  H   H405      1.0  0.21268  0.66077  0.39533  1.0000
  C   C239      1.0  0.19835  0.68589  0.34914  1.0000
  C   C240      1.0  0.19749  0.70162  0.34880  1.0000
  S   S54       1.0  0.22250  0.67500  0.33832  1.0000
  C   C241      1.0  0.15674  0.70189  0.35933  1.0000
  C   C242      1.0  0.15795  0.68627  0.36002  1.0000
  C   C243      1.0  0.17839  0.67839  0.35474  1.0000
  C   C244      1.0  0.22849  0.71265  0.43134  1.0000
  C   C245      1.0  0.20226  0.67344  0.43143  1.0000
  H   H406      1.0  0.14274  0.68015  0.36413  1.0000
  H   H407      1.0  0.17859  0.66631  0.35446  1.0000
  C   C246      1.0  0.11299  0.70962  0.28810  1.0000
  H   H408      1.0  0.10653  0.69839  0.28364  1.0000
  C   C247      1.0  0.18761  0.70649  0.42891  1.0000
  H   H409      1.0  0.23322  0.71512  0.01030  1.0000
  H   H410      1.0  0.20160  0.67122  0.45369  1.0000
  H   H411      1.0  0.18470  0.67555  0.42386  1.0000
  C   C248      1.0  0.21733  0.68686  0.42453  1.0000
  N   N14       1.0  0.21091  0.70137  0.43845  1.0000
  H   H412      1.0  0.18858  0.71622  0.29865  1.0000
  H   H413      1.0  0.18667  0.70620  0.40635  1.0000
  H   H414      1.0  0.21645  0.68823  0.40201  1.0000
  C   C249      1.0  0.21137  0.65918  0.41779  1.0000
  H   H415      1.0  0.17459  0.69857  0.43590  1.0000
  H   H416      1.0  0.10184  0.71812  0.27786  1.0000
  C   C250      1.0  0.17669  0.70962  0.35381  1.0000
  H   H417      1.0  0.18171  0.70703  0.26834  1.0000
  H   H418      1.0  0.20737  0.71052  0.47896  1.0000
  C   C251      1.0  0.23203  0.69249  0.48228  1.0000
  H   H419      1.0  0.14752  0.70135  0.28701  1.0000
  S   S55       1.0  0.12968  0.71066  0.36544  1.0000
  C   C252      1.0  0.21027  0.69950  0.46906  1.0000
  H   H420      1.0  0.11221  0.71134  0.31049  1.0000
  H   H421      1.0  0.21263  0.70757  0.34378  1.0000
  C   C253      1.0  0.13733  0.71069  0.27766  1.0000
  H   H422      1.0  0.23006  0.70950  0.29703  1.0000
  H   H423      1.0  0.23591  0.68113  0.47435  1.0000
  H   H424      1.0  0.13696  0.70897  0.25530  1.0000
  H   H425      1.0  0.19553  0.69281  0.47543  1.0000
  C   C254      1.0  0.22945  0.71764  0.40099  1.0000
  H   H426      1.0  0.14354  0.71838  0.42976  1.0000
  C   C255      1.0  0.18694  0.71801  0.27628  1.0000
  H   H427      1.0  0.22833  0.65592  0.42609  1.0000
  H   H428      1.0  0.23541  0.68358  0.42863  1.0000
  C   C256      1.0  0.22791  0.70866  0.27458  1.0000
  H   H429      1.0  0.22223  0.69728  0.26963  1.0000
  C   C257      1.0  0.21080  0.72057  0.26423  1.0000
  H   H430      1.0  0.16594  0.71912  0.23084  1.0000
  H   H431      1.0  0.23373  0.70800  0.38770  1.0000
  H   H432      1.0  0.21028  0.71970  0.24167  1.0000
  H   H433      1.0  0.17663  0.72203  0.46110  1.0000
  H   H434      1.0  0.17608  0.72167  0.35345  1.0000
  H   H435      1.0  0.23797  0.69617  0.99879  1.0000
  C   C258      1.0  0.17925  0.72215  0.43872  1.0000
  H   H436      1.0  0.17266  0.68570  0.85720  1.0000
  S   S56       1.0  0.14480  0.71261  0.85983  1.0000
  C   C259      1.0  0.22268  0.70367  0.86194  1.0000
  C   C260      1.0  0.16823  0.71228  0.68589  1.0000
  H   H437      1.0  0.23093  0.70417  0.92261  1.0000
  C   C261      1.0  0.17489  0.70957  0.86109  1.0000
  C   C262      1.0  0.18402  0.69490  0.85896  1.0000
  C   C263      1.0  0.20772  0.69195  0.85930  1.0000
  H   H438      1.0  0.21438  0.68061  0.85771  1.0000
  C   C264      1.0  0.14012  0.71040  0.77481  1.0000
  H   H439      1.0  0.22675  0.67183  0.94705  1.0000
  H   H440      1.0  0.22376  0.69880  0.95620  1.0000
  H   H441      1.0  0.14327  0.67931  0.78513  1.0000
  H   H442      1.0  0.17535  0.70567  0.78816  1.0000
  H   H443      1.0  0.23046  0.67673  0.91138  1.0000
  H   H444      1.0  0.17156  0.67941  0.79912  1.0000
  H   H445      1.0  0.12650  0.70345  0.76642  1.0000
  H   H446      1.0  0.13411  0.71347  0.79571  1.0000
  C   C265      1.0  0.16129  0.69991  0.77804  1.0000
  H   H447      1.0  0.14883  0.68977  0.81565  1.0000
  C   C266      1.0  0.23941  0.67432  0.93094  1.0000
  C   C267      1.0  0.21357  0.71833  0.86422  1.0000
  C   C268      1.0  0.15583  0.68629  0.79554  1.0000
  H   H448      1.0  0.16055  0.70112  0.68554  1.0000
  H   H449      1.0  0.17998  0.71032  0.72713  1.0000
  H   H450      1.0  0.21518  0.68386  0.51854  1.0000
  H   H451      1.0  0.09482  0.71769  0.76467  1.0000
  H   H452      1.0  0.13533  0.70999  0.72301  1.0000
  H   H453      1.0  0.16703  0.69565  0.75798  1.0000
  H   H454      1.0  0.15814  0.72010  0.67265  1.0000
  C   C269      1.0  0.23842  0.70173  0.94304  1.0000
  H   H455      1.0  0.18571  0.71121  0.67742  1.0000
  H   H456      1.0  0.22627  0.70239  0.52240  1.0000
  C   C270      1.0  0.22941  0.69120  0.51324  1.0000
  H   H457      1.0  0.08672  0.71879  0.98251  1.0000
  C   C271      1.0  0.16912  0.71816  0.71507  1.0000
  C   C272      1.0  0.18987  0.72128  0.86384  1.0000
  C   C273      1.0  0.14489  0.72023  0.72741  1.0000
  Fe  Fe25      1.0  0.19773  0.79390  0.11649  1.0000
  S   S57       1.0  0.17719  0.77343  0.11319  1.0000
  H   H458      1.0  0.10975  0.83645  0.18530  1.0000
  Fe  Fe26      1.0  0.15510  0.81515  0.11026  1.0000
  S   S58       1.0  0.13235  0.79537  0.10623  1.0000
  S   S59       1.0  0.13533  0.83794  0.11366  1.0000
  Fe  Fe27      1.0  0.15199  0.78496  0.14122  1.0000
  S   S60       1.0  0.13422  0.77085  0.17376  1.0000
  Fe  Fe28      1.0  0.15926  0.78551  0.07844  1.0000
  S   S61       1.0  0.15176  0.77029  0.04234  1.0000
  S   S62       1.0  0.17349  0.80496  0.14684  1.0000
  S   S63       1.0  0.18119  0.80575  0.08020  1.0000
  H   H459      1.0  0.14925  0.90827  0.16748  1.0000
  S   S64       1.0  0.13750  0.75409  0.36739  1.0000
  Fe  Fe29      1.0  0.07064  0.75415  0.36934  1.0000
  S   S65       1.0  0.09156  0.77495  0.37077  1.0000
  S   S66       1.0  0.03184  0.75917  0.36295  1.0000
  Fe  Fe30      1.0  0.11289  0.76453  0.33740  1.0000
  S   S67       1.0  0.12567  0.77934  0.30280  1.0000
  Fe  Fe31      1.0  0.11449  0.76287  0.40079  1.0000
  S   S68       1.0  0.13462  0.77487  0.43367  1.0000
  C   C274      1.0  0.04180  0.77871  0.24469  1.0000
  S   S69       1.0  0.09259  0.74262  0.40191  1.0000
  Fe  Fe32      1.0  0.10487  0.92941  0.09494  1.0000
  S   S70       1.0  0.12000  0.95157  0.10624  1.0000
  S   S71       1.0  0.12915  0.90882  0.08819  1.0000
  Fe  Fe33      1.0  0.05792  0.94474  0.08650  1.0000
  S   S72       1.0  0.02228  0.94497  0.06940  1.0000
  Fe  Fe34      1.0  0.10002  0.96157  0.07059  1.0000
  H   H460      1.0  0.07211  0.84193  0.49472  1.0000
  Fe  Fe35      1.0  0.08854  0.95579  0.13207  1.0000
  H   H461      1.0  0.00299  0.96712  0.29647  1.0000
  S   S73       1.0  0.08695  0.93943  0.05807  1.0000
  S   S74       1.0  0.07437  0.93311  0.12255  1.0000
  C   C275      1.0  0.00316  0.92981  0.11256  1.0000
  H   H462      1.0  0.04150  0.72467  0.27559  1.0000
  H   H463      1.0  0.14549  0.79818  0.01093  1.0000
  H   H464      1.0  0.02015  0.92581  0.11761  1.0000
  C   C276      1.0  0.14575  0.83723  0.19502  1.0000
  H   H465      1.0  0.23608  0.83778  0.12708  1.0000
  H   H466      1.0  0.08032  0.77407  0.19053  1.0000
  C   C277      1.0  0.11623  0.76839  0.48477  1.0000
  H   H467      1.0  0.11167  0.82782  0.47144  1.0000
  H   H468      1.0  0.05709  0.79025  0.02005  1.0000
  H   H469      1.0  0.19043  0.74923  0.26843  1.0000
  C   C278      1.0  0.00312  0.75385  0.37027  1.0000
  H   H470      1.0  0.16387  0.95344  0.06999  1.0000
  H   H471      1.0  0.19489  0.74065  0.22460  1.0000
  C   C279      1.0  0.99797  0.74179  0.38732  1.0000
  H   H472      1.0  0.07811  0.78287  0.23787  1.0000
  C   C280      1.0  0.13353  0.85751  0.10515  1.0000
  C   C281      1.0  0.11523  0.86634  0.11545  1.0000
  C   C282      1.0  0.11342  0.88192  0.11032  1.0000
  C   C283      1.0  0.12997  0.88903  0.09480  1.0000
  C   C284      1.0  0.14831  0.88021  0.08456  1.0000
  C   C285      1.0  0.15005  0.86461  0.08954  1.0000
  H   H473      1.0  0.10230  0.86108  0.12755  1.0000
  H   H474      1.0  0.09923  0.88843  0.11847  1.0000
  H   H475      1.0  0.16131  0.88549  0.07262  1.0000
  H   H476      1.0  0.16428  0.85810  0.08149  1.0000
  H   H477      1.0  0.13435  0.73487  0.28288  1.0000
  C   C286      1.0  0.06504  0.77512  0.23086  1.0000
  H   H478      1.0  0.08271  0.78073  0.05741  1.0000
  C   C287      1.0  0.13343  0.77517  0.46989  1.0000
  H   H479      1.0  0.13811  0.93530  0.04852  1.0000
  H   H480      1.0  0.22470  0.85761  0.23661  1.0000
  C   C288      1.0  0.15556  0.93639  0.04039  1.0000
  H   H481      1.0  0.10312  0.76259  0.47412  1.0000
  H   H482      1.0  0.16372  0.78796  0.47277  1.0000
  H   H483      1.0  0.17361  0.94983  0.01151  1.0000
  C   C289      1.0  0.13216  0.77343  0.20961  1.0000
  C   C290      1.0  0.12133  0.76261  0.22556  1.0000
  C   C291      1.0  0.11921  0.76417  0.25410  1.0000
  C   C292      1.0  0.12787  0.77665  0.26700  1.0000
  C   C293      1.0  0.13870  0.78745  0.25106  1.0000
  C   C294      1.0  0.14090  0.78586  0.22254  1.0000
  H   H484      1.0  0.11441  0.75300  0.21567  1.0000
  H   H485      1.0  0.11066  0.75585  0.26603  1.0000
  H   H486      1.0  0.14545  0.79715  0.26084  1.0000
  H   H487      1.0  0.14925  0.79427  0.21055  1.0000
  H   H488      1.0  0.02892  0.77135  0.23575  1.0000
  C   C295      1.0  0.08698  0.81104  0.48105  1.0000
  S   S75       1.0  0.09156  0.74432  0.33448  1.0000
  H   H489      1.0  0.01163  0.73520  0.39651  1.0000
  C   C296      1.0  0.01735  0.77972  0.28528  1.0000
  C   C297      1.0  0.20972  0.84812  0.15245  1.0000
  C   C298      1.0  0.00569  0.79513  0.27912  1.0000
  H   H490      1.0  0.15261  0.73966  0.18786  1.0000
  H   H491      1.0  0.03777  0.95641  0.20252  1.0000
  H   H492      1.0  0.19650  0.73852  0.31582  1.0000
  H   H493      1.0  0.08647  0.80036  0.49271  1.0000
  C   C299      1.0  0.05063  0.76271  0.28531  1.0000
  H   H494      1.0  0.07989  0.76486  0.01741  1.0000
  C   C300      1.0  0.03914  0.74886  0.27324  1.0000
  N   N15       1.0  0.16897  0.72990  0.27027  1.0000
  H   H495      1.0  0.22597  0.81105  0.49532  1.0000
  C   C301      1.0  0.02800  0.93551  0.18636  1.0000
  H   H496      1.0  0.18812  0.94260  0.05738  1.0000
  H   H497      1.0  0.01525  0.93656  0.00841  1.0000
  C   C302      1.0  0.06345  0.77669  0.19984  1.0000
  H   H498      1.0  0.06688  0.81513  0.31606  1.0000
  H   H499      1.0  0.10003  0.79995  0.44443  1.0000
  C   C303      1.0  0.05457  0.79241  0.31775  1.0000
  H   H500      1.0  0.00289  0.79652  0.25683  1.0000
  H   H501      1.0  0.17847  0.72834  0.18463  1.0000
  H   H502      1.0  0.22095  0.74761  0.18091  1.0000
  H   H503      1.0  0.05104  0.76884  0.19150  1.0000
  H   H504      1.0  0.08871  0.80085  0.32223  1.0000
  C   C304      1.0  0.15664  0.88457  0.17321  1.0000
  H   H505      1.0  0.17905  0.90312  0.16583  1.0000
  H   H506      1.0  0.15831  0.88552  0.19567  1.0000
  N   N16       1.0  0.17318  0.85756  0.17809  1.0000
  H   H507      1.0  0.04325  0.93392  0.17320  1.0000
  C   C305      1.0  0.18928  0.76207  0.31748  1.0000
  H   H508      1.0  0.16049  0.89906  0.13763  1.0000
  H   H509      1.0  0.15662  0.83535  0.21326  1.0000
  H   H510      1.0  0.18961  0.87641  0.15898  1.0000
  C   C306      1.0  0.18449  0.85906  0.20558  1.0000
  H   H511      1.0  0.16751  0.74384  0.32388  1.0000
  H   H512      1.0  0.10672  0.78856  0.04000  1.0000
  H   H513      1.0  0.19655  0.88204  0.20651  1.0000
  H   H514      1.0  0.02081  0.74886  0.27842  1.0000
  H   H515      1.0  0.00538  0.96583  0.11219  1.0000
  H   H516      1.0  0.07920  0.96892  0.00218  1.0000
  H   H517      1.0  0.15008  0.82856  0.17964  1.0000
  H   H518      1.0  0.23333  0.78411  0.48781  1.0000
  H   H519      1.0  0.00981  0.95384  0.15014  1.0000
  H   H520      1.0  0.04196  0.76397  0.00838  1.0000
  H   H521      1.0  0.15871  0.72807  0.40321  1.0000
  H   H522      1.0  0.04401  0.97112  0.28663  1.0000
  C   C307      1.0  0.14648  0.77427  0.00734  1.0000
  H   H523      1.0  0.03678  0.96123  0.15395  1.0000
  H   H524      1.0  0.20769  0.83551  0.11452  1.0000
  H   H525      1.0  0.13866  0.88218  0.16851  1.0000
  H   H526      1.0  0.17184  0.86245  0.22150  1.0000
  H   H527      1.0  0.07181  0.81795  0.48658  1.0000
  C   C308      1.0  0.15661  0.72679  0.42561  1.0000
  C   C309      1.0  0.05643  0.78963  0.28660  1.0000
  H   H528      1.0  0.16241  0.92515  0.03487  1.0000
  H   H529      1.0  0.05314  0.80048  0.27592  1.0000
  C   C310      1.0  0.18494  0.84550  0.16136  1.0000
  H   H530      1.0  0.19142  0.73092  0.43355  1.0000
  H   H531      1.0  0.22630  0.72278  0.44416  1.0000
  C   C311      1.0  0.20374  0.87046  0.20769  1.0000
  H   H532      1.0  0.01622  0.77738  0.30762  1.0000
  H   H533      1.0  0.13932  0.85354  0.16314  1.0000
  H   H534      1.0  0.15046  0.73770  0.43394  1.0000
  H   H535      1.0  0.11927  0.82340  0.21130  1.0000
  S   S76       1.0  0.08114  0.96459  0.17565  1.0000
  C   C312      1.0  0.17245  0.87192  0.16176  1.0000
  H   H536      1.0  0.15096  0.82836  0.48063  1.0000
  C   C313      1.0  0.12107  0.83494  0.20329  1.0000
  C   C314      1.0  0.07555  0.78876  0.01598  1.0000
  H   H537      1.0  0.17877  0.74828  0.17919  1.0000
  H   H538      1.0  0.00787  0.95331  0.20454  1.0000
  H   H539      1.0  0.11839  0.92966  0.01196  1.0000
  H   H540      1.0  0.07465  0.78677  0.28243  1.0000
  S   S77       1.0  0.07004  0.96739  0.09735  1.0000
  C   C315      1.0  0.18213  0.74629  0.31058  1.0000
  H   H541      1.0  0.17496  0.84347  0.14256  1.0000
  C   C316      1.0  0.17003  0.94214  0.06368  1.0000
  H   H542      1.0  0.04099  0.74847  0.25073  1.0000
  C   C317      1.0  0.16176  0.89965  0.16021  1.0000
  C   C318      1.0  0.04973  0.73441  0.28481  1.0000
  C   C319      1.0  0.07085  0.80439  0.32670  1.0000
  H   H543      1.0  0.99903  0.77834  0.44439  1.0000
  C   C320      1.0  0.01981  0.96082  0.16396  1.0000
  H   H544      1.0  0.14776  0.95802  0.02253  1.0000
  C   C321      1.0  0.21627  0.86884  0.23487  1.0000
  H   H545      1.0  0.03129  0.92975  0.20615  1.0000
  H   H546      1.0  0.17068  0.75325  0.22686  1.0000
  H   H547      1.0  0.21137  0.85887  0.14144  1.0000
  H   H548      1.0  0.03663  0.79019  0.23792  1.0000
  H   H549      1.0  0.16164  0.75341  0.27602  1.0000
  H   H550      1.0  0.17527  0.77031  0.31300  1.0000
  H   H551      1.0  0.19140  0.84798  0.21261  1.0000
  H   H552      1.0  0.21641  0.86918  0.19113  1.0000
  C   C322      1.0  0.17628  0.74163  0.22180  1.0000
  H   H553      1.0  0.16657  0.86976  0.14064  1.0000
  H   H554      1.0  0.18570  0.83474  0.17276  1.0000
  H   H555      1.0  0.13987  0.86105  0.19642  1.0000
  H   H556      1.0  0.05832  0.78830  0.19397  1.0000
  C   C323      1.0  0.21828  0.83577  0.13324  1.0000
  H   H557      1.0  0.12294  0.81035  0.48304  1.0000
  Fe  Fe36      1.0  0.11500  0.73454  0.36691  1.0000
  H   H558      1.0  0.06815  0.73369  0.28008  1.0000
  C   C324      1.0  0.15565  0.94726  0.01562  1.0000
  H   H559      1.0  0.06919  0.80616  0.34904  1.0000
  H   H560      1.0  0.01593  0.80450  0.28622  1.0000
  C   C325      1.0  0.17570  0.74510  0.28003  1.0000
  C   C326      1.0  0.08530  0.80718  0.45078  1.0000
  H   H561      1.0  0.01327  0.93034  0.17651  1.0000
  H   H562      1.0  0.00636  0.77138  0.27570  1.0000
  H   H563      1.0  0.99291  0.95852  0.02308  1.0000
  H   H564      1.0  0.08428  0.80064  0.05286  1.0000
  C   C327      1.0  0.02306  0.95210  0.19123  1.0000
  H   H565      1.0  0.04721  0.73388  0.30729  1.0000
  H   H566      1.0  0.11208  0.94917  0.00897  1.0000
  C   C328      1.0  0.15034  0.78268  0.48411  1.0000
  H   H567      1.0  0.06926  0.76154  0.28161  1.0000
  H   H568      1.0  0.16882  0.93449  0.08154  1.0000
  S   S78       1.0  0.23597  0.79307  0.12621  1.0000
  H   H569      1.0  0.20456  0.76507  0.30557  1.0000
  C   C329      1.0  0.10939  0.81901  0.48727  1.0000
  N   N17       1.0  0.04152  0.77771  0.27544  1.0000
  H   H570      1.0  0.04876  0.76180  0.30782  1.0000
  H   H571      1.0  0.20430  0.87050  0.25224  1.0000
  H   H572      1.0  0.19331  0.76272  0.33956  1.0000
  H   H573      1.0  0.03723  0.79626  0.32378  1.0000
  H   H574      1.0  0.11572  0.84294  0.21946  1.0000
  H   H575      1.0  0.07101  0.76353  0.23541  1.0000
  C   C330      1.0  0.08808  0.78967  0.04320  1.0000
  C   C331      1.0  0.14893  0.85302  0.18265  1.0000
  C   C332      1.0  0.17122  0.73926  0.19158  1.0000
  H   H576      1.0  0.06957  0.80099  0.44707  1.0000
  H   H577      1.0  0.22103  0.84777  0.17051  1.0000
  H   H578      1.0  0.08479  0.81747  0.43804  1.0000
  C   C333      1.0  0.08100  0.77372  0.00148  1.0000
  H   H579      1.0  0.05879  0.78206  0.32930  1.0000
  H   H580      1.0  0.14510  0.73340  0.23681  1.0000
  H   H581      1.0  0.22954  0.76192  0.15754  1.0000
  H   H582      1.0  0.02739  0.96536  0.48163  1.0000
  H   H583      1.0  0.21726  0.73159  0.26996  1.0000
  H   H584      1.0  0.23273  0.76470  0.19361  1.0000
  C   C334      1.0  0.23374  0.75623  0.17717  1.0000
  H   H585      1.0  0.23202  0.75827  0.48187  1.0000
  H   H586      1.0  0.21789  0.82470  0.14355  1.0000
  H   H587      1.0  0.16090  0.74795  0.48882  1.0000
  H   H588      1.0  0.07945  0.92317  0.99793  1.0000
  H   H589      1.0  0.08123  0.79823  0.00318  1.0000
  C   C335      1.0  0.16342  0.73040  0.24002  1.0000
  H   H590      1.0  0.99250  0.75897  0.44920  1.0000
  C   C336      1.0  0.99960  0.93916  0.08995  1.0000
  H   H591      1.0  0.19984  0.73719  0.49425  1.0000
  C   C337      1.0  0.14369  0.78885  0.99728  1.0000
  H   H592      1.0  0.18905  0.83556  0.49442  1.0000
  C   C338      1.0  0.11941  0.93937  0.99775  1.0000
  H   H593      1.0  0.22950  0.87737  0.23614  1.0000
  H   H594      1.0  0.14613  0.75095  0.99690  1.0000
  C   C339      1.0  0.14763  0.72584  0.28550  1.0000
  H   H595      1.0  0.15066  0.72499  0.30784  1.0000
  H   H596      1.0  0.00086  0.75659  0.00189  1.0000
  H   H597      1.0  0.06612  0.74136  0.99769  1.0000
  H   H598      1.0  0.21308  0.72281  0.39419  1.0000
  H   H599      1.0  0.09606  0.74454  0.99601  1.0000
  Fe  Fe37      1.0  0.20205  0.80091  0.60394  1.0000
  S   S79       1.0  0.18093  0.78218  0.61890  1.0000
  C   C340      1.0  0.07640  0.75629  0.96401  1.0000
  Fe  Fe38      1.0  0.16107  0.82426  0.60795  1.0000
  S   S80       1.0  0.13828  0.80640  0.62442  1.0000
  S   S81       1.0  0.14473  0.84648  0.59124  1.0000
  Fe  Fe39      1.0  0.16797  0.79858  0.65042  1.0000
  S   S82       1.0  0.17167  0.79105  0.69513  1.0000
  Fe  Fe40      1.0  0.15357  0.79173  0.59136  1.0000
  S   S83       1.0  0.13151  0.77761  0.56394  1.0000
  S   S84       1.0  0.19019  0.81735  0.63610  1.0000
  S   S85       1.0  0.17534  0.80946  0.57431  1.0000
  H   H600      1.0  0.19986  0.73726  0.80165  1.0000
  S   S86       1.0  0.13692  0.75686  0.85281  1.0000
  Fe  Fe41      1.0  0.07381  0.74717  0.87271  1.0000
  S   S87       1.0  0.08513  0.77028  0.86302  1.0000
  S   S88       1.0  0.03796  0.74453  0.89137  1.0000
  Fe  Fe42      1.0  0.10507  0.76025  0.82812  1.0000
  S   S89       1.0  0.10076  0.77091  0.78591  1.0000
  Fe  Fe43      1.0  0.11592  0.76485  0.88863  1.0000
  S   S90       1.0  0.12762  0.78299  0.91722  1.0000
  S   S91       1.0  0.09204  0.73723  0.83609  1.0000
  S   S92       1.0  0.10404  0.74216  0.90029  1.0000
  Fe  Fe44      1.0  0.10305  0.93637  0.60292  1.0000
  S   S93       1.0  0.11760  0.95955  0.60293  1.0000
  S   S94       1.0  0.12139  0.91536  0.62112  1.0000
  Fe  Fe45      1.0  0.05704  0.94888  0.58456  1.0000
  S   S95       1.0  0.02308  0.94172  0.56870  1.0000
  Fe  Fe46      1.0  0.09909  0.96369  0.56281  1.0000
  H   H601      1.0  0.09177  0.79975  0.58422  1.0000
  H   H602      1.0  0.07683  0.74234  0.77462  1.0000
  H   H603      1.0  0.07758  0.81653  0.81839  1.0000
  S   S96       1.0  0.08749  0.93995  0.56134  1.0000
  S   S97       1.0  0.07168  0.94417  0.62611  1.0000
  C   C341      1.0  0.08703  0.81183  0.58526  1.0000
  H   H604      1.0  0.15497  0.94807  0.65901  1.0000
  H   H605      1.0  0.21669  0.73385  0.59559  1.0000
  H   H606      1.0  0.01932  0.94563  0.62749  1.0000
  H   H607      1.0  0.06965  0.80651  0.84881  1.0000
  C   C342      1.0  0.00328  0.94195  0.61977  1.0000
  H   H608      1.0  0.09316  0.96412  0.70067  1.0000
  H   H609      1.0  0.01753  0.88677  0.64291  1.0000
  H   H610      1.0  0.22825  0.73985  0.54798  1.0000
  H   H611      1.0  0.16095  0.72873  0.81056  1.0000
  H   H612      1.0  0.22494  0.72749  0.86633  1.0000
  C   C343      1.0  0.00898  0.74556  0.87974  1.0000
  H   H613      1.0  0.16056  0.72994  0.50542  1.0000
  H   H614      1.0  0.12912  0.96214  0.97124  1.0000
  C   C344      1.0  0.13861  0.76477  0.96162  1.0000
  H   H615      1.0  0.08036  0.79638  0.81965  1.0000
  C   C345      1.0  0.13799  0.86551  0.60033  1.0000
  C   C346      1.0  0.14224  0.87127  0.62627  1.0000
  C   C347      1.0  0.13687  0.88643  0.63218  1.0000
  C   C348      1.0  0.12718  0.89616  0.61237  1.0000
  C   C349      1.0  0.12276  0.89038  0.58648  1.0000
  C   C350      1.0  0.12802  0.87519  0.58060  1.0000
  H   H616      1.0  0.14991  0.86408  0.64173  1.0000
  H   H617      1.0  0.14052  0.89069  0.65225  1.0000
  H   H618      1.0  0.11587  0.89769  0.57075  1.0000
  H   H619      1.0  0.12480  0.87101  0.56038  1.0000
  C   C351      1.0  0.13278  0.77678  0.52772  1.0000
  C   C352      1.0  0.10246  0.82082  0.56665  1.0000
  H   H620      1.0  0.21847  0.80752  0.53048  1.0000
  C   C353      1.0  0.13546  0.77934  0.95166  1.0000
  N   N18       1.0  0.14294  0.72420  0.75744  1.0000
  C   C354      1.0  0.01868  0.89509  0.62603  1.0000
  C   C355      1.0  0.14360  0.85111  0.85196  1.0000
  H   H621      1.0  0.13673  0.75541  0.94808  1.0000
  H   H622      1.0  0.13589  0.80267  0.96205  1.0000
  H   H623      1.0  0.16335  0.78908  0.52347  1.0000
  C   C356      1.0  0.15162  0.78491  0.71955  1.0000
  C   C357      1.0  0.15951  0.77963  0.74507  1.0000
  C   C358      1.0  0.14423  0.77529  0.76563  1.0000
  C   C359      1.0  0.12086  0.77604  0.76077  1.0000
  C   C360      1.0  0.11298  0.78116  0.73520  1.0000
  C   C361      1.0  0.12825  0.78557  0.71467  1.0000
  H   H624      1.0  0.17756  0.77912  0.74904  1.0000
  H   H625      1.0  0.15050  0.77165  0.78533  1.0000
  H   H626      1.0  0.09492  0.78180  0.73126  1.0000
  H   H627      1.0  0.12194  0.78965  0.69520  1.0000
  H   H628      1.0  0.19094  0.95269  0.66578  1.0000
  C   C362      1.0  0.16311  0.73820  0.79626  1.0000
  N   N19       1.0  0.11224  0.82538  0.51563  1.0000
  H   H629      1.0  0.03307  0.77932  0.98786  1.0000
  H   H630      1.0  0.06922  0.83863  0.53105  1.0000
  H   H631      1.0  0.06897  0.89139  0.66469  1.0000
  H   H632      1.0  0.15070  0.91832  0.99384  1.0000
  H   H633      1.0  0.13650  0.96550  0.70851  1.0000
  H   H634      1.0  0.08692  0.91623  0.66824  1.0000
  H   H635      1.0  0.05333  0.91673  0.53856  1.0000
  H   H636      1.0  0.12011  0.81885  0.57381  1.0000
  H   H637      1.0  0.18364  0.77106  0.85602  1.0000
  H   H638      1.0  0.06371  0.73371  0.74586  1.0000
  H   H639      1.0  0.10896  0.92620  0.96213  1.0000
  H   H640      1.0  0.23038  0.73721  0.91700  1.0000
  H   H641      1.0  0.18600  0.90387  0.98297  1.0000
  C   C363      1.0  0.15011  0.78341  0.51283  1.0000
  H   H642      1.0  0.17942  0.90773  0.94746  1.0000
  H   H643      1.0  0.20357  0.78064  0.87685  1.0000
  H   H644      1.0  0.18929  0.74232  0.95521  1.0000
  C   C364      1.0  0.22258  0.78756  0.50540  1.0000
  H   H645      1.0  0.10165  0.94580  0.95944  1.0000
  C   C365      1.0  0.06772  0.78306  0.95738  1.0000
  H   H646      1.0  0.15336  0.93155  0.70020  1.0000
  H   H647      1.0  0.02780  0.75963  0.94829  1.0000
  C   C366      1.0  0.06986  0.91421  0.67701  1.0000
  C   C367      1.0  0.05838  0.90172  0.66165  1.0000
  H   H648      1.0  0.18136  0.83445  0.52999  1.0000
  H   H649      1.0  0.07898  0.86498  0.54002  1.0000
  C   C368      1.0  0.06531  0.90112  0.57012  1.0000
  C   C369      1.0  0.23149  0.72728  0.95864  1.0000
  H   H650      1.0  0.08191  0.81542  0.53215  1.0000
  C   C370      1.0  0.06224  0.90564  0.54019  1.0000
  C   C371      1.0  0.04440  0.86747  0.59724  1.0000
  H   H651      1.0  0.18339  0.93485  0.95568  1.0000
  C   C372      1.0  0.17800  0.82989  0.50939  1.0000
  H   H652      1.0  0.05366  0.80552  0.92093  1.0000
  H   H653      1.0  0.07197  0.91100  0.69880  1.0000
  H   H654      1.0  0.05970  0.84865  0.61985  1.0000
  C   C373      1.0  0.05629  0.90547  0.63073  1.0000
  H   H655      1.0  0.01447  0.90613  0.63560  1.0000
  H   H656      1.0  0.08896  0.81555  0.60669  1.0000
  C   C374      1.0  0.14269  0.95083  0.67547  1.0000
  H   H657      1.0  0.07646  0.90937  0.57955  1.0000
  H   H658      1.0  0.07415  0.89003  0.57049  1.0000
  H   H659      1.0  0.06897  0.81355  0.57932  1.0000
  H   H660      1.0  0.06070  0.79350  0.96666  1.0000
  H   H661      1.0  0.07785  0.79541  0.90646  1.0000
  H   H662      1.0  0.16438  0.95768  0.70893  1.0000
  H   H663      1.0  0.21830  0.73282  0.67348  1.0000
  C   C375      1.0  0.10031  0.81593  0.53652  1.0000
  H   H664      1.0  0.09916  0.77382  0.99530  1.0000
  H   H665      1.0  0.19272  0.74972  0.92124  1.0000
  H   H666      1.0  0.05232  0.89726  0.52915  1.0000
  C   C376      1.0  0.19883  0.75837  0.51604  1.0000
  C   C377      1.0  0.00072  0.93918  0.59194  1.0000
  H   H667      1.0  0.04893  0.91701  0.62867  1.0000
  H   H668      1.0  0.18473  0.74955  0.82465  1.0000
  H   H669      1.0  0.21810  0.72315  0.97257  1.0000
  N   N20       1.0  0.14823  0.80965  0.82755  1.0000
  C   C378      1.0  0.12379  0.80773  0.81934  1.0000
  C   C379      1.0  0.16354  0.80975  0.80259  1.0000
  C   C380      1.0  0.15518  0.79626  0.84488  1.0000
  C   C381      1.0  0.15119  0.82347  0.84439  1.0000
  C   C382      1.0  0.14273  0.83839  0.83140  1.0000
  C   C383      1.0  0.10605  0.80788  0.84284  1.0000
  C   C384      1.0  0.18040  0.79536  0.85416  1.0000
  C   C385      1.0  0.15360  0.81662  0.77580  1.0000
  C   C386      1.0  0.17215  0.81875  0.75435  1.0000
  N   N21       1.0  0.06632  0.77016  0.97722  1.0000
  C   C387      1.0  0.08197  0.80677  0.83164  1.0000
  C   C388      1.0  0.18574  0.78079  0.86957  1.0000
  H   H670      1.0  0.12223  0.79706  0.80807  1.0000
  H   H671      1.0  0.11793  0.81651  0.80475  1.0000
  H   H672      1.0  0.17960  0.81545  0.80721  1.0000
  H   H673      1.0  0.16891  0.79813  0.79690  1.0000
  H   H674      1.0  0.15167  0.78580  0.83370  1.0000
  H   H675      1.0  0.14500  0.79588  0.86399  1.0000
  H   H676      1.0  0.14296  0.82220  0.86475  1.0000
  H   H677      1.0  0.15391  0.84135  0.81406  1.0000
  H   H678      1.0  0.12497  0.83789  0.82418  1.0000
  C   C389      1.0  0.07855  0.84484  0.51517  1.0000
  H   H679      1.0  0.10899  0.79834  0.85698  1.0000
  H   H680      1.0  0.10657  0.81836  0.85471  1.0000
  H   H681      1.0  0.18403  0.80461  0.86827  1.0000
  H   H682      1.0  0.19223  0.79589  0.83655  1.0000
  H   H683      1.0  0.14098  0.80902  0.76706  1.0000
  H   H684      1.0  0.14496  0.82759  0.77906  1.0000
  H   H685      1.0  0.16432  0.82249  0.73475  1.0000
  H   H686      1.0  0.18412  0.82732  0.76104  1.0000
  C   C390      1.0  0.22579  0.77683  0.53021  1.0000
  H   H687      1.0  0.09778  0.83279  0.56930  1.0000
  C   C391      1.0  0.09924  0.72728  0.75144  1.0000
  H   H688      1.0  0.03457  0.91228  0.58469  1.0000
  Fe  Fe47      1.0  0.08521  0.96735  0.62386  1.0000
  H   H689      1.0  0.17918  0.72653  0.76315  1.0000
  H   H690      1.0  0.21118  0.75557  0.94816  1.0000
  C   C392      1.0  0.05490  0.78163  0.93006  1.0000
  H   H691      1.0  0.02703  0.86460  0.60377  1.0000
  H   H692      1.0  0.17439  0.77971  0.88761  1.0000
  C   C393      1.0  0.21996  0.74570  0.60017  1.0000
  H   H693      1.0  0.18176  0.80811  0.75058  1.0000
  C   C394      1.0  0.01837  0.96824  0.50092  1.0000
  C   C395      1.0  0.15310  0.83255  0.50169  1.0000
  H   H694      1.0  0.12470  0.93857  0.70704  1.0000
  H   H695      1.0  0.09300  0.75877  0.95437  1.0000
  C   C396      1.0  0.10308  0.93616  0.97374  1.0000
  C   C397      1.0  0.21348  0.75571  0.57589  1.0000
  C   C398      1.0  0.11592  0.76922  0.51353  1.0000
  C   C399      1.0  0.00240  0.75883  0.97964  1.0000
  H   H696      1.0  0.23415  0.74857  0.68448  1.0000
  C   C400      1.0  0.13764  0.93642  0.69087  1.0000
  H   H697      1.0  0.12657  0.95482  0.66574  1.0000
  H   H698      1.0  0.03174  0.96585  0.84104  1.0000
  H   H699      1.0  0.06580  0.75258  0.94680  1.0000
  H   H700      1.0  0.20846  0.72413  0.92384  1.0000
  H   H701      1.0  0.07913  0.90642  0.53024  1.0000
  H   H702      1.0  0.18845  0.75514  0.78957  1.0000
  H   H703      1.0  0.20692  0.91193  0.96092  1.0000
  C   C401      1.0  0.00410  0.94259  0.99347  1.0000
  H   H704      1.0  0.13795  0.86176  0.84201  1.0000
  N   N22       1.0  0.04250  0.89492  0.61407  1.0000
  H   H705      1.0  0.07237  0.88024  0.61262  1.0000
  H   H706      1.0  0.06179  0.96922  0.84096  1.0000
  H   H707      1.0  0.04403  0.87111  0.57560  1.0000
  C   C402      1.0  0.07918  0.93311  0.98422  1.0000
  H   H708      1.0  0.08586  0.78517  0.95254  1.0000
  C   C403      1.0  0.18544  0.74549  0.80332  1.0000
  C   C404      1.0  0.15415  0.92769  0.97952  1.0000
  H   H709      1.0  0.18691  0.76399  0.53068  1.0000
  C   C405      1.0  0.02721  0.75751  0.97053  1.0000
  H   H710      1.0  0.05934  0.92469  0.67594  1.0000
  H   H711      1.0  0.07402  0.90588  0.62305  1.0000
  H   H712      1.0  0.16432  0.74321  0.75309  1.0000
  H   H713      1.0  0.16944  0.82496  0.84899  1.0000
  H   H714      1.0  0.03633  0.78169  0.93374  1.0000
  H   H715      1.0  0.01632  0.74719  0.83682  1.0000
  N   N23       1.0  0.14383  0.94213  0.99018  1.0000
  H   H716      1.0  0.20969  0.74910  0.61827  1.0000
  H   H717      1.0  0.15628  0.74658  0.52528  1.0000
  H   H718      1.0  0.07693  0.85543  0.59206  1.0000
  H   H719      1.0  0.19544  0.76408  0.49616  1.0000
  C   C406      1.0  0.04218  0.76826  0.98698  1.0000
  H   H720      1.0  0.05234  0.84462  0.58504  1.0000
  H   H721      1.0  0.10685  0.80415  0.53530  1.0000
  C   C407      1.0  0.99863  0.89263  0.60623  1.0000
  H   H722      1.0  0.99723  0.93429  0.97918  1.0000
  H   H723      1.0  0.21333  0.78092  0.54576  1.0000
  N   N24       1.0  0.22306  0.76042  0.52474  1.0000
  H   H724      1.0  0.12391  0.74484  0.74989  1.0000
  C   C408      1.0  0.19415  0.96403  0.65775  1.0000
  C   C409      1.0  0.13822  0.79136  0.96956  1.0000
  H   H725      1.0  0.14152  0.94932  0.94782  1.0000
  H   H726      1.0  0.03301  0.74575  0.97386  1.0000
  H   H727      1.0  0.17758  0.72908  0.71423  1.0000
  H   H728      1.0  0.06783  0.93092  0.96674  1.0000
  H   H729      1.0  0.16652  0.96676  0.92300  1.0000
  H   H730      1.0  0.18099  0.95818  0.96819  1.0000
  H   H731      1.0  0.13216  0.84899  0.86955  1.0000
  H   H732      1.0  0.10250  0.76399  0.52486  1.0000
  H   H733      1.0  0.14926  0.74657  0.79978  1.0000
  H   H734      1.0  0.05217  0.87512  0.63731  1.0000
  H   H735      1.0  0.21556  0.76737  0.58252  1.0000
  S   S98       1.0  0.23814  0.79611  0.58784  1.0000
  C   C410      1.0  0.10443  0.84157  0.51666  1.0000
  H   H736      1.0  0.23820  0.74682  0.60520  1.0000
  H   H737      1.0  0.05002  0.79362  0.89184  1.0000
  C   C411      1.0  0.20198  0.74596  0.93991  1.0000
  H   H738      1.0  0.04155  0.90013  0.67124  1.0000
  H   H739      1.0  0.14327  0.81286  0.52442  1.0000
  C   C412      1.0  0.17991  0.92747  0.97335  1.0000
  Fe  Fe48      1.0  0.12325  0.73432  0.86276  1.0000
  C   C413      1.0  0.15136  0.96294  0.69516  1.0000
  H   H740      1.0  0.14967  0.84479  0.50166  1.0000
  C   C414      1.0  0.07956  0.73874  0.75317  1.0000
  H   H741      1.0  0.16120  0.85237  0.85953  1.0000
  C   C415      1.0  0.05371  0.87959  0.61618  1.0000
  H   H742      1.0  0.14050  0.82988  0.54237  1.0000
  C   C416      1.0  0.05944  0.79490  0.91125  1.0000
  C   C417      1.0  0.13726  0.82468  0.52230  1.0000
  H   H743      1.0  0.08299  0.74869  0.74033  1.0000
  H   H744      1.0  0.06021  0.77136  0.91898  1.0000
  H   H745      1.0  0.06994  0.72603  0.95441  1.0000
  H   H746      1.0  0.19521  0.73514  0.53062  1.0000
  C   C418      1.0  0.23554  0.73743  0.67468  1.0000
  C   C419      1.0  0.22891  0.80342  0.51299  1.0000
  H   H747      1.0  0.13087  0.92815  0.67645  1.0000
  C   C420      1.0  0.00306  0.74675  0.85209  1.0000
  H   H748      1.0  0.11093  0.84692  0.53545  1.0000
  H   H749      1.0  0.19530  0.75406  0.57138  1.0000
  C   C421      1.0  0.04211  0.90074  0.58508  1.0000
  H   H750      1.0  0.23885  0.73707  0.96898  1.0000
  H   H751      1.0  0.03088  0.89415  0.57202  1.0000
  H   H752      1.0  0.14587  0.92457  0.96011  1.0000
  C   C422      1.0  0.05928  0.85319  0.59870  1.0000
  C   C423      1.0  0.18849  0.91177  0.96570  1.0000
  C   C424      1.0  0.23965  0.75593  0.50229  1.0000
  C   C425      1.0  0.19135  0.74213  0.51240  1.0000
  H   H753      1.0  0.05445  0.86360  0.51838  1.0000
  C   C426      1.0  0.08460  0.72824  0.96788  1.0000
  H   H754      1.0  0.01455  0.95061  0.98196  1.0000
  C   C427      1.0  0.21859  0.73310  0.93283  1.0000
  H   H755      1.0  0.08139  0.86830  0.50367  1.0000
  C   C428      1.0  0.14388  0.95423  0.96841  1.0000
  H   H756      1.0  0.18319  0.73259  0.86581  1.0000
  C   C429      1.0  0.07308  0.86145  0.51959  1.0000
  H   H757      1.0  0.10149  0.96762  0.75000  1.0000
  C   C430      1.0  0.99272  0.96750  0.49669  1.0000
  C   C431      1.0  0.22878  0.75208  0.55085  1.0000
  H   H758      1.0  0.99679  0.90223  0.59183  1.0000
  H   H759      1.0  0.04545  0.97133  0.79464  1.0000
  C   C432      1.0  0.08064  0.74277  0.98354  1.0000
  H   H760      1.0  0.10029  0.72879  0.95537  1.0000
  H   H761      1.0  0.18240  0.81775  0.50926  1.0000
  H   H762      1.0  0.23557  0.73139  0.50223  1.0000
  H   H763      1.0  0.99521  0.77016  0.97493  1.0000
  H   H764      1.0  0.18991  0.93094  0.99120  1.0000
  H   H765      1.0  0.11913  0.73701  0.78274  1.0000
  C   C433      1.0  0.16461  0.96450  0.96732  1.0000
  C   C434      1.0  0.16305  0.73302  0.76618  1.0000
  H   H766      1.0  0.00116  0.88230  0.59424  1.0000
  C   C435      1.0  0.12185  0.73406  0.76096  1.0000
  H   H767      1.0  0.02415  0.96017  0.51694  1.0000
  C   C436      1.0  0.14402  0.76227  0.98931  1.0000
  C   C437      1.0  0.16574  0.74167  0.50766  1.0000
  H   H768      1.0  0.13672  0.72919  0.71450  1.0000
  H   H769      1.0  0.99547  0.74382  0.92048  1.0000
  H   H770      1.0  0.10029  0.72340  0.73002  1.0000
  H   H771      1.0  0.22563  0.95613  0.63894  1.0000
  H   H772      1.0  0.15057  0.97189  0.64099  1.0000
  H   H773      1.0  0.07204  0.94286  0.99556  1.0000
  C   C438      1.0  0.21978  0.96494  0.65341  1.0000
  H   H774      1.0  0.11205  0.84793  0.49954  1.0000
  H   H775      1.0  0.20457  0.78801  0.49878  1.0000
  H   H776      1.0  0.22897  0.96319  0.67299  1.0000
  H   H777      1.0  0.18606  0.96547  0.63748  1.0000
  H   H778      1.0  0.24160  0.77872  0.63872  1.0000
  H   H779      1.0  0.99228  0.75055  0.96861  1.0000
  H   H780      1.0  0.16391  0.97228  0.98494  1.0000
  H   H781      1.0  0.28653  0.16883  0.46186  1.0000
  H   H782      1.0  0.26958  0.20432  0.27941  1.0000
  C   C439      1.0  0.29975  0.20344  0.36855  1.0000
  C   C440      1.0  0.30111  0.18786  0.36665  1.0000
  C   C441      1.0  0.28148  0.17943  0.36483  1.0000
  C   C442      1.0  0.25979  0.18628  0.36450  1.0000
  C   C443      1.0  0.25809  0.20196  0.36641  1.0000
  C   C444      1.0  0.28447  0.19977  0.29074  1.0000
  H   H783      1.0  0.31759  0.18219  0.36649  1.0000
  H   H784      1.0  0.28318  0.16740  0.36340  1.0000
  C   C445      1.0  0.30682  0.20729  0.28211  1.0000
  S   S99       1.0  0.32605  0.21301  0.36950  1.0000
  H   H785      1.0  0.31990  0.20245  0.29636  1.0000
  H   H786      1.0  0.27150  0.21775  0.24196  1.0000
  H   H787      1.0  0.26999  0.17787  0.29361  1.0000
  H   H788      1.0  0.27824  0.17871  0.43116  1.0000
  H   H789      1.0  0.34844  0.21081  0.26335  1.0000
  C   C446      1.0  0.27686  0.17873  0.45382  1.0000
  H   H790      1.0  0.37764  0.21966  0.29467  1.0000
  H   H791      1.0  0.28470  0.18895  0.46178  1.0000
  H   H792      1.0  0.28129  0.20152  0.31282  1.0000
  C   C447      1.0  0.27801  0.21051  0.36877  1.0000
  H   H793      1.0  0.31160  0.20304  0.26151  1.0000
  H   H794      1.0  0.24548  0.16752  0.45451  1.0000
  H   H795      1.0  0.28830  0.18029  0.26442  1.0000
  H   H796      1.0  0.24707  0.20191  0.45613  1.0000
  C   C448      1.0  0.25200  0.17806  0.46274  1.0000
  C   C449      1.0  0.28595  0.18291  0.28639  1.0000
  H   H797      1.0  0.30025  0.17782  0.29832  1.0000
  H   H798      1.0  0.25162  0.17774  0.48534  1.0000
  H   H799      1.0  0.25098  0.20281  0.86737  1.0000
  N   N25       1.0  0.25505  0.18540  0.77401  1.0000
  C   C450      1.0  0.30916  0.19965  0.87118  1.0000
  C   C451      1.0  0.31083  0.18417  0.87506  1.0000
  C   C452      1.0  0.29142  0.17552  0.87629  1.0000
  C   C453      1.0  0.26971  0.18201  0.87291  1.0000
  C   C454      1.0  0.26765  0.19760  0.86955  1.0000
  C   C455      1.0  0.28735  0.20644  0.86871  1.0000
  H   H800      1.0  0.32741  0.17875  0.87719  1.0000
  H   H801      1.0  0.29336  0.16358  0.87939  1.0000
  C   C456      1.0  0.28531  0.15401  0.81713  1.0000
  H   H802      1.0  0.25987  0.15236  0.78628  1.0000
  H   H803      1.0  0.27329  0.15223  0.83426  1.0000
  H   H804      1.0  0.38411  0.21651  0.98629  1.0000
  C   C457      1.0  0.31556  0.20119  0.75994  1.0000
  H   H805      1.0  0.29141  0.19605  0.93183  1.0000
  H   H806      1.0  0.25368  0.18527  0.92924  1.0000
  H   H807      1.0  0.30920  0.21235  0.75288  1.0000
  C   C458      1.0  0.27596  0.19058  0.75913  1.0000
  H   H808      1.0  0.28512  0.16144  0.77539  1.0000
  H   H809      1.0  0.28338  0.20630  0.96204  1.0000
  H   H810      1.0  0.27175  0.20095  0.74730  1.0000
  C   C459      1.0  0.27275  0.16052  0.79237  1.0000
  S   S100      1.0  0.33524  0.20928  0.86904  1.0000
  H   H811      1.0  0.28159  0.18224  0.74355  1.0000
  H   H812      1.0  0.30502  0.18273  0.78427  1.0000
  H   H813      1.0  0.25200  0.20516  0.92800  1.0000
  C   C460      1.0  0.25135  0.21029  0.80081  1.0000
  C   C461      1.0  0.29738  0.19343  0.77667  1.0000
  C   C462      1.0  0.28037  0.19601  0.95027  1.0000
  H   H814      1.0  0.29340  0.14306  0.81180  1.0000
  H   H815      1.0  0.27129  0.18183  0.81345  1.0000
  H   H816      1.0  0.24694  0.18932  0.71722  1.0000
  C   C463      1.0  0.26074  0.17581  0.79869  1.0000
  C   C464      1.0  0.25553  0.19542  0.94160  1.0000
  H   H817      1.0  0.28573  0.21839  0.86580  1.0000
  H   H818      1.0  0.26028  0.20510  0.81830  1.0000
  H   H819      1.0  0.29879  0.16157  0.82376  1.0000
  H   H820      1.0  0.24502  0.17334  0.81041  1.0000
  S   S101      1.0  0.24641  0.16971  0.87341  1.0000
  H   H821      1.0  0.28523  0.18605  0.96281  1.0000
  H   H822      1.0  0.42446  0.21901  0.80302  1.0000
  H   H823      1.0  0.25119  0.16612  0.74814  1.0000
  H   H824      1.0  0.24629  0.18782  0.98226  1.0000
  H   H825      1.0  0.29363  0.20042  0.79472  1.0000
  H   H826      1.0  0.33078  0.20276  0.77284  1.0000
  H   H827      1.0  0.32068  0.19434  0.74201  1.0000
  H   H828      1.0  0.26367  0.21663  0.78845  1.0000
  Fe  Fe49      1.0  0.35616  0.42652  0.11995  1.0000
  S   S102      1.0  0.34620  0.45057  0.10909  1.0000
  S   S103      1.0  0.32932  0.40842  0.12605  1.0000
  Fe  Fe50      1.0  0.40640  0.43373  0.12045  1.0000
  S   S104      1.0  0.43979  0.42126  0.12794  1.0000
  Fe  Fe51      1.0  0.37222  0.45727  0.14063  1.0000
  C   C465      1.0  0.27360  0.42246  0.10357  1.0000
  Fe  Fe52      1.0  0.37516  0.44980  0.07858  1.0000
  H   H829      1.0  0.27454  0.23183  0.07032  1.0000
  S   S105      1.0  0.37980  0.43349  0.15345  1.0000
  S   S106      1.0  0.38336  0.42544  0.08794  1.0000
  Fe  Fe53      1.0  0.30597  0.31537  0.11323  1.0000
  S   S107      1.0  0.32750  0.29459  0.12306  1.0000
  S   S108      1.0  0.32654  0.33701  0.11016  1.0000
  Fe  Fe54      1.0  0.26306  0.29600  0.10703  1.0000
  S   S109      1.0  0.28225  0.27484  0.11670  1.0000
  Fe  Fe55      1.0  0.29865  0.28778  0.15032  1.0000
  S   S110      1.0  0.29612  0.27899  0.19440  1.0000
  Fe  Fe56      1.0  0.30899  0.28378  0.08842  1.0000
  S   S111      1.0  0.32473  0.26792  0.05663  1.0000
  S   S112      1.0  0.27785  0.30887  0.14197  1.0000
  S   S113      1.0  0.28908  0.30460  0.07724  1.0000
  Fe  Fe57      1.0  0.39504  0.24738  0.38130  1.0000
  S   S114      1.0  0.38142  0.27077  0.37341  1.0000
  S   S115      1.0  0.43233  0.24177  0.39515  1.0000
  Fe  Fe58      1.0  0.34624  0.23460  0.37195  1.0000
  S   S116      1.0  0.33075  0.25733  0.36335  1.0000
  Fe  Fe59      1.0  0.36201  0.26123  0.33804  1.0000
  S   S117      1.0  0.36499  0.27122  0.29481  1.0000
  Fe  Fe60      1.0  0.35133  0.26463  0.39948  1.0000
  S   S118      1.0  0.33459  0.28089  0.42997  1.0000
  S   S119      1.0  0.37690  0.23802  0.34488  1.0000
  S   S120      1.0  0.36551  0.24169  0.40931  1.0000
  C   C466      1.0  0.32589  0.27098  0.02075  1.0000
  C   C467      1.0  0.38797  0.30629  0.40687  1.0000
  C   C468      1.0  0.44332  0.44344  0.49258  1.0000
  C   C469      1.0  0.33357  0.27914  0.46611  1.0000
  C   C470      1.0  0.33945  0.32920  0.24472  1.0000
  H   H830      1.0  0.34667  0.42981  0.04780  1.0000
  H   H831      1.0  0.42452  0.25963  0.44487  1.0000
  H   H832      1.0  0.31555  0.30025  0.47110  1.0000
  H   H833      1.0  0.35126  0.25782  0.46828  1.0000
  H   H834      1.0  0.31467  0.29404  0.02171  1.0000
  C   C471      1.0  0.31577  0.27704  0.22184  1.0000
  C   C472      1.0  0.30730  0.27554  0.24857  1.0000
  C   C473      1.0  0.32208  0.27384  0.27105  1.0000
  C   C474      1.0  0.34558  0.27316  0.26708  1.0000
  C   C475      1.0  0.35408  0.27485  0.24036  1.0000
  C   C476      1.0  0.33930  0.27685  0.21787  1.0000
  H   H835      1.0  0.28914  0.27596  0.25197  1.0000
  H   H836      1.0  0.31535  0.27352  0.29154  1.0000
  H   H837      1.0  0.37225  0.27459  0.23705  1.0000
  H   H838      1.0  0.34612  0.27801  0.19747  1.0000
  C   C477      1.0  0.46187  0.24504  0.38756  1.0000
  C   C478      1.0  0.35071  0.35468  0.20640  1.0000
  C   C479      1.0  0.46892  0.25546  0.36803  1.0000
  H   H839      1.0  0.27490  0.22634  0.30431  1.0000
  C   C480      1.0  0.32900  0.38856  0.12128  1.0000
  C   C481      1.0  0.34773  0.38026  0.11128  1.0000
  C   C482      1.0  0.34657  0.36461  0.10797  1.0000
  C   C483      1.0  0.32671  0.35691  0.11451  1.0000
  C   C484      1.0  0.30796  0.36522  0.12448  1.0000
  C   C485      1.0  0.30912  0.38088  0.12778  1.0000
  H   H840      1.0  0.36318  0.38589  0.10616  1.0000
  H   H841      1.0  0.36123  0.35839  0.10027  1.0000
  H   H842      1.0  0.29254  0.35958  0.12963  1.0000
  H   H843      1.0  0.29448  0.38709  0.13553  1.0000
  H   H844      1.0  0.38975  0.31630  0.16378  1.0000
  C   C486      1.0  0.46532  0.43091  0.12714  1.0000
  C   C487      1.0  0.46537  0.44629  0.12242  1.0000
  C   C488      1.0  0.34199  0.40621  0.04326  1.0000
  H   H845      1.0  0.44964  0.45236  0.11816  1.0000
  H   H846      1.0  0.45231  0.27252  0.45845  1.0000
  H   H847      1.0  0.40065  0.26610  0.07362  1.0000
  H   H848      1.0  0.33274  0.24091  0.28837  1.0000
  H   H849      1.0  0.34703  0.30459  0.30006  1.0000
  H   H850      1.0  0.42265  0.46486  0.16266  1.0000
  H   H851      1.0  0.25153  0.23762  0.21596  1.0000
  C   C489      1.0  0.37307  0.31265  0.15623  1.0000
  H   H852      1.0  0.32418  0.30820  0.25878  1.0000
  H   H853      1.0  0.30724  0.25192  0.31331  1.0000
  C   C490      1.0  0.41137  0.24165  0.46862  1.0000
  H   H854      1.0  0.38579  0.24215  0.00405  1.0000
  H   H855      1.0  0.28006  0.42611  0.01528  1.0000
  H   H856      1.0  0.46297  0.46520  0.16857  1.0000
  C   C491      1.0  0.26946  0.23904  0.22196  1.0000
  H   H857      1.0  0.32719  0.33674  0.25564  1.0000
  C   C492      1.0  0.47891  0.23692  0.40207  1.0000
  H   H858      1.0  0.27910  0.44144  0.07818  1.0000
  H   H859      1.0  0.31943  0.44975  0.04978  1.0000
  C   C493      1.0  0.48576  0.45392  0.12394  1.0000
  H   H860      1.0  0.48591  0.41121  0.13616  1.0000
  C   C494      1.0  0.29124  0.32539  0.22547  1.0000
  H   H861      1.0  0.31589  0.30795  0.21390  1.0000
  H   H862      1.0  0.25058  0.24997  0.47233  1.0000
  H   H863      1.0  0.41292  0.31016  0.43747  1.0000
  H   H864      1.0  0.45628  0.26183  0.35654  1.0000
  C   C495      1.0  0.33016  0.34434  0.20407  1.0000
  H   H865      1.0  0.44422  0.46583  0.47742  1.0000
  H   H866      1.0  0.46958  0.30438  0.45353  1.0000
  H   H867      1.0  0.38029  0.28398  0.44493  1.0000
  C   C496      1.0  0.34328  0.26680  0.47984  1.0000
  H   H868      1.0  0.38379  0.31136  0.44911  1.0000
  H   H869      1.0  0.42658  0.26943  0.03492  1.0000
  H   H870      1.0  0.27655  0.22251  0.37041  1.0000
  N   N26       1.0  0.45394  0.45425  0.20640  1.0000
  C   C497      1.0  0.43603  0.44337  0.19851  1.0000
  H   H871      1.0  0.27317  0.26440  0.33242  1.0000
  H   H872      1.0  0.28426  0.25268  0.28906  1.0000
  H   H873      1.0  0.42683  0.24007  0.48135  1.0000
  H   H874      1.0  0.26235  0.27624  0.47593  1.0000
  C   C498      1.0  0.43575  0.42862  0.21527  1.0000
  H   H875      1.0  0.28411  0.23982  0.44854  1.0000
  H   H876      1.0  0.24265  0.31354  0.04428  1.0000
  H   H877      1.0  0.27083  0.29431  0.02731  1.0000
  H   H878      1.0  0.36890  0.38938  0.03834  1.0000
  C   C499      1.0  0.41633  0.41887  0.20636  1.0000
  H   H879      1.0  0.29740  0.45615  0.49062  1.0000
  H   H880      1.0  0.43817  0.44032  0.17661  1.0000
  H   H881      1.0  0.41869  0.44850  0.19983  1.0000
  H   H882      1.0  0.47516  0.25606  0.48828  1.0000
  H   H883      1.0  0.38562  0.22289  0.25971  1.0000
  H   H884      1.0  0.28031  0.24752  0.35100  1.0000
  H   H885      1.0  0.39527  0.30639  0.49136  1.0000
  C   C500      1.0  0.27012  0.24396  0.06961  1.0000
  C   C501      1.0  0.48588  0.42313  0.13259  1.0000
  C   C502      1.0  0.40655  0.26905  0.48116  1.0000
  S   S121      1.0  0.40052  0.45785  0.10916  1.0000
  H   H886      1.0  0.45173  0.42196  0.21225  1.0000
  H   H887      1.0  0.43339  0.43089  0.23733  1.0000
  C   C503      1.0  0.29058  0.24739  0.30821  1.0000
  H   H888      1.0  0.45523  0.44928  0.24969  1.0000
  C   C504      1.0  0.45315  0.46767  0.18748  1.0000
  H   H889      1.0  0.26319  0.23324  0.26362  1.0000
  H   H890      1.0  0.27129  0.27123  0.04230  1.0000
  H   H891      1.0  0.33676  0.22453  0.30861  1.0000
  H   H892      1.0  0.47911  0.46448  0.06428  1.0000
  H   H893      1.0  0.31604  0.35004  0.21539  1.0000
  H   H894      1.0  0.43172  0.30320  0.47502  1.0000
  H   H895      1.0  0.41665  0.40836  0.21847  1.0000
  H   H896      1.0  0.39969  0.42475  0.20971  1.0000
  H   H897      1.0  0.41814  0.41594  0.18443  1.0000
  C   C505      1.0  0.47169  0.29218  0.45730  1.0000
  C   C506      1.0  0.42886  0.46651  0.24452  1.0000
  H   H898      1.0  0.30219  0.25260  0.46555  1.0000
  H   H899      1.0  0.32437  0.34424  0.18241  1.0000
  H   H900      1.0  0.39611  0.23896  0.48086  1.0000
  H   H901      1.0  0.37465  0.29235  0.49006  1.0000
  H   H902      1.0  0.36249  0.45922  0.21845  1.0000
  H   H903      1.0  0.27187  0.25105  0.22630  1.0000
  H   H904      1.0  0.34385  0.40540  0.06580  1.0000
  C   C507      1.0  0.40934  0.26547  0.03048  1.0000
  C   C508      1.0  0.35362  0.32080  0.20024  1.0000
  H   H905      1.0  0.37018  0.32480  0.20769  1.0000
  H   H906      1.0  0.26732  0.42577  0.06075  1.0000
  H   H907      1.0  0.40726  0.28206  0.42979  1.0000
  C   C509      1.0  0.30014  0.23080  0.25529  1.0000
  C   C510      1.0  0.30892  0.44404  0.03431  1.0000
  H   H908      1.0  0.28505  0.33642  0.21760  1.0000
  H   H909      1.0  0.26773  0.31306  0.20043  1.0000
  H   H910      1.0  0.43783  0.25227  0.99719  1.0000
  H   H911      1.0  0.33059  0.37523  0.19909  1.0000
  C   C511      1.0  0.44892  0.28458  0.45481  1.0000
  H   H912      1.0  0.31650  0.42890  0.08182  1.0000
  C   C512      1.0  0.29585  0.41925  0.01899  1.0000
  H   H913      1.0  0.37105  0.30128  0.40464  1.0000
  H   H914      1.0  0.27422  0.41007  0.10283  1.0000
  H   H915      1.0  0.36168  0.46563  0.26783  1.0000
  C   C513      1.0  0.34061  0.31389  0.25977  1.0000
  H   H916      1.0  0.36320  0.32080  0.29224  1.0000
  C   C514      1.0  0.26185  0.24831  0.04105  1.0000
  C   C515      1.0  0.28011  0.42912  0.07592  1.0000
  C   C516      1.0  0.31516  0.45033  0.00586  1.0000
  C   C517      1.0  0.26741  0.25257  0.48087  1.0000
  S   S122      1.0  0.37426  0.45491  0.03206  1.0000
  H   H917      1.0  0.33318  0.32279  0.30028  1.0000
  H   H918      1.0  0.28119  0.25954  0.44143  1.0000
  C   C518      1.0  0.36595  0.47046  0.22483  1.0000
  H   H919      1.0  0.29919  0.22571  0.32535  1.0000
  H   H920      1.0  0.37828  0.40829  0.03571  1.0000
  C   C519      1.0  0.34635  0.31572  0.28992  1.0000
  H   H921      1.0  0.47941  0.43764  0.21914  1.0000
  C   C520      1.0  0.47685  0.44635  0.20306  1.0000
  H   H922      1.0  0.36643  0.34949  0.19776  1.0000
  C   C521      1.0  0.32005  0.28481  0.00888  1.0000
  H   H923      1.0  0.29443  0.32637  0.24764  1.0000
  C   C522      1.0  0.31281  0.32003  0.20958  1.0000
  C   C523      1.0  0.32308  0.29064  0.48151  1.0000
  H   H924      1.0  0.40025  0.30063  0.39281  1.0000
  H   H925      1.0  0.36073  0.37684  0.19384  1.0000
  H   H926      1.0  0.28555  0.25013  0.07481  1.0000
  H   H927      1.0  0.34411  0.36736  0.16904  1.0000
  H   H928      1.0  0.25691  0.24794  0.32704  1.0000
  C   C524      1.0  0.39773  0.28835  0.44577  1.0000
  H   H929      1.0  0.48561  0.46589  0.12093  1.0000
  C   C525      1.0  0.33594  0.42262  0.03503  1.0000
  H   H930      1.0  0.35394  0.30864  0.20518  1.0000
  H   H931      1.0  0.37650  0.26604  0.05120  1.0000
  H   H932      1.0  0.33759  0.31843  0.16007  1.0000
  H   H933      1.0  0.28056  0.23568  0.20454  1.0000
  H   H934      1.0  0.25660  0.31884  0.23307  1.0000
  H   H935      1.0  0.37104  0.30067  0.16132  1.0000
  H   H936      1.0  0.30822  0.32050  0.18759  1.0000
  C   C526      1.0  0.32891  0.46043  0.47107  1.0000
  C   C527      1.0  0.27200  0.31450  0.22227  1.0000
  H   H937      1.0  0.35395  0.30646  0.25069  1.0000
  H   H938      1.0  0.37275  0.31396  0.13366  1.0000
  H   H939      1.0  0.30558  0.41164  0.07123  1.0000
  H   H940      1.0  0.32853  0.39850  0.03725  1.0000
  N   N27       1.0  0.31127  0.42733  0.03818  1.0000
  H   H941      1.0  0.32500  0.43228  0.48579  1.0000
  H   H942      1.0  0.48368  0.28752  0.44179  1.0000
  H   H943      1.0  0.46087  0.44039  0.48586  1.0000
  C   C528      1.0  0.30443  0.42389  0.06728  1.0000
  N   N28       1.0  0.33400  0.32863  0.21467  1.0000
  H   H944      1.0  0.41034  0.25314  0.03070  1.0000
  H   H945      1.0  0.44299  0.28636  0.43356  1.0000
  H   H946      1.0  0.37509  0.23829  0.28000  1.0000
  H   H947      1.0  0.28994  0.40873  0.02858  1.0000
  C   C529      1.0  0.48369  0.24490  0.48635  1.0000
  C   C530      1.0  0.39616  0.30491  0.43636  1.0000
  H   H948      1.0  0.35625  0.33429  0.24782  1.0000
  C   C531      1.0  0.39300  0.29419  0.49400  1.0000
  H   H949      1.0  0.35390  0.35735  0.22813  1.0000
  H   H950      1.0  0.41263  0.23375  0.45126  1.0000
  H   H951      1.0  0.35618  0.33385  0.16200  1.0000
  C   C532      1.0  0.39377  0.27045  0.05394  1.0000
  C   C533      1.0  0.43157  0.29080  0.47600  1.0000
  H   H952      1.0  0.27691  0.30345  0.23123  1.0000
  C   C534      1.0  0.45170  0.45895  0.23584  1.0000
  N   N29       1.0  0.40759  0.28546  0.47381  1.0000
  H   H953      1.0  0.38640  0.31825  0.40091  1.0000
  H   H954      1.0  0.24687  0.25885  0.18032  1.0000
  C   C535      1.0  0.35377  0.32215  0.16869  1.0000
  C   C536      1.0  0.28476  0.25110  0.45770  1.0000
  C   C537      1.0  0.36438  0.40073  0.03046  1.0000
  H   H955      1.0  0.28537  0.42617  0.11968  1.0000
  H   H956      1.0  0.25609  0.42626  0.10915  1.0000
  H   H957      1.0  0.39245  0.28283  0.05500  1.0000
  H   H958      1.0  0.29111  0.44799  0.03778  1.0000
  H   H959      1.0  0.39438  0.25839  0.44415  1.0000
  H   H960      1.0  0.25514  0.29921  0.48913  1.0000
  C   C538      1.0  0.40945  0.25764  0.45765  1.0000
  C   C539      1.0  0.34616  0.36941  0.19120  1.0000
  H   H961      1.0  0.27592  0.24558  0.02661  1.0000
  H   H962      1.0  0.42660  0.45672  0.28529  1.0000
  C   C540      1.0  0.33310  0.25917  0.00369  1.0000
  H   H963      1.0  0.47979  0.24019  0.46601  1.0000
  H   H964      1.0  0.34209  0.42457  0.01394  1.0000
  H   H965      1.0  0.32414  0.45405  0.45271  1.0000
  C   C541      1.0  0.25525  0.26520  0.03934  1.0000
  C   C542      1.0  0.27419  0.25203  0.33108  1.0000
  H   H966      1.0  0.43130  0.44004  0.47651  1.0000
  C   C543      1.0  0.37251  0.47004  0.00785  1.0000
  H   H967      1.0  0.30460  0.24279  0.25418  1.0000
  H   H968      1.0  0.38968  0.26657  0.49010  1.0000
  H   H969      1.0  0.41403  0.46015  0.23798  1.0000
  H   H970      1.0  0.33759  0.24842  0.01262  1.0000
  C   C544      1.0  0.26704  0.26853  0.49301  1.0000
  H   H971      1.0  0.47342  0.26118  0.01620  1.0000
  H   H972      1.0  0.36280  0.40021  0.00791  1.0000
  C   C545      1.0  0.42747  0.46792  0.27557  1.0000
  H   H973      1.0  0.46486  0.46706  0.24101  1.0000
  H   H974      1.0  0.47911  0.29021  0.47788  1.0000
  N   N30       1.0  0.30711  0.22422  0.28253  1.0000
  H   H975      1.0  0.47766  0.44029  0.18326  1.0000
  C   C546      1.0  0.29255  0.23020  0.30564  1.0000
  H   H976      1.0  0.25670  0.24639  0.08507  1.0000
  C   C547      1.0  0.25636  0.29780  0.01421  1.0000
  C   C548      1.0  0.24844  0.31350  0.02266  1.0000
  H   H977      1.0  0.26276  0.32122  0.02073  1.0000
  H   H978      1.0  0.48756  0.27610  0.99894  1.0000
  C   C549      1.0  0.37333  0.22619  0.27595  1.0000
  C   C550      1.0  0.40070  0.27200  0.00281  1.0000
  H   H979      1.0  0.40308  0.28426  0.00410  1.0000
  H   H980      1.0  0.44596  0.28140  0.00081  1.0000
  H   H981      1.0  0.38191  0.27082  0.00217  1.0000
  C   C551      1.0  0.31339  0.46740  0.00562  1.0000
  C   C552      1.0  0.27494  0.22948  0.24720  1.0000
  C   C553      1.0  0.33129  0.22858  0.28797  1.0000
  H   H982      1.0  0.24736  0.24121  0.03630  1.0000
  H   H983      1.0  0.24469  0.26821  0.05752  1.0000
  N   N31       1.0  0.24355  0.27035  0.01339  1.0000
  C   C554      1.0  0.34924  0.22300  0.26673  1.0000
  H   H984      1.0  0.32415  0.47206  0.02185  1.0000
  H   H985      1.0  0.34745  0.45892  0.47443  1.0000
  H   H986      1.0  0.29553  0.47133  0.00887  1.0000
  H   H987      1.0  0.31008  0.22541  0.23852  1.0000
  H   H988      1.0  0.47391  0.22871  0.41702  1.0000
  H   H989      1.0  0.34657  0.22886  0.24691  1.0000
  H   H990      1.0  0.28625  0.42517  0.49274  1.0000
  H   H991      1.0  0.33274  0.44704  0.99984  1.0000
  H   H992      1.0  0.46709  0.46961  0.03174  1.0000
  H   H993      1.0  0.29966  0.47209  0.31180  1.0000
  C   C555      1.0  0.47560  0.26689  0.99622  1.0000
  Fe  Fe61      1.0  0.35922  0.43507  0.61466  1.0000
  S   S123      1.0  0.34405  0.45836  0.62181  1.0000
  S   S124      1.0  0.33336  0.41600  0.61355  1.0000
  Fe  Fe62      1.0  0.40580  0.44794  0.60318  1.0000
  S   S125      1.0  0.44171  0.44638  0.58686  1.0000
  Fe  Fe63      1.0  0.37541  0.46284  0.64656  1.0000
  H   H994      1.0  0.39380  0.30690  0.94242  1.0000
  H   H995      1.0  0.27492  0.41860  0.96735  1.0000
  H   H996      1.0  0.43739  0.30204  0.87605  1.0000
  S   S126      1.0  0.38969  0.43922  0.64167  1.0000
  S   S127      1.0  0.37686  0.44210  0.57578  1.0000
  Fe  Fe64      1.0  0.30736  0.32236  0.61658  1.0000
  S   S128      1.0  0.32994  0.30213  0.62640  1.0000
  S   S129      1.0  0.32776  0.34411  0.61946  1.0000
  Fe  Fe65      1.0  0.26599  0.30184  0.60796  1.0000
  S   S130      1.0  0.28651  0.28103  0.61696  1.0000
  Fe  Fe66      1.0  0.30114  0.29378  0.65195  1.0000
  S   S131      1.0  0.29842  0.28384  0.69508  1.0000
  Fe  Fe67      1.0  0.31334  0.29128  0.59043  1.0000
  S   S132      1.0  0.33334  0.27651  0.56024  1.0000
  S   S133      1.0  0.27922  0.31440  0.64417  1.0000
  S   S134      1.0  0.29212  0.31164  0.57931  1.0000
  Fe  Fe68      1.0  0.39559  0.24885  0.88028  1.0000
  S   S135      1.0  0.37783  0.27095  0.87148  1.0000
  S   S136      1.0  0.43242  0.25149  0.89627  1.0000
  Fe  Fe69      1.0  0.35015  0.23263  0.86914  1.0000
  S   S137      1.0  0.33065  0.25393  0.85913  1.0000
  Fe  Fe70      1.0  0.36194  0.26005  0.83525  1.0000
  S   S138      1.0  0.36750  0.27153  0.79382  1.0000
  Fe  Fe71      1.0  0.34841  0.26280  0.89630  1.0000
  S   S139      1.0  0.33041  0.27808  0.92740  1.0000
  S   S140      1.0  0.38073  0.23814  0.84306  1.0000
  S   S141      1.0  0.36668  0.24132  0.90725  1.0000
  C   C556      1.0  0.33251  0.27767  0.52402  1.0000
  H   H997      1.0  0.40514  0.23258  0.78768  1.0000
  C   C557      1.0  0.33442  0.26113  0.97513  1.0000
  C   C558      1.0  0.32882  0.27499  0.96328  1.0000
  H   H998      1.0  0.41874  0.45809  0.72275  1.0000
  H   H999      1.0  0.37833  0.45550  0.97349  1.0000
  H   H1000     1.0  0.24199  0.28411  0.96191  1.0000
  H   H1001     1.0  0.33959  0.25188  0.96225  1.0000
  H   H1002     1.0  0.31708  0.29755  0.97140  1.0000
  H   H1003     1.0  0.25052  0.24867  0.53358  1.0000
  C   C559      1.0  0.31832  0.27967  0.72152  1.0000
  C   C560      1.0  0.31041  0.27364  0.74626  1.0000
  C   C561      1.0  0.32523  0.27089  0.76844  1.0000
  C   C562      1.0  0.34821  0.27418  0.76616  1.0000
  C   C563      1.0  0.35617  0.28006  0.74129  1.0000
  C   C564      1.0  0.34139  0.28267  0.71902  1.0000
  H   H1004     1.0  0.29262  0.27123  0.74842  1.0000
  H   H1005     1.0  0.31882  0.26638  0.78739  1.0000
  H   H1006     1.0  0.37389  0.28256  0.73914  1.0000
  H   H1007     1.0  0.34782  0.28703  0.70000  1.0000
  C   C565      1.0  0.46154  0.24842  0.88590  1.0000
  C   C566      1.0  0.47866  0.25664  0.89843  1.0000
  C   C567      1.0  0.47057  0.26486  0.80453  1.0000
  H   H1008     1.0  0.47396  0.26476  0.91383  1.0000
  C   C568      1.0  0.33243  0.39597  0.61526  1.0000
  C   C569      1.0  0.35154  0.38678  0.62094  1.0000
  C   C570      1.0  0.34975  0.37105  0.62206  1.0000
  C   C571      1.0  0.32894  0.36414  0.61728  1.0000
  C   C572      1.0  0.30990  0.37332  0.61123  1.0000
  C   C573      1.0  0.31164  0.38905  0.61041  1.0000
  H   H1009     1.0  0.36770  0.39180  0.62461  1.0000
  H   H1010     1.0  0.36467  0.36417  0.62663  1.0000
  H   H1011     1.0  0.29379  0.36831  0.60730  1.0000
  H   H1012     1.0  0.29670  0.39594  0.60592  1.0000
  H   H1013     1.0  0.30694  0.43132  0.56969  1.0000
  C   C574      1.0  0.46454  0.44302  0.60938  1.0000
  C   C575      1.0  0.46127  0.43640  0.63493  1.0000
  C   C576      1.0  0.41067  0.27771  0.95520  1.0000
  H   H1014     1.0  0.44441  0.43335  0.64117  1.0000
  H   H1015     1.0  0.27255  0.24970  0.58977  1.0000
  H   H1016     1.0  0.42963  0.31054  0.76070  1.0000
  H   H1017     1.0  0.46729  0.46088  0.81239  1.0000
  H   H1018     1.0  0.41495  0.25931  0.78755  1.0000
  H   H1019     1.0  0.42001  0.27384  0.93660  1.0000
  C   C577      1.0  0.43022  0.45343  0.70683  1.0000
  H   H1020     1.0  0.40959  0.43390  0.70391  1.0000
  C   C578      1.0  0.28370  0.24684  0.57212  1.0000
  C   C579      1.0  0.42765  0.43652  0.70743  1.0000
  C   C580      1.0  0.32251  0.28992  0.51029  1.0000
  C   C581      1.0  0.43589  0.26063  0.98054  1.0000
  C   C582      1.0  0.49138  0.23574  0.85905  1.0000
  H   H1021     1.0  0.27897  0.26243  0.93939  1.0000
  H   H1022     1.0  0.40311  0.30486  0.74649  1.0000
  H   H1023     1.0  0.37021  0.30093  0.92232  1.0000
  H   H1024     1.0  0.31480  0.42371  0.98051  1.0000
  H   H1025     1.0  0.36486  0.30097  0.53781  1.0000
  H   H1026     1.0  0.34107  0.47101  0.71482  1.0000
  H   H1027     1.0  0.49120  0.28006  0.78036  1.0000
  H   H1028     1.0  0.28624  0.26936  0.55807  1.0000
  C   C583      1.0  0.25609  0.25994  0.53958  1.0000
  C   C584      1.0  0.42974  0.29248  0.86555  1.0000
  H   H1029     1.0  0.43115  0.22702  0.77021  1.0000
  H   H1030     1.0  0.45372  0.29207  0.78564  1.0000
  H   H1031     1.0  0.27445  0.31642  0.77446  1.0000
  N   N32       1.0  0.41139  0.26570  0.97704  1.0000
  H   H1032     1.0  0.45295  0.27847  0.75980  1.0000
  C   C585      1.0  0.42337  0.22937  0.79047  1.0000
  C   C586      1.0  0.39715  0.29065  0.52473  1.0000
  H   H1033     1.0  0.37922  0.27475  0.93257  1.0000
  H   H1034     1.0  0.38532  0.29806  0.56460  1.0000
  C   C587      1.0  0.42074  0.30106  0.75149  1.0000
  H   H1035     1.0  0.41949  0.28776  0.96233  1.0000
  C   C588      1.0  0.42010  0.28791  0.77147  1.0000
  H   H1036     1.0  0.42839  0.24299  0.82553  1.0000
  H   H1037     1.0  0.30159  0.24643  0.57929  1.0000
  H   H1038     1.0  0.45384  0.23795  0.80699  1.0000
  Fe  Fe72      1.0  0.36342  0.46528  0.58397  1.0000
  H   H1039     1.0  0.36920  0.39777  0.55130  1.0000
  H   H1040     1.0  0.30932  0.40961  0.54529  1.0000
  H   H1041     1.0  0.46165  0.28478  0.84944  1.0000
  H   H1042     1.0  0.44555  0.29758  0.82756  1.0000
  C   C589      1.0  0.46819  0.23784  0.86629  1.0000
  H   H1043     1.0  0.41055  0.27903  0.76138  1.0000
  H   H1044     1.0  0.46484  0.45231  0.69417  1.0000
  H   H1045     1.0  0.47598  0.25625  0.78932  1.0000
  H   H1046     1.0  0.27842  0.39979  0.98087  1.0000
  H   H1047     1.0  0.41244  0.29598  0.85860  1.0000
  H   H1048     1.0  0.47469  0.46320  0.51007  1.0000
  C   C590      1.0  0.44453  0.28776  0.84128  1.0000
  C   C591      1.0  0.28100  0.25859  0.54955  1.0000
  H   H1049     1.0  0.35089  0.39162  0.52440  1.0000
  H   H1050     1.0  0.27399  0.28804  0.53156  1.0000
  N   N33       1.0  0.31982  0.33287  0.71513  1.0000
  C   C592      1.0  0.30129  0.32434  0.72909  1.0000
  C   C593      1.0  0.31065  0.34092  0.69000  1.0000
  C   C594      1.0  0.33772  0.32153  0.70590  1.0000
  C   C595      1.0  0.33091  0.34361  0.73413  1.0000
  C   C596      1.0  0.31506  0.35537  0.74802  1.0000
  C   C597      1.0  0.30810  0.31581  0.75566  1.0000
  C   C598      1.0  0.35744  0.32763  0.68834  1.0000
  C   C599      1.0  0.28571  0.34707  0.69105  1.0000
  C   C600      1.0  0.28018  0.35710  0.66649  1.0000
  C   C601      1.0  0.32772  0.36386  0.76992  1.0000
  C   C602      1.0  0.28770  0.30807  0.76806  1.0000
  C   C603      1.0  0.37430  0.31508  0.68042  1.0000
  H   H1051     1.0  0.29426  0.31611  0.71460  1.0000
  H   H1052     1.0  0.28667  0.33176  0.73471  1.0000
  H   H1053     1.0  0.32180  0.35026  0.68414  1.0000
  H   H1054     1.0  0.31118  0.33332  0.67211  1.0000
  H   H1055     1.0  0.32968  0.31260  0.69383  1.0000
  H   H1056     1.0  0.34591  0.31585  0.72371  1.0000
  H   H1057     1.0  0.34069  0.33740  0.75021  1.0000
  H   H1058     1.0  0.34374  0.35016  0.72295  1.0000
  H   H1059     1.0  0.30030  0.35024  0.75804  1.0000
  H   H1060     1.0  0.30901  0.36373  0.73270  1.0000
  H   H1061     1.0  0.32131  0.30704  0.75173  1.0000
  H   H1062     1.0  0.31454  0.32352  0.77124  1.0000
  H   H1063     1.0  0.36709  0.33599  0.69969  1.0000
  H   H1064     1.0  0.35103  0.33290  0.66921  1.0000
  H   H1065     1.0  0.27387  0.33765  0.69058  1.0000
  H   H1066     1.0  0.28199  0.35357  0.70968  1.0000
  H   H1067     1.0  0.29131  0.36689  0.66615  1.0000
  H   H1068     1.0  0.28248  0.35078  0.64721  1.0000
  H   H1069     1.0  0.32559  0.44443  0.55588  1.0000
  H   H1070     1.0  0.34248  0.36956  0.76087  1.0000
  H   H1071     1.0  0.31614  0.37247  0.77912  1.0000
  H   H1072     1.0  0.33375  0.35614  0.78638  1.0000
  N   N34       1.0  0.30878  0.43130  0.52534  1.0000
  H   H1073     1.0  0.29284  0.25537  0.53282  1.0000
  H   H1074     1.0  0.42416  0.45752  0.68661  1.0000
  H   H1075     1.0  0.38194  0.30976  0.69891  1.0000
  H   H1076     1.0  0.36576  0.30647  0.66835  1.0000
  H   H1077     1.0  0.38810  0.31970  0.66773  1.0000
  H   H1078     1.0  0.35054  0.25658  0.51903  1.0000
  H   H1079     1.0  0.47777  0.45524  0.84580  1.0000
  C   C604      1.0  0.25553  0.28659  0.52806  1.0000
  H   H1080     1.0  0.39877  0.29628  0.91149  1.0000
  C   C605      1.0  0.43480  0.27414  0.82663  1.0000
  C   C606      1.0  0.48881  0.27697  0.80217  1.0000
  H   H1081     1.0  0.28031  0.30034  0.75306  1.0000
  H   H1082     1.0  0.48314  0.25885  0.98129  1.0000
  H   H1083     1.0  0.37522  0.28520  0.96363  1.0000
  H   H1084     1.0  0.41523  0.29171  0.53028  1.0000
  N   N35       1.0  0.25145  0.27119  0.51712  1.0000
  C   C607      1.0  0.39822  0.25271  0.96667  1.0000
  C   C608      1.0  0.38320  0.30135  0.54284  1.0000
  C   C609      1.0  0.31884  0.41568  0.52921  1.0000
  C   C610      1.0  0.38756  0.29774  0.92955  1.0000
  C   C611      1.0  0.34280  0.26611  0.50861  1.0000
  N   N36       1.0  0.44600  0.26975  0.80001  1.0000
  H   H1085     1.0  0.28122  0.28226  0.94504  1.0000
  H   H1086     1.0  0.41054  0.29175  0.78978  1.0000
  H   H1087     1.0  0.35550  0.41870  0.52193  1.0000
  H   H1088     1.0  0.40556  0.24875  0.94690  1.0000
  H   H1089     1.0  0.24761  0.28807  0.54856  1.0000
  C   C612      1.0  0.24454  0.42211  0.52278  1.0000
  C   C613      1.0  0.43352  0.25668  0.78863  1.0000
  C   C614      1.0  0.26946  0.41946  0.53050  1.0000
  C   C615      1.0  0.32150  0.28677  0.98032  1.0000
  C   C616      1.0  0.44441  0.28218  0.77904  1.0000
  H   H1090     1.0  0.26208  0.27566  0.91963  1.0000
  H   H1091     1.0  0.41617  0.27599  0.82392  1.0000
  H   H1092     1.0  0.31901  0.46304  0.51289  1.0000
  C   C617      1.0  0.26935  0.27328  0.94014  1.0000
  H   H1093     1.0  0.42848  0.28315  0.88044  1.0000
  H   H1094     1.0  0.30311  0.44647  0.99027  1.0000
  H   H1095     1.0  0.42947  0.29768  0.73227  1.0000
  H   H1096     1.0  0.47251  0.25931  0.82482  1.0000
  C   C618      1.0  0.39641  0.23909  0.98607  1.0000
  C   C619      1.0  0.30881  0.43935  0.55242  1.0000
  C   C620      1.0  0.45760  0.46540  0.51911  1.0000
  C   C621      1.0  0.28739  0.40934  0.97169  1.0000
  H   H1097     1.0  0.38888  0.31298  0.54022  1.0000
  C   C622      1.0  0.28523  0.42973  0.51385  1.0000
  H   H1098     1.0  0.43627  0.26481  0.84159  1.0000
  H   H1099     1.0  0.24247  0.22995  0.82461  1.0000
  H   H1100     1.0  0.29543  0.45285  0.60076  1.0000
  H   H1101     1.0  0.36727  0.22948  0.96608  1.0000
  H   H1102     1.0  0.26271  0.29849  0.99290  1.0000
  H   H1103     1.0  0.43878  0.28788  0.49634  1.0000
  H   H1104     1.0  0.31471  0.29896  0.52184  1.0000
  C   C623      1.0  0.35151  0.39822  0.54347  1.0000
  H   H1105     1.0  0.24578  0.26285  0.55793  1.0000
  C   C624      1.0  0.47998  0.43331  0.65202  1.0000
  C   C625      1.0  0.38669  0.28322  0.94596  1.0000
  H   H1106     1.0  0.34078  0.44046  0.51254  1.0000
  H   H1107     1.0  0.34652  0.42082  0.55697  1.0000
  H   H1108     1.0  0.27122  0.42121  0.55279  1.0000
  H   H1109     1.0  0.38040  0.25622  0.96223  1.0000
  H   H1110     1.0  0.43804  0.43111  0.69113  1.0000
  H   H1111     1.0  0.26224  0.36122  0.66767  1.0000
  H   H1112     1.0  0.29320  0.30145  0.78625  1.0000
  H   H1113     1.0  0.25269  0.26876  0.67392  1.0000
  C   C626      1.0  0.45535  0.45761  0.71127  1.0000
  C   C627      1.0  0.34406  0.41446  0.53803  1.0000
  H   H1114     1.0  0.27634  0.44073  0.51147  1.0000
  S   S142      1.0  0.39330  0.47147  0.60912  1.0000
  C   C628      1.0  0.29398  0.46047  0.58281  1.0000
  H   H1115     1.0  0.45554  0.23100  0.85713  1.0000
  C   C629      1.0  0.38490  0.22617  0.97204  1.0000
  H   H1116     1.0  0.45521  0.46555  0.65714  1.0000
  C   C630      1.0  0.25358  0.31478  0.52203  1.0000
  H   H1117     1.0  0.39199  0.27916  0.52992  1.0000
  C   C631      1.0  0.47390  0.46491  0.83214  1.0000
  C   C632      1.0  0.32329  0.43917  0.50460  1.0000
  C   C633      1.0  0.43585  0.24178  0.80486  1.0000
  H   H1118     1.0  0.43213  0.46349  0.90626  1.0000
  H   H1119     1.0  0.43287  0.43183  0.72757  1.0000
  C   C634      1.0  0.37504  0.46690  0.97980  1.0000
  H   H1120     1.0  0.46171  0.45176  0.73001  1.0000
  H   H1121     1.0  0.27949  0.23564  0.56439  1.0000
  H   H1122     1.0  0.43919  0.25439  0.76729  1.0000
  H   H1123     1.0  0.34044  0.39306  0.55903  1.0000
  H   H1124     1.0  0.31719  0.40912  0.51010  1.0000
  C   C635      1.0  0.30592  0.41456  0.99084  1.0000
  C   C636      1.0  0.24731  0.29986  0.50969  1.0000
  H   H1125     1.0  0.47752  0.42785  0.67149  1.0000
  H   H1126     1.0  0.27397  0.40756  0.52625  1.0000
  H   H1127     1.0  0.27955  0.46850  0.58629  1.0000
  H   H1128     1.0  0.38308  0.46820  0.51425  1.0000
  H   H1129     1.0  0.48408  0.28725  0.81344  1.0000
  H   H1130     1.0  0.44202  0.25466  0.96184  1.0000
  H   H1131     1.0  0.29513  0.40565  0.95206  1.0000
  C   C637      1.0  0.29001  0.45167  0.55680  1.0000
  C   C638      1.0  0.48652  0.44669  0.60116  1.0000
  C   C639      1.0  0.25037  0.27288  0.96141  1.0000
  H   H1132     1.0  0.27315  0.44662  0.55888  1.0000
  C   C640      1.0  0.45283  0.27321  0.98580  1.0000
  H   H1133     1.0  0.41332  0.23486  0.99293  1.0000
  C   C641      1.0  0.44072  0.46026  0.49721  1.0000
  H   H1134     1.0  0.28904  0.45975  0.53967  1.0000
  H   H1135     1.0  0.27232  0.31567  0.52289  1.0000
  C   C642      1.0  0.31559  0.45521  0.49603  1.0000
  H   H1136     1.0  0.48918  0.45160  0.58127  1.0000
  H   H1137     1.0  0.45623  0.27928  0.96642  1.0000
  H   H1138     1.0  0.43941  0.43723  0.51166  1.0000
  H   H1139     1.0  0.24634  0.31597  0.54292  1.0000
  C   C643      1.0  0.25970  0.26796  0.98977  1.0000
  H   H1140     1.0  0.45639  0.45769  0.53692  1.0000
  H   H1141     1.0  0.39461  0.22259  0.95360  1.0000
  H   H1142     1.0  0.28479  0.27129  0.49821  1.0000
  H   H1143     1.0  0.26452  0.25593  0.98773  1.0000
  H   H1144     1.0  0.42287  0.46252  0.50325  1.0000
  H   H1145     1.0  0.24663  0.32408  0.50916  1.0000
  H   H1146     1.0  0.30966  0.46693  0.58080  1.0000
  H   H1147     1.0  0.31932  0.47173  0.98562  1.0000
  H   H1148     1.0  0.41912  0.26608  0.49739  1.0000
  H   H1149     1.0  0.46045  0.47205  0.84188  1.0000
  H   H1150     1.0  0.47675  0.23743  0.50230  1.0000
  H   H1151     1.0  0.27605  0.27348  0.99363  1.0000
  H   H1152     1.0  0.31842  0.40515  0.99338  1.0000
  H   H1153     1.0  0.24207  0.42023  0.50061  1.0000
  H   H1154     1.0  0.27208  0.24400  0.49645  1.0000
  Fe  Fe73      1.0  0.25903  0.67351  0.35388  1.0000
  S   S143      1.0  0.27798  0.69414  0.36274  1.0000
  Fe  Fe74      1.0  0.30031  0.65216  0.36785  1.0000
  S   S144      1.0  0.32130  0.67207  0.37800  1.0000
  S   S145      1.0  0.32184  0.63036  0.37474  1.0000
  Fe  Fe75      1.0  0.29077  0.68155  0.39991  1.0000
  S   S146      1.0  0.28651  0.69120  0.44279  1.0000
  Fe  Fe76      1.0  0.30670  0.68263  0.33978  1.0000
  S   S147      1.0  0.32940  0.69480  0.30981  1.0000
  S   S148      1.0  0.27028  0.66122  0.39208  1.0000
  S   S149      1.0  0.28716  0.66257  0.32858  1.0000
  Fe  Fe77      1.0  0.34836  0.70051  0.14714  1.0000
  S   S150      1.0  0.33233  0.68619  0.18052  1.0000
  Fe  Fe78      1.0  0.34733  0.70294  0.08376  1.0000
  S   S151      1.0  0.32829  0.69205  0.04865  1.0000
  H   H1155     1.0  0.43708  0.49683  0.17479  1.0000
  H   H1156     1.0  0.34532  0.61734  0.43348  1.0000
  S   S152      1.0  0.37001  0.69047  0.11359  1.0000
  S   S153      1.0  0.32401  0.71126  0.11722  1.0000
  Fe  Fe79      1.0  0.35606  0.54105  0.35769  1.0000
  S   S154      1.0  0.34729  0.51658  0.36277  1.0000
  S   S155      1.0  0.32818  0.55955  0.35143  1.0000
  Fe  Fe80      1.0  0.40624  0.53320  0.35458  1.0000
  S   S156      1.0  0.40136  0.50863  0.35923  1.0000
  S   S157      1.0  0.43990  0.54370  0.34566  1.0000
  Fe  Fe81      1.0  0.37287  0.51167  0.32907  1.0000
  S   S158      1.0  0.36798  0.49275  0.29768  1.0000
  Fe  Fe82      1.0  0.37642  0.51477  0.39281  1.0000
  H   H1157     1.0  0.27524  0.64256  0.28375  1.0000
  S   S159      1.0  0.37946  0.53601  0.32223  1.0000
  S   S160      1.0  0.38347  0.53950  0.38989  1.0000
  S   S161      1.0  0.36963  0.47777  0.16911  1.0000
  C   C644      1.0  0.36959  0.48876  0.26184  1.0000
  C   C645      1.0  0.27278  0.70107  0.15132  1.0000
  C   C646      1.0  0.35436  0.50225  0.47700  1.0000
  H   H1158     1.0  0.47538  0.50449  0.28018  1.0000
  H   H1159     1.0  0.30282  0.67998  0.00466  1.0000
  C   C647      1.0  0.47648  0.70216  0.10926  1.0000
  C   C648      1.0  0.36582  0.64719  0.21376  1.0000
  C   C649      1.0  0.47871  0.51908  0.39826  1.0000
  C   C650      1.0  0.32110  0.64074  0.45899  1.0000
  H   H1160     1.0  0.30543  0.63152  0.31579  1.0000
  H   H1161     1.0  0.34619  0.51170  0.46679  1.0000
  H   H1162     1.0  0.31952  0.47837  0.28647  1.0000
  H   H1163     1.0  0.29990  0.50614  0.24232  1.0000
  C   C651      1.0  0.46317  0.53619  0.36415  1.0000
  C   C652      1.0  0.45999  0.52521  0.38403  1.0000
  C   C653      1.0  0.44008  0.49755  0.48748  1.0000
  H   H1164     1.0  0.44310  0.52148  0.38856  1.0000
  C   C654      1.0  0.32325  0.61077  0.36720  1.0000
  C   C655      1.0  0.34356  0.60255  0.37259  1.0000
  C   C656      1.0  0.34546  0.58699  0.36784  1.0000
  C   C657      1.0  0.32703  0.57931  0.35752  1.0000
  C   C658      1.0  0.30684  0.58758  0.35164  1.0000
  C   C659      1.0  0.30492  0.60314  0.35648  1.0000
  H   H1165     1.0  0.35798  0.60825  0.38060  1.0000
  H   H1166     1.0  0.36117  0.58091  0.37237  1.0000
  H   H1167     1.0  0.29243  0.58186  0.34366  1.0000
  H   H1168     1.0  0.28911  0.60917  0.35234  1.0000
  C   C660      1.0  0.30852  0.69497  0.46624  1.0000
  H   H1169     1.0  0.44385  0.51333  0.32790  1.0000
  C   C661      1.0  0.48519  0.54095  0.35846  1.0000
  C   C662      1.0  0.33452  0.69035  0.01328  1.0000
  H   H1170     1.0  0.47374  0.48715  0.49201  1.0000
  C   C663      1.0  0.33136  0.69476  0.45843  1.0000
  H   H1171     1.0  0.41021  0.70655  0.01420  1.0000
  H   H1172     1.0  0.36582  0.48756  0.03683  1.0000
  H   H1173     1.0  0.39596  0.61248  0.44704  1.0000
  H   H1174     1.0  0.33598  0.69251  0.43745  1.0000
  C   C664      1.0  0.33004  0.69218  0.27389  1.0000
  C   C665      1.0  0.31602  0.68209  0.26097  1.0000
  C   C666      1.0  0.31694  0.68046  0.23238  1.0000
  C   C667      1.0  0.33170  0.68895  0.21635  1.0000
  C   C668      1.0  0.34559  0.69911  0.22923  1.0000
  C   C669      1.0  0.34480  0.70067  0.25786  1.0000
  H   H1175     1.0  0.30450  0.67556  0.27297  1.0000
  H   H1176     1.0  0.30614  0.67256  0.22257  1.0000
  H   H1177     1.0  0.35715  0.70564  0.21719  1.0000
  H   H1178     1.0  0.37907  0.60132  0.42493  1.0000
  C   C670      1.0  0.35110  0.65075  0.30227  1.0000
  C   C671      1.0  0.28894  0.72182  0.17988  1.0000
  C   C672      1.0  0.44147  0.70796  0.03877  1.0000
  H   H1179     1.0  0.33231  0.64026  0.22374  1.0000
  N   N37       1.0  0.30094  0.52393  0.29029  1.0000
  C   C673      1.0  0.31274  0.50896  0.29529  1.0000
  C   C674      1.0  0.31807  0.53557  0.28290  1.0000
  C   C675      1.0  0.28966  0.52864  0.31677  1.0000
  C   C676      1.0  0.28280  0.52312  0.26872  1.0000
  C   C677      1.0  0.31771  0.62997  0.27340  1.0000
  H   H1180     1.0  0.35621  0.61976  0.23822  1.0000
  C   C678      1.0  0.33904  0.53039  0.26579  1.0000
  C   C679      1.0  0.35215  0.54371  0.25519  1.0000
  S   S162      1.0  0.36971  0.72075  0.15108  1.0000
  H   H1181     1.0  0.32571  0.51002  0.31155  1.0000
  H   H1182     1.0  0.32253  0.50512  0.27716  1.0000
  H   H1183     1.0  0.30957  0.54518  0.27214  1.0000
  H   H1184     1.0  0.32547  0.54037  0.30175  1.0000
  H   H1185     1.0  0.30227  0.52807  0.33376  1.0000
  C   C680      1.0  0.30100  0.62585  0.29657  1.0000
  H   H1186     1.0  0.36784  0.67851  0.40531  1.0000
  H   H1187     1.0  0.27524  0.53441  0.26450  1.0000
  C   C681      1.0  0.35617  0.62935  0.25261  1.0000
  H   H1188     1.0  0.30099  0.52518  0.22993  1.0000
  N   N38       1.0  0.34247  0.62584  0.27798  1.0000
  H   H1189     1.0  0.44242  0.49671  0.30770  1.0000
  H   H1190     1.0  0.35073  0.52353  0.27883  1.0000
  H   H1191     1.0  0.33457  0.52352  0.24808  1.0000
  H   H1192     1.0  0.34160  0.55044  0.24063  1.0000
  H   H1193     1.0  0.35725  0.55090  0.27237  1.0000
  H   H1194     1.0  0.36775  0.53965  0.24444  1.0000
  C   C682      1.0  0.38198  0.48183  0.47743  1.0000
  H   H1195     1.0  0.36172  0.65506  0.28546  1.0000
  C   C683      1.0  0.34423  0.60918  0.28323  1.0000
  C   C684      1.0  0.35190  0.63349  0.30260  1.0000
  C   C685      1.0  0.36860  0.60209  0.28496  1.0000
  C   C686      1.0  0.36094  0.65679  0.32866  1.0000
  C   C687      1.0  0.36780  0.58513  0.28842  1.0000
  H   H1196     1.0  0.37432  0.63083  0.25803  1.0000
  H   H1197     1.0  0.33487  0.60314  0.26714  1.0000
  H   H1198     1.0  0.33609  0.60630  0.30305  1.0000
  H   H1199     1.0  0.34334  0.62966  0.32152  1.0000
  H   H1200     1.0  0.37008  0.63022  0.30541  1.0000
  H   H1201     1.0  0.37780  0.60637  0.30286  1.0000
  H   H1202     1.0  0.37868  0.60438  0.26633  1.0000
  H   H1203     1.0  0.35936  0.66916  0.32866  1.0000
  H   H1204     1.0  0.35169  0.65242  0.34661  1.0000
  H   H1205     1.0  0.35947  0.58005  0.27059  1.0000
  H   H1206     1.0  0.38533  0.58030  0.29011  1.0000
  H   H1207     1.0  0.35839  0.58218  0.30731  1.0000
  H   H1208     1.0  0.44650  0.70450  0.05979  1.0000
  H   H1209     1.0  0.33978  0.66669  0.48252  1.0000
  C   C688      1.0  0.41684  0.68531  0.03385  1.0000
  S   S163      1.0  0.38118  0.49859  0.42976  1.0000
  H   H1210     1.0  0.24575  0.70813  0.43625  1.0000
  C   C689      1.0  0.44732  0.50855  0.30745  1.0000
  C   C690      1.0  0.26842  0.54815  0.34525  1.0000
  H   H1211     1.0  0.36989  0.63763  0.20011  1.0000
  H   H1212     1.0  0.32418  0.48211  0.32224  1.0000
  H   H1213     1.0  0.26568  0.65596  0.45935  1.0000
  H   H1214     1.0  0.35570  0.70851  0.26765  1.0000
  H   H1215     1.0  0.48717  0.51056  0.34050  1.0000
  C   C691      1.0  0.30282  0.69831  0.49349  1.0000
  C   C692      1.0  0.37459  0.49957  0.24214  1.0000
  C   C693      1.0  0.37171  0.49413  0.46361  1.0000
  H   H1216     1.0  0.35915  0.65667  0.20108  1.0000
  H   H1217     1.0  0.32509  0.47247  0.46718  1.0000
  C   C694      1.0  0.45838  0.71200  0.11683  1.0000
  H   H1218     1.0  0.27075  0.62394  0.27142  1.0000
  C   C695      1.0  0.43119  0.48789  0.16118  1.0000
  C   C696      1.0  0.48793  0.50289  0.32275  1.0000
  H   H1219     1.0  0.37920  0.65351  0.33051  1.0000
  C   C697      1.0  0.37881  0.66821  0.40586  1.0000
  H   H1220     1.0  0.27623  0.63937  0.44227  1.0000
  C   C698      1.0  0.27660  0.63051  0.28906  1.0000
  C   C699      1.0  0.37540  0.65968  0.43259  1.0000
  H   H1221     1.0  0.47572  0.52202  0.29813  1.0000
  H   H1222     1.0  0.47620  0.51056  0.41353  1.0000
  C   C700      1.0  0.24637  0.70660  0.00452  1.0000
  H   H1223     1.0  0.43663  0.51476  0.29230  1.0000
  H   H1224     1.0  0.43334  0.50937  0.44944  1.0000
  H   H1225     1.0  0.45295  0.70139  0.02497  1.0000
  H   H1226     1.0  0.27628  0.64024  0.47922  1.0000
  H   H1227     1.0  0.47260  0.48392  0.05651  1.0000
  H   H1228     1.0  0.25502  0.54021  0.35079  1.0000
  C   C701      1.0  0.29731  0.49593  0.30351  1.0000
  H   H1229     1.0  0.37835  0.63551  0.46869  1.0000
  C   C702      1.0  0.42670  0.49774  0.02813  1.0000
  H   H1230     1.0  0.26413  0.54543  0.30229  1.0000
  H   H1231     1.0  0.30102  0.61365  0.30026  1.0000
  C   C703      1.0  0.29036  0.51695  0.24058  1.0000
  H   H1232     1.0  0.33347  0.65529  0.30027  1.0000
  H   H1233     1.0  0.31173  0.62452  0.25444  1.0000
  H   H1234     1.0  0.34404  0.65304  0.24724  1.0000
  H   H1235     1.0  0.38156  0.65075  0.22395  1.0000
  H   H1236     1.0  0.26521  0.62841  0.30670  1.0000
  H   H1237     1.0  0.31519  0.64215  0.26986  1.0000
  Fe  Fe83      1.0  0.39055  0.71142  0.11573  1.0000
  H   H1238     1.0  0.29066  0.55323  0.31204  1.0000
  C   C704      1.0  0.34801  0.64300  0.23496  1.0000
  C   C705      1.0  0.27831  0.54453  0.31709  1.0000
  C   C706      1.0  0.37022  0.48140  0.20508  1.0000
  C   C707      1.0  0.37462  0.49595  0.21405  1.0000
  C   C708      1.0  0.27871  0.64674  0.46010  1.0000
  C   C709      1.0  0.26987  0.51441  0.22229  1.0000
  H   H1239     1.0  0.36825  0.62790  0.41985  1.0000
  H   H1240     1.0  0.27605  0.52089  0.32252  1.0000
  H   H1241     1.0  0.36596  0.69740  0.47159  1.0000
  H   H1242     1.0  0.26841  0.51647  0.27631  1.0000
  H   H1243     1.0  0.36669  0.65815  0.48800  1.0000
  H   H1244     1.0  0.36736  0.70004  0.01495  1.0000
  H   H1245     1.0  0.37479  0.66110  0.38815  1.0000
  C   C710      1.0  0.31106  0.48125  0.30612  1.0000
  H   H1246     1.0  0.39678  0.67150  0.40408  1.0000
  H   H1247     1.0  0.28913  0.49799  0.32360  1.0000
  H   H1248     1.0  0.46159  0.47726  0.19710  1.0000
  H   H1249     1.0  0.24466  0.71024  0.26478  1.0000
  C   C711      1.0  0.34845  0.65562  0.48550  1.0000
  H   H1250     1.0  0.40563  0.70612  0.05069  1.0000
  C   C712      1.0  0.36802  0.48488  0.01547  1.0000
  H   H1251     1.0  0.30496  0.71501  0.18195  1.0000
  C   C713      1.0  0.42435  0.49904  0.99717  1.0000
  H   H1252     1.0  0.28399  0.49427  0.28798  1.0000
  S   S164      1.0  0.42956  0.70615  0.11306  1.0000
  N   N39       1.0  0.34521  0.64584  0.46092  1.0000
  H   H1253     1.0  0.37810  0.50451  0.19908  1.0000
  H   H1254     1.0  0.37835  0.51074  0.24847  1.0000
  C   C714      1.0  0.26959  0.71055  0.17693  1.0000
  C   C715      1.0  0.34831  0.69764  0.47780  1.0000
  H   H1255     1.0  0.28907  0.69453  0.15223  1.0000
  C   C716      1.0  0.44822  0.50518  0.46146  1.0000
  H   H1256     1.0  0.48771  0.54944  0.34306  1.0000
  H   H1257     1.0  0.44244  0.47370  0.28355  1.0000
  H   H1258     1.0  0.42730  0.68073  0.01678  1.0000
  H   H1259     1.0  0.47268  0.69121  0.10168  1.0000
  H   H1260     1.0  0.45719  0.67913  0.18705  1.0000
  H   H1261     1.0  0.38000  0.66723  0.44943  1.0000
  H   H1262     1.0  0.45806  0.49707  0.44871  1.0000
  H   H1263     1.0  0.39510  0.47528  0.46718  1.0000
  H   H1264     1.0  0.25877  0.69312  0.14975  1.0000
  C   C717      1.0  0.36544  0.47416  0.25290  1.0000
  H   H1265     1.0  0.25883  0.50587  0.23143  1.0000
  H   H1266     1.0  0.37285  0.60186  0.46090  1.0000
  H   H1267     1.0  0.47965  0.49256  0.32983  1.0000
  C   C718      1.0  0.47242  0.50991  0.30021  1.0000
  C   C719      1.0  0.41714  0.70236  0.03395  1.0000
  H   H1268     1.0  0.30348  0.66021  0.44064  1.0000
  H   H1269     1.0  0.42340  0.68073  0.05355  1.0000
  H   H1270     1.0  0.43724  0.50676  0.03625  1.0000
  H   H1271     1.0  0.38747  0.64995  0.43258  1.0000
  C   C720      1.0  0.36215  0.62189  0.43819  1.0000
  C   C721      1.0  0.26050  0.70332  0.03013  1.0000
  H   H1272     1.0  0.26081  0.55964  0.34513  1.0000
  H   H1273     1.0  0.24927  0.69969  0.04701  1.0000
  H   H1274     1.0  0.39913  0.68166  0.03127  1.0000
  H   H1275     1.0  0.26939  0.70278  0.19464  1.0000
  H   H1276     1.0  0.28193  0.54759  0.36104  1.0000
  C   C722      1.0  0.37854  0.60861  0.44320  1.0000
  H   H1277     1.0  0.35540  0.62516  0.48092  1.0000
  H   H1278     1.0  0.41417  0.49131  0.15319  1.0000
  H   H1279     1.0  0.42750  0.47799  0.23592  1.0000
  H   H1280     1.0  0.44302  0.48657  0.14360  1.0000
  H   H1281     1.0  0.27580  0.51035  0.20203  1.0000
  C   C723      1.0  0.46849  0.68882  0.18636  1.0000
  H   H1282     1.0  0.25983  0.52498  0.21922  1.0000
  H   H1283     1.0  0.31861  0.63459  0.43960  1.0000
  H   H1284     1.0  0.30445  0.71714  0.23020  1.0000
  H   H1285     1.0  0.36238  0.50767  0.00167  1.0000
  H   H1286     1.0  0.33980  0.66520  0.43505  1.0000
  H   H1287     1.0  0.31745  0.63254  0.47546  1.0000
  C   C724      1.0  0.42954  0.47317  0.17689  1.0000
  C   C725      1.0  0.30235  0.65327  0.45936  1.0000
  C   C726      1.0  0.36922  0.65056  0.00938  1.0000
  H   H1288     1.0  0.38684  0.65457  0.00788  1.0000
  C   C727      1.0  0.35499  0.69496  0.00201  1.0000
  H   H1289     1.0  0.41193  0.47450  0.28133  1.0000
  H   H1290     1.0  0.40962  0.49872  0.03774  1.0000
  H   H1291     1.0  0.27335  0.69426  0.02632  1.0000
  H   H1292     1.0  0.34575  0.64862  0.41691  1.0000
  H   H1293     1.0  0.30372  0.66063  0.47733  1.0000
  H   H1294     1.0  0.27260  0.70825  0.13274  1.0000
  C   C728      1.0  0.36081  0.63225  0.46350  1.0000
  H   H1295     1.0  0.48628  0.71645  0.01136  1.0000
  H   H1296     1.0  0.48775  0.70685  0.04371  1.0000
  H   H1297     1.0  0.46279  0.69689  0.20227  1.0000
  C   C729      1.0  0.35048  0.65478  0.43562  1.0000
  H   H1298     1.0  0.36627  0.64654  0.03055  1.0000
  C   C730      1.0  0.31853  0.68381  0.99610  1.0000
  H   H1299     1.0  0.46675  0.69422  0.16599  1.0000
  H   H1300     1.0  0.26934  0.71345  0.03679  1.0000
  C   C731      1.0  0.48785  0.71803  0.03371  1.0000
  H   H1301     1.0  0.42929  0.48834  0.48126  1.0000
  H   H1302     1.0  0.45897  0.51477  0.46634  1.0000
  H   H1303     1.0  0.35711  0.66006  0.00529  1.0000
  H   H1304     1.0  0.43426  0.48669  0.03385  1.0000
  H   H1305     1.0  0.24683  0.69953  0.47830  1.0000
  H   H1306     1.0  0.25273  0.71629  0.17526  1.0000
  H   H1307     1.0  0.41713  0.47484  0.19357  1.0000
  H   H1308     1.0  0.28531  0.71400  0.28247  1.0000
  H   H1309     1.0  0.27485  0.71592  0.23147  1.0000
  C   C732      1.0  0.47893  0.47313  0.04790  1.0000
  Fe  Fe84      1.0  0.28042  0.68213  0.85865  1.0000
  S   S165      1.0  0.31389  0.69352  0.85733  1.0000
  Fe  Fe85      1.0  0.30596  0.65120  0.85647  1.0000
  S   S166      1.0  0.34025  0.66139  0.85455  1.0000
  S   S167      1.0  0.30218  0.62576  0.86203  1.0000
  Fe  Fe86      1.0  0.32678  0.67661  0.88765  1.0000
  S   S168      1.0  0.35055  0.68321  0.92205  1.0000
  Fe  Fe87      1.0  0.32443  0.67759  0.82419  1.0000
  S   S169      1.0  0.34380  0.69001  0.79087  1.0000
  S   S170      1.0  0.29303  0.66592  0.89110  1.0000
  S   S171      1.0  0.29038  0.66670  0.82381  1.0000
  Fe  Fe88      1.0  0.36071  0.70297  0.63312  1.0000
  S   S172      1.0  0.35491  0.68334  0.66188  1.0000
  H   H1310     1.0  0.30660  0.71390  0.80331  1.0000
  S   S173      1.0  0.36482  0.70395  0.52873  1.0000
  H   H1311     1.0  0.33351  0.67075  0.53254  1.0000
  N   N40       1.0  0.45992  0.47408  0.71303  1.0000
  S   S174      1.0  0.38893  0.70271  0.60208  1.0000
  C   C733      1.0  0.43336  0.68462  0.73209  1.0000
  Fe  Fe89      1.0  0.37288  0.54216  0.85994  1.0000
  S   S175      1.0  0.34644  0.52506  0.86849  1.0000
  S   S176      1.0  0.36963  0.56786  0.85484  1.0000
  Fe  Fe90      1.0  0.41039  0.51738  0.85585  1.0000
  S   S177      1.0  0.38636  0.49889  0.86403  1.0000
  S   S178      1.0  0.44644  0.51022  0.84521  1.0000
  Fe  Fe91      1.0  0.36344  0.51150  0.83458  1.0000
  S   S179      1.0  0.34420  0.50002  0.80018  1.0000
  Fe  Fe92      1.0  0.37203  0.51374  0.89722  1.0000
  S   S180      1.0  0.36647  0.50825  0.94307  1.0000
  S   S181      1.0  0.38841  0.52909  0.82474  1.0000
  S   S182      1.0  0.39752  0.53170  0.89024  1.0000
  H   H1312     1.0  0.29216  0.58601  0.73707  1.0000
  H   H1313     1.0  0.45381  0.47297  0.75655  1.0000
  C   C734      1.0  0.46951  0.69041  0.68807  1.0000
  H   H1314     1.0  0.49023  0.47660  0.73767  1.0000
  H   H1315     1.0  0.27563  0.70390  0.97864  1.0000
  C   C735      1.0  0.49001  0.71613  0.59433  1.0000
  H   H1316     1.0  0.34792  0.63421  0.99196  1.0000
  C   C736      1.0  0.36869  0.49317  0.96735  1.0000
  H   H1317     1.0  0.48563  0.71161  0.67817  1.0000
  H   H1318     1.0  0.30697  0.57754  0.79545  1.0000
  H   H1319     1.0  0.39507  0.62017  0.94209  1.0000
  C   C737      1.0  0.44787  0.49926  0.98282  1.0000
  H   H1320     1.0  0.47143  0.49500  0.55881  1.0000
  C   C738      1.0  0.35100  0.47855  0.72671  1.0000
  C   C739      1.0  0.46867  0.51819  0.86330  1.0000
  C   C740      1.0  0.46467  0.52949  0.88236  1.0000
  C   C741      1.0  0.43796  0.69255  0.65431  1.0000
  H   H1321     1.0  0.44773  0.53417  0.88511  1.0000
  C   C742      1.0  0.32142  0.60988  0.86014  1.0000
  C   C743      1.0  0.31383  0.59576  0.86833  1.0000
  C   C744      1.0  0.32823  0.58284  0.86705  1.0000
  C   C745      1.0  0.35050  0.58377  0.85727  1.0000
  C   C746      1.0  0.35810  0.59790  0.84910  1.0000
  C   C747      1.0  0.34376  0.61085  0.85060  1.0000
  H   H1322     1.0  0.29665  0.59481  0.87584  1.0000
  H   H1323     1.0  0.32211  0.57218  0.87385  1.0000
  H   H1324     1.0  0.37526  0.59884  0.84154  1.0000
  H   H1325     1.0  0.34993  0.62154  0.84407  1.0000
  C   C748      1.0  0.34349  0.68632  0.95684  1.0000
  C   C749      1.0  0.30269  0.55078  0.82302  1.0000
  C   C750      1.0  0.31976  0.70133  0.51280  1.0000
  C   C751      1.0  0.30556  0.72139  0.91121  1.0000
  C   C752      1.0  0.30259  0.71725  0.75968  1.0000
  C   C753      1.0  0.32285  0.68196  0.96799  1.0000
  H   H1326     1.0  0.43528  0.67181  0.69533  1.0000
  C   C754      1.0  0.34264  0.70095  0.50507  1.0000
  H   H1327     1.0  0.45167  0.49827  0.63829  1.0000
  H   H1328     1.0  0.31041  0.67689  0.95509  1.0000
  C   C755      1.0  0.34632  0.68776  0.75503  1.0000
  C   C756      1.0  0.33918  0.67502  0.74156  1.0000
  C   C757      1.0  0.34207  0.67375  0.71305  1.0000
  C   C758      1.0  0.35154  0.68533  0.69767  1.0000
  C   C759      1.0  0.35835  0.69813  0.71111  1.0000
  C   C760      1.0  0.35603  0.69924  0.73964  1.0000
  H   H1329     1.0  0.33178  0.66607  0.75316  1.0000
  H   H1330     1.0  0.33682  0.66377  0.70284  1.0000
  H   H1331     1.0  0.27765  0.71348  0.79193  1.0000
  H   H1332     1.0  0.36551  0.70714  0.69953  1.0000
  H   H1333     1.0  0.44096  0.66792  0.65175  1.0000
  H   H1334     1.0  0.32302  0.71636  0.91203  1.0000
  C   C761      1.0  0.26646  0.72135  0.93327  1.0000
  H   H1335     1.0  0.39185  0.57757  0.76872  1.0000
  H   H1336     1.0  0.26298  0.68435  0.95792  1.0000
  C   C762      1.0  0.35786  0.48589  0.51750  1.0000
  H   H1337     1.0  0.44413  0.66678  0.60110  1.0000
  C   C763      1.0  0.36553  0.63793  0.98919  1.0000
  H   H1338     1.0  0.45388  0.71439  0.58680  1.0000
  H   H1339     1.0  0.29895  0.68667  0.64081  1.0000
  C   C764      1.0  0.44669  0.48642  0.63783  1.0000
  C   C765      1.0  0.34059  0.64919  0.51331  1.0000
  C   C766      1.0  0.46036  0.49211  0.50562  1.0000
  H   H1340     1.0  0.47323  0.67836  0.68417  1.0000
  H   H1341     1.0  0.28609  0.64879  0.94632  1.0000
  H   H1342     1.0  0.43136  0.48247  0.68924  1.0000
  H   H1343     1.0  0.40570  0.70881  0.70971  1.0000
  H   H1344     1.0  0.41831  0.67575  0.76912  1.0000
  C   C767      1.0  0.42442  0.47399  0.89780  1.0000
  H   H1345     1.0  0.41238  0.68492  0.69553  1.0000
  C   C768      1.0  0.48515  0.47664  0.71577  1.0000
  H   H1346     1.0  0.31579  0.70716  0.66507  1.0000
  H   H1347     1.0  0.45480  0.48621  0.90109  1.0000
  C   C769      1.0  0.48270  0.53464  0.89806  1.0000
  H   H1348     1.0  0.29957  0.71945  0.95410  1.0000
  H   H1349     1.0  0.25139  0.71588  0.68078  1.0000
  C   C770      1.0  0.25364  0.68756  0.93909  1.0000
  H   H1350     1.0  0.35053  0.63886  0.51856  1.0000
  H   H1351     1.0  0.32232  0.64660  0.51308  1.0000
  H   H1352     1.0  0.41846  0.48320  0.52479  1.0000
  C   C771      1.0  0.45864  0.47747  0.66051  1.0000
  H   H1353     1.0  0.44077  0.68682  0.59907  1.0000
  H   H1354     1.0  0.47032  0.49943  0.74449  1.0000
  H   H1355     1.0  0.36165  0.70913  0.74988  1.0000
  C   C772      1.0  0.38750  0.59238  0.92223  1.0000
  H   H1356     1.0  0.29297  0.63410  0.92244  1.0000
  H   H1357     1.0  0.27341  0.58121  0.76500  1.0000
  C   C773      1.0  0.47112  0.50271  0.94177  1.0000
  H   H1358     1.0  0.25061  0.66427  0.92809  1.0000
  H   H1359     1.0  0.29021  0.59761  0.76698  1.0000
  C   C774      1.0  0.34293  0.48363  0.75240  1.0000
  C   C775      1.0  0.42786  0.49916  0.55536  1.0000
  H   H1360     1.0  0.46504  0.67742  0.63831  1.0000
  H   H1361     1.0  0.45380  0.49385  0.78975  1.0000
  H   H1362     1.0  0.46794  0.50244  0.51367  1.0000
  H   H1363     1.0  0.27553  0.68609  0.66460  1.0000
  H   H1364     1.0  0.43134  0.54610  0.92802  1.0000
  C   C776      1.0  0.37028  0.64314  0.95949  1.0000
  C   C777      1.0  0.29289  0.70765  0.70056  1.0000
  C   C778      1.0  0.43695  0.48751  0.90812  1.0000
  H   H1365     1.0  0.43230  0.55377  0.96179  1.0000
  N   N41       1.0  0.36325  0.63268  0.93725  1.0000
  H   H1366     1.0  0.34775  0.53024  0.76791  1.0000
  H   H1367     1.0  0.27451  0.53650  0.83324  1.0000
  H   H1368     1.0  0.47103  0.50590  0.91981  1.0000
  H   H1369     1.0  0.29307  0.70321  0.93490  1.0000
  H   H1370     1.0  0.45147  0.48162  0.61770  1.0000
  H   H1371     1.0  0.30402  0.68090  0.67553  1.0000
  C   C779      1.0  0.44015  0.71016  0.69228  1.0000
  C   C780      1.0  0.44836  0.47990  0.73860  1.0000
  C   C781      1.0  0.29156  0.71552  0.93505  1.0000
  H   H1372     1.0  0.27681  0.70224  0.70633  1.0000
  H   H1373     1.0  0.45658  0.48840  0.98784  1.0000
  C   C782      1.0  0.48612  0.69988  0.67099  1.0000
  H   H1374     1.0  0.41680  0.48936  0.94453  1.0000
  N   N42       1.0  0.24976  0.71533  0.95391  1.0000
  H   H1375     1.0  0.40007  0.49732  0.72442  1.0000
  C   C783      1.0  0.29779  0.70485  0.66982  1.0000
  H   H1376     1.0  0.40250  0.63117  0.90137  1.0000
  H   H1377     1.0  0.33884  0.65553  0.55605  1.0000
  S   S183      1.0  0.38312  0.47745  0.68412  1.0000
  H   H1378     1.0  0.47998  0.51192  0.95196  1.0000
  H   H1379     1.0  0.35514  0.60342  0.91600  1.0000
  H   H1380     1.0  0.40158  0.64910  0.91771  1.0000
  C   C784      1.0  0.42762  0.54384  0.94986  1.0000
  H   H1381     1.0  0.38469  0.58436  0.90548  1.0000
  H   H1382     1.0  0.37193  0.61247  0.95965  1.0000
  H   H1383     1.0  0.30472  0.70511  0.75594  1.0000
  H   H1384     1.0  0.45426  0.49467  0.69039  1.0000
  H   H1385     1.0  0.42555  0.49752  0.77663  1.0000
  C   C785      1.0  0.35560  0.49338  0.76841  1.0000
  H   H1386     1.0  0.45950  0.53236  0.95642  1.0000
  C   C786      1.0  0.37659  0.61814  0.94024  1.0000
  H   H1387     1.0  0.35553  0.56835  0.75276  1.0000
  H   H1388     1.0  0.33258  0.62390  0.92010  1.0000
  H   H1389     1.0  0.43426  0.49816  0.57664  1.0000
  C   C787      1.0  0.45217  0.49655  0.74548  1.0000
  C   C788      1.0  0.37315  0.60662  0.91719  1.0000
  H   H1390     1.0  0.33488  0.62138  0.95578  1.0000
  C   C789      1.0  0.38428  0.49324  0.73232  1.0000
  H   H1391     1.0  0.34046  0.56568  0.80453  1.0000
  C   C790      1.0  0.33826  0.62949  0.93906  1.0000
  H   H1392     1.0  0.38607  0.50589  0.76982  1.0000
  C   C791      1.0  0.37974  0.57323  0.78402  1.0000
  C   C792      1.0  0.32209  0.64325  0.94323  1.0000
  H   H1393     1.0  0.38260  0.58701  0.94178  1.0000
  H   H1394     1.0  0.44134  0.47785  0.94869  1.0000
  C   C793      1.0  0.39312  0.64206  0.90253  1.0000
  H   H1395     1.0  0.31226  0.51868  0.75992  1.0000
  H   H1396     1.0  0.31636  0.55622  0.83441  1.0000
  H   H1397     1.0  0.35483  0.54840  0.80432  1.0000
  C   C794      1.0  0.39555  0.64974  0.87481  1.0000
  H   H1398     1.0  0.42967  0.47891  0.73734  1.0000
  H   H1399     1.0  0.42929  0.49764  0.89834  1.0000
  C   C795      1.0  0.36774  0.64001  0.91001  1.0000
  C   C796      1.0  0.31684  0.52752  0.74503  1.0000
  H   H1400     1.0  0.32363  0.53213  0.80872  1.0000
  H   H1401     1.0  0.41381  0.65055  0.86953  1.0000
  H   H1402     1.0  0.35944  0.65131  0.90925  1.0000
  C   C797      1.0  0.48673  0.48861  0.94556  1.0000
  H   H1403     1.0  0.47708  0.47925  0.65820  1.0000
  C   C798      1.0  0.43665  0.67679  0.61138  1.0000
  H   H1404     1.0  0.37007  0.58284  0.79303  1.0000
  H   H1405     1.0  0.28355  0.54827  0.86061  1.0000
  C   C799      1.0  0.28953  0.54125  0.84326  1.0000
  H   H1406     1.0  0.30040  0.53197  0.85146  1.0000
  H   H1407     1.0  0.29040  0.55930  0.81506  1.0000
  H   H1408     1.0  0.32542  0.58245  0.76824  1.0000
  H   H1409     1.0  0.39847  0.67883  0.74167  1.0000
  C   C800      1.0  0.37637  0.49815  0.75813  1.0000
  C   C801      1.0  0.34402  0.66043  0.53620  1.0000
  C   C802      1.0  0.30939  0.57682  0.77310  1.0000
  H   H1410     1.0  0.41914  0.69325  0.65221  1.0000
  C   C803      1.0  0.43527  0.48867  0.93964  1.0000
  H   H1411     1.0  0.36213  0.66346  0.53760  1.0000
  C   C804      1.0  0.45025  0.48265  0.68896  1.0000
  C   C805      1.0  0.44626  0.67790  0.64019  1.0000
  H   H1412     1.0  0.37727  0.62849  0.99479  1.0000
  N   N43       1.0  0.32570  0.54934  0.77771  1.0000
  H   H1413     1.0  0.41841  0.66307  0.74069  1.0000
  H   H1414     1.0  0.42798  0.48596  0.64020  1.0000
  C   C806      1.0  0.40271  0.50381  0.55660  1.0000
  H   H1415     1.0  0.32878  0.52801  0.70283  1.0000
  H   H1416     1.0  0.43834  0.52916  0.98217  1.0000
  Fe  Fe93      1.0  0.36285  0.71246  0.57273  1.0000
  H   H1417     1.0  0.40044  0.51419  0.56866  1.0000
  C   C807      1.0  0.44132  0.53013  0.95988  1.0000
  H   H1418     1.0  0.32476  0.65168  0.92705  1.0000
  C   C808      1.0  0.34582  0.55651  0.79064  1.0000
  H   H1419     1.0  0.47425  0.69207  0.70978  1.0000
  H   H1420     1.0  0.34241  0.51374  0.72382  1.0000
  C   C809      1.0  0.29727  0.63880  0.94265  1.0000
  C   C810      1.0  0.31264  0.54119  0.79948  1.0000
  C   C811      1.0  0.36373  0.56251  0.77032  1.0000
  H   H1421     1.0  0.34364  0.54318  0.74055  1.0000
  H   H1422     1.0  0.38883  0.64493  0.95853  1.0000
  H   H1423     1.0  0.29391  0.63040  0.95882  1.0000
  N   N44       1.0  0.44464  0.69417  0.68388  1.0000
  H   H1424     1.0  0.38716  0.64329  0.85860  1.0000
  H   H1425     1.0  0.38966  0.56735  0.80029  1.0000
  H   H1426     1.0  0.29793  0.53552  0.79046  1.0000
  C   C812      1.0  0.31040  0.56045  0.76254  1.0000
  H   H1427     1.0  0.31554  0.56127  0.74068  1.0000
  H   H1428     1.0  0.37557  0.69620  0.96554  1.0000
  H   H1429     1.0  0.40584  0.59488  0.92267  1.0000
  C   C813      1.0  0.33473  0.53773  0.75783  1.0000
  H   H1430     1.0  0.26929  0.71886  0.74232  1.0000
  H   H1431     1.0  0.38795  0.66124  0.87549  1.0000
  H   H1432     1.0  0.42781  0.47501  0.55556  1.0000
  C   C814      1.0  0.34743  0.49809  0.50363  1.0000
  H   H1433     1.0  0.37433  0.55305  0.76222  1.0000
  H   H1434     1.0  0.40621  0.47480  0.90370  1.0000
  C   C815      1.0  0.36599  0.49629  0.99539  1.0000
  H   H1435     1.0  0.42549  0.47360  0.87518  1.0000
  C   C816      1.0  0.43077  0.68356  0.70065  1.0000
  C   C817      1.0  0.37179  0.48332  0.71645  1.0000
  H   H1436     1.0  0.35973  0.63379  0.89314  1.0000
  H   H1437     1.0  0.30116  0.53394  0.73928  1.0000
  H   H1438     1.0  0.39596  0.50596  0.53573  1.0000
  C   C818      1.0  0.32607  0.51975  0.71943  1.0000
  H   H1439     1.0  0.26580  0.68938  0.92222  1.0000
  H   H1440     1.0  0.31378  0.51149  0.71226  1.0000
  H   H1441     1.0  0.37818  0.61116  0.89704  1.0000
  C   C819      1.0  0.43417  0.51582  0.94486  1.0000
  H   H1442     1.0  0.36232  0.65446  0.95629  1.0000
  H   H1443     1.0  0.32498  0.64859  0.96320  1.0000
  C   C820      1.0  0.43173  0.48401  0.54057  1.0000
  H   H1444     1.0  0.29272  0.55639  0.76200  1.0000
  H   H1445     1.0  0.44824  0.71247  0.71226  1.0000
  C   C821      1.0  0.41485  0.71524  0.69399  1.0000
  H   H1446     1.0  0.41481  0.48929  0.99028  1.0000
  H   H1447     1.0  0.37507  0.47563  0.93837  1.0000
  H   H1448     1.0  0.30637  0.70118  0.71176  1.0000
  C   C822      1.0  0.47204  0.48328  0.55141  1.0000
  C   C823      1.0  0.41608  0.67495  0.74668  1.0000
  H   H1449     1.0  0.39271  0.49496  0.56642  1.0000
  H   H1450     1.0  0.47956  0.54323  0.91315  1.0000
  N   N45       1.0  0.45514  0.48137  0.52860  1.0000
  C   C824      1.0  0.29008  0.58591  0.75962  1.0000
  H   H1451     1.0  0.44402  0.70203  0.64182  1.0000
  H   H1452     1.0  0.43705  0.50825  0.54509  1.0000
  C   C825      1.0  0.44371  0.50023  0.77425  1.0000
  H   H1453     1.0  0.41560  0.51461  0.94809  1.0000
  H   H1454     1.0  0.41795  0.67566  0.61222  1.0000
  H   H1455     1.0  0.24529  0.68626  0.52212  1.0000
  C   C826      1.0  0.46667  0.71937  0.59933  1.0000
  N   N46       1.0  0.44715  0.50159  0.95233  1.0000
  C   C827      1.0  0.29377  0.68862  0.66234  1.0000
  H   H1456     1.0  0.40650  0.71368  0.67407  1.0000
  H   H1457     1.0  0.45057  0.68060  0.73842  1.0000
  H   H1458     1.0  0.31518  0.70380  0.53373  1.0000
  C   C828      1.0  0.37323  0.47833  0.95974  1.0000
  H   H1459     1.0  0.44547  0.51232  0.77829  1.0000
  C   C829      1.0  0.37523  0.47779  0.50416  1.0000
  H   H1460     1.0  0.43586  0.51808  0.92266  1.0000
  H   H1461     1.0  0.44260  0.50393  0.73097  1.0000
  H   H1462     1.0  0.44828  0.71789  0.67757  1.0000
  C   C830      1.0  0.35954  0.69280  0.97399  1.0000
  S   S184      1.0  0.33408  0.71039  0.60265  1.0000
  S   S185      1.0  0.25277  0.70077  0.86332  1.0000
  H   H1463     1.0  0.43065  0.69618  0.73953  1.0000
  H   H1464     1.0  0.48978  0.48388  0.81499  1.0000
  H   H1465     1.0  0.28691  0.71195  0.65631  1.0000
  H   H1466     1.0  0.40911  0.54217  0.95246  1.0000
  H   H1467     1.0  0.46746  0.47622  0.56935  1.0000
  H   H1468     1.0  0.26040  0.71938  0.91210  1.0000
  H   H1469     1.0  0.44657  0.71850  0.99176  1.0000
  H   H1470     1.0  0.33390  0.50443  0.51358  1.0000
  H   H1471     1.0  0.48185  0.69995  0.64900  1.0000
  C   C831      1.0  0.26148  0.71227  0.98087  1.0000
  C   C832      1.0  0.29404  0.71910  0.78900  1.0000
  C   C833      1.0  0.49083  0.51262  0.85910  1.0000
  H   H1472     1.0  0.47831  0.47826  0.93956  1.0000
  H   H1473     1.0  0.45833  0.50784  0.99264  1.0000
  S   S186      1.0  0.34793  0.48086  0.55082  1.0000
  H   H1474     1.0  0.42909  0.50573  0.49868  1.0000
  H   H1475     1.0  0.32674  0.47996  0.75992  1.0000
  H   H1476     1.0  0.28523  0.69850  0.49980  1.0000
  H   H1477     1.0  0.48928  0.48795  0.70790  1.0000
  H   H1478     1.0  0.29778  0.71840  0.89146  1.0000
  H   H1479     1.0  0.31946  0.72236  0.75844  1.0000
  H   H1480     1.0  0.41400  0.50930  0.99277  1.0000
  Fe  Fe94      1.0  0.34601  0.73097  0.11902  1.0000
  H   H1481     1.0  0.30130  0.75390  0.21339  1.0000
  H   H1482     1.0  0.30536  0.74852  0.17921  1.0000
  S   S187      1.0  0.32982  0.75433  0.12520  1.0000
  C   C834      1.0  0.30263  0.76388  0.12420  1.0000
  C   C835      1.0  0.30141  0.77830  0.13503  1.0000
  C   C836      1.0  0.28095  0.78675  0.13522  1.0000
  C   C837      1.0  0.26097  0.78115  0.12443  1.0000
  C   C838      1.0  0.26189  0.76664  0.11335  1.0000
  C   C839      1.0  0.28266  0.75798  0.11337  1.0000
  H   H1483     1.0  0.31653  0.78306  0.14337  1.0000
  H   H1484     1.0  0.25787  0.74128  0.15808  1.0000
  H   H1485     1.0  0.26309  0.74966  0.21869  1.0000
  H   H1486     1.0  0.28326  0.74690  0.10478  1.0000
  H   H1487     1.0  0.25539  0.73924  0.45827  1.0000
  H   H1488     1.0  0.27986  0.74352  0.47856  1.0000
  H   H1489     1.0  0.26889  0.73762  0.25924  1.0000
  H   H1490     1.0  0.29026  0.73125  0.29992  1.0000
  N   N47       1.0  0.28651  0.73270  0.20319  1.0000
  H   H1491     1.0  0.28068  0.79786  0.14375  1.0000
  H   H1492     1.0  0.34669  0.75387  0.18061  1.0000
  C   C840      1.0  0.41123  0.75642  0.07360  1.0000
  H   H1493     1.0  0.24991  0.73325  0.20814  1.0000
  H   H1494     1.0  0.45029  0.73390  0.13240  1.0000
  H   H1495     1.0  0.26967  0.75802  0.17148  1.0000
  C   C841      1.0  0.25757  0.74903  0.17562  1.0000
  C   C842      1.0  0.26378  0.74089  0.20270  1.0000
  C   C843      1.0  0.32941  0.73810  0.20699  1.0000
  C   C844      1.0  0.34674  0.75019  0.20228  1.0000
  H   H1496     1.0  0.45259  0.75168  0.00579  1.0000
  H   H1497     1.0  0.44505  0.75380  0.05818  1.0000
  C   C845      1.0  0.30495  0.74397  0.20042  1.0000
  C   C846      1.0  0.26454  0.73661  0.47754  1.0000
  H   H1498     1.0  0.42298  0.75468  0.03243  1.0000
  C   C847      1.0  0.46381  0.72612  0.12651  1.0000
  C   C848      1.0  0.48678  0.73025  0.12867  1.0000
  H   H1499     1.0  0.41542  0.75216  0.09440  1.0000
  H   H1500     1.0  0.29079  0.72786  0.16007  1.0000
  H   H1501     1.0  0.36401  0.74566  0.20721  1.0000
  H   H1502     1.0  0.33094  0.73457  0.22867  1.0000
  H   H1503     1.0  0.41208  0.76878  0.07373  1.0000
  H   H1504     1.0  0.46860  0.72688  0.06766  1.0000
  H   H1505     1.0  0.29751  0.74364  0.25478  1.0000
  C   C849      1.0  0.28677  0.73372  0.25597  1.0000
  C   C850      1.0  0.42801  0.74995  0.05257  1.0000
  H   H1506     1.0  0.34296  0.75998  0.21550  1.0000
  C   C851      1.0  0.29416  0.72475  0.28118  1.0000
  H   H1507     1.0  0.33421  0.72846  0.19393  1.0000
  H   H1508     1.0  0.39358  0.75344  0.06851  1.0000
  C   C852      1.0  0.28852  0.72413  0.22972  1.0000
  H   H1509     1.0  0.24376  0.73943  0.40815  1.0000
  C   C853      1.0  0.46805  0.72801  0.04503  1.0000
  H   H1510     1.0  0.42303  0.73020  0.00029  1.0000
  H   H1511     1.0  0.42823  0.72863  0.07341  1.0000
  S   S188      1.0  0.36859  0.72344  0.08377  1.0000
  H   H1512     1.0  0.24667  0.76211  0.10483  1.0000
  C   C854      1.0  0.24778  0.72910  0.39647  1.0000
  H   H1513     1.0  0.49056  0.74120  0.13626  1.0000
  H   H1514     1.0  0.24868  0.73205  0.37444  1.0000
  H   H1515     1.0  0.27025  0.72468  0.47724  1.0000
  H   H1516     1.0  0.40967  0.73037  0.04494  1.0000
  C   C855      1.0  0.42712  0.73272  0.05194  1.0000
  H   H1517     1.0  0.47216  0.73981  0.04111  1.0000
  C   C856      1.0  0.44142  0.72821  0.00473  1.0000
  H   H1518     1.0  0.26467  0.72444  0.40284  1.0000
  N   N48       1.0  0.44469  0.72452  0.03467  1.0000
  H   H1519     1.0  0.31276  0.72248  0.28051  1.0000
  H   H1520     1.0  0.44890  0.73597  0.95037  1.0000
  C   C857      1.0  0.47646  0.75818  0.56516  1.0000
  C   C858      1.0  0.31566  0.72988  0.70469  1.0000
  S   S189      1.0  0.31198  0.74784  0.63245  1.0000
  C   C859      1.0  0.29117  0.76071  0.61875  1.0000
  C   C860      1.0  0.29303  0.76707  0.59269  1.0000
  C   C861      1.0  0.27669  0.77785  0.58357  1.0000
  C   C862      1.0  0.25794  0.78213  0.59998  1.0000
  C   C863      1.0  0.25576  0.77547  0.62571  1.0000
  C   C864      1.0  0.27244  0.76503  0.63515  1.0000
  H   H1521     1.0  0.30745  0.76404  0.57995  1.0000
  H   H1522     1.0  0.29187  0.73110  0.79422  1.0000
  H   H1523     1.0  0.41977  0.73367  0.72202  1.0000
  H   H1524     1.0  0.27097  0.76048  0.65550  1.0000
  C   C865      1.0  0.44656  0.74567  0.96423  1.0000
  H   H1525     1.0  0.47453  0.76200  0.54366  1.0000
  H   H1526     1.0  0.34735  0.75050  0.68747  1.0000
  H   H1527     1.0  0.27884  0.78309  0.56382  1.0000
  C   C866      1.0  0.31914  0.74598  0.71490  1.0000
  C   C867      1.0  0.41232  0.73171  0.70161  1.0000
  C   C868      1.0  0.25118  0.72686  0.69112  1.0000
  H   H1528     1.0  0.28175  0.73487  0.67184  1.0000
  H   H1529     1.0  0.27353  0.74444  0.70169  1.0000
  C   C869      1.0  0.24924  0.73957  0.50232  1.0000
  Fe  Fe95      1.0  0.34213  0.73380  0.61525  1.0000
  C   C870      1.0  0.28560  0.72452  0.73903  1.0000
  H   H1530     1.0  0.46258  0.76342  0.57753  1.0000
  H   H1531     1.0  0.31979  0.72999  0.68251  1.0000
  S   S190      1.0  0.37002  0.73640  0.58363  1.0000
  H   H1532     1.0  0.42079  0.73882  0.68623  1.0000
  C   C871      1.0  0.34349  0.75067  0.70970  1.0000
  H   H1533     1.0  0.35570  0.74308  0.72062  1.0000
  C   C872      1.0  0.27544  0.73303  0.69297  1.0000
  H   H1534     1.0  0.24663  0.75429  0.55687  1.0000
  H   H1535     1.0  0.25505  0.76287  0.50323  1.0000
  H   H1536     1.0  0.34565  0.76221  0.71716  1.0000
  H   H1537     1.0  0.45662  0.75500  0.95611  1.0000
  S   S191      1.0  0.43066  0.73415  0.62712  1.0000
  H   H1538     1.0  0.47227  0.74329  0.65203  1.0000
  H   H1539     1.0  0.47472  0.74588  0.56613  1.0000
  H   H1540     1.0  0.30667  0.73372  0.91229  1.0000
  H   H1541     1.0  0.31587  0.74691  0.73712  1.0000
  C   C873      1.0  0.47709  0.73563  0.63591  1.0000
  H   H1542     1.0  0.26745  0.73370  0.93512  1.0000
  H   H1543     1.0  0.39404  0.73507  0.70222  1.0000
  H   H1544     1.0  0.30774  0.75406  0.70393  1.0000
  H   H1545     1.0  0.28220  0.73630  0.74531  1.0000
  C   C874      1.0  0.45995  0.72927  0.62006  1.0000
  H   H1546     1.0  0.47300  0.73871  0.99181  1.0000
  H   H1547     1.0  0.25991  0.73741  0.52069  1.0000
  C   C875      1.0  0.45457  0.74160  0.99305  1.0000
  H   H1548     1.0  0.42836  0.74930  0.96444  1.0000
  H   H1549     1.0  0.24712  0.80372  0.51877  1.0000
  H   H1550     1.0  0.24356  0.72556  0.71168  1.0000
  H   H1551     1.0  0.24223  0.73876  0.65363  1.0000
  H   H1552     1.0  0.24294  0.77866  0.53889  1.0000
  S   S192      1.0  0.36755  0.72604  0.64716  1.0000
  N   N49       1.0  0.29241  0.72376  0.70933  1.0000
  Fe  Fe96      1.0  0.39491  0.72630  0.61451  1.0000
  H   H1553     1.0  0.32892  0.72244  0.71401  1.0000
  H   H1554     1.0  0.26961  0.72262  0.98803  1.0000
  S   S193      1.0  0.64528  0.21169  0.39511  1.0000
  H   H1555     1.0  0.62651  0.20961  0.28431  1.0000
  C   C876      1.0  0.67328  0.20574  0.38492  1.0000
  C   C877      1.0  0.68105  0.19110  0.39125  1.0000
  C   C878      1.0  0.70227  0.18548  0.38164  1.0000
  C   C879      1.0  0.71611  0.19444  0.36556  1.0000
  H   H1556     1.0  0.64920  0.19645  0.33598  1.0000
  C   C880      1.0  0.71526  0.19352  0.27320  1.0000
  H   H1557     1.0  0.67018  0.18386  0.40279  1.0000
  H   H1558     1.0  0.70735  0.17396  0.38549  1.0000
  H   H1559     1.0  0.71937  0.21629  0.34792  1.0000
  H   H1560     1.0  0.72690  0.18833  0.28857  1.0000
  C   C881      1.0  0.70876  0.20926  0.36020  1.0000
  C   C882      1.0  0.64199  0.20678  0.29641  1.0000
  H   H1561     1.0  0.62322  0.19082  0.32041  1.0000
  H   H1562     1.0  0.73967  0.15792  0.42602  1.0000
  H   H1563     1.0  0.69273  0.20207  0.30383  1.0000
  H   H1564     1.0  0.73750  0.16135  0.46210  1.0000
  H   H1565     1.0  0.70352  0.18484  0.26632  1.0000
  S   S194      1.0  0.74022  0.18694  0.34757  1.0000
  H   H1566     1.0  0.72359  0.18309  0.43517  1.0000
  H   H1567     1.0  0.62462  0.20661  0.00908  1.0000
  C   C883      1.0  0.70197  0.20662  0.28605  1.0000
  C   C884      1.0  0.63430  0.20043  0.32382  1.0000
  H   H1568     1.0  0.65910  0.20398  0.05478  1.0000
  H   H1569     1.0  0.69687  0.21890  0.24890  1.0000
  H   H1570     1.0  0.72553  0.19733  0.25559  1.0000
  H   H1571     1.0  0.70882  0.20341  0.45223  1.0000
  H   H1572     1.0  0.62877  0.20696  0.05950  1.0000
  H   H1573     1.0  0.65179  0.19779  0.28583  1.0000
  H   H1574     1.0  0.67655  0.20521  0.25446  1.0000
  H   H1575     1.0  0.71463  0.21460  0.29312  1.0000
  H   H1576     1.0  0.65413  0.20446  0.00339  1.0000
  H   H1577     1.0  0.67490  0.21891  0.46335  1.0000
  C   C885      1.0  0.64006  0.21303  0.00494  1.0000
  H   H1578     1.0  0.62458  0.20899  0.33568  1.0000
  C   C886      1.0  0.68574  0.21420  0.26494  1.0000
  H   H1579     1.0  0.73457  0.20870  0.41744  1.0000
  C   C887      1.0  0.68761  0.21493  0.36997  1.0000
  C   C888      1.0  0.71970  0.20780  0.46870  1.0000
  H   H1580     1.0  0.71682  0.20035  0.48658  1.0000
  H   H1581     1.0  0.64371  0.21887  0.24662  1.0000
  H   H1582     1.0  0.66779  0.21869  0.31769  1.0000
  C   C889      1.0  0.64515  0.21255  0.05642  1.0000
  C   C890      1.0  0.65623  0.22090  0.30024  1.0000
  H   H1583     1.0  0.59474  0.22133  0.00452  1.0000
  H   H1584     1.0  0.64836  0.21954  0.07459  1.0000
  H   H1585     1.0  0.62311  0.20330  0.79259  1.0000
  H   H1586     1.0  0.71352  0.18015  0.86800  1.0000
  C   C891      1.0  0.72236  0.20342  0.79415  1.0000
  H   H1587     1.0  0.67208  0.18634  0.87022  1.0000
  C   C892      1.0  0.70767  0.19154  0.87145  1.0000
  C   C893      1.0  0.72354  0.20269  0.87482  1.0000
  H   H1588     1.0  0.60555  0.17899  0.93763  1.0000
  H   H1589     1.0  0.65206  0.21751  0.76905  1.0000
  H   H1590     1.0  0.72862  0.19510  0.77897  1.0000
  C   C894      1.0  0.67600  0.20984  0.87721  1.0000
  C   C895      1.0  0.61492  0.18931  0.93335  1.0000
  C   C896      1.0  0.69186  0.22098  0.88051  1.0000
  C   C897      1.0  0.68411  0.19511  0.87272  1.0000
  H   H1591     1.0  0.60409  0.19681  0.92034  1.0000
  H   H1592     1.0  0.69264  0.20996  0.77154  1.0000
  C   C898      1.0  0.63461  0.21112  0.95476  1.0000
  S   S195      1.0  0.64602  0.21361  0.87930  1.0000
  H   H1593     1.0  0.66325  0.20877  0.79985  1.0000
  C   C899      1.0  0.71540  0.21743  0.87933  1.0000
  C   C900      1.0  0.62062  0.19699  0.96014  1.0000
  H   H1594     1.0  0.74086  0.17882  0.96378  1.0000
  H   H1595     1.0  0.65127  0.20659  0.94707  1.0000
  H   H1596     1.0  0.60452  0.19948  0.97104  1.0000
  H   H1597     1.0  0.71234  0.19750  0.80990  1.0000
  C   C901      1.0  0.62780  0.21433  0.80068  1.0000
  H   H1598     1.0  0.62666  0.21383  0.82328  1.0000
  H   H1599     1.0  0.63069  0.18624  0.92190  1.0000
  H   H1600     1.0  0.73720  0.20836  0.80422  1.0000
  C   C902      1.0  0.70756  0.21547  0.78004  1.0000
  H   H1601     1.0  0.68079  0.21531  0.49914  1.0000
  C   C903      1.0  0.65190  0.21782  0.79163  1.0000
  H   H1602     1.0  0.62687  0.21732  0.93715  1.0000
  H   H1603     1.0  0.71733  0.21997  0.76259  1.0000
  H   H1604     1.0  0.63073  0.18888  0.97276  1.0000
  H   H1605     1.0  0.74054  0.21045  0.51793  1.0000
  H   H1606     1.0  0.67485  0.22118  0.97704  1.0000
  H   H1607     1.0  0.58891  0.22173  0.96819  1.0000
  N   N50       1.0  0.63808  0.22163  0.97840  1.0000
  Fe  Fe97      1.0  0.60899  0.45033  0.10576  1.0000
  S   S196      1.0  0.58549  0.43110  0.11188  1.0000
  H   H1608     1.0  0.62272  0.27964  0.05171  1.0000
  Fe  Fe98      1.0  0.60898  0.45682  0.16871  1.0000
  S   S197      1.0  0.58494  0.43851  0.17739  1.0000
  C   C904      1.0  0.65780  0.42150  0.20059  1.0000
  Fe  Fe99      1.0  0.60684  0.42441  0.14843  1.0000
  S   S198      1.0  0.61752  0.40083  0.16486  1.0000
  Fe  Fe100     1.0  0.56617  0.44667  0.13991  1.0000
  S   S199      1.0  0.53059  0.45662  0.13502  1.0000
  S   S200      1.0  0.63183  0.44273  0.14086  1.0000
  Fe  Fe101     1.0  0.67058  0.31528  0.12765  1.0000
  S   S201      1.0  0.64383  0.29850  0.11888  1.0000
  S   S202      1.0  0.66171  0.33984  0.11560  1.0000
  Fe  Fe102     1.0  0.70603  0.28961  0.14216  1.0000
  S   S203      1.0  0.68083  0.27184  0.13470  1.0000
  Fe  Fe103     1.0  0.67103  0.28508  0.09704  1.0000
  S   S204      1.0  0.67197  0.27377  0.05524  1.0000
  Fe  Fe104     1.0  0.65618  0.28690  0.15739  1.0000
  S   S205      1.0  0.63007  0.27819  0.18754  1.0000
  S   S206      1.0  0.69747  0.30232  0.10355  1.0000
  S   S207      1.0  0.68165  0.30418  0.16725  1.0000
  Fe  Fe105     1.0  0.62329  0.26131  0.34984  1.0000
  S   S208      1.0  0.60533  0.23951  0.34799  1.0000
  S   S209      1.0  0.64401  0.27244  0.31624  1.0000
  Fe  Fe106     1.0  0.61536  0.26414  0.41224  1.0000
  S   S210      1.0  0.59735  0.24238  0.41406  1.0000
  S   S211      1.0  0.61616  0.28076  0.44751  1.0000
  Fe  Fe107     1.0  0.62564  0.23377  0.38612  1.0000
  Fe  Fe108     1.0  0.57853  0.25015  0.37617  1.0000
  S   S212      1.0  0.53911  0.25262  0.37057  1.0000
  S   S213      1.0  0.64439  0.25512  0.38683  1.0000
  S   S214      1.0  0.59589  0.27231  0.37530  1.0000
  N   N51       1.0  0.66910  0.22603  0.27537  1.0000
  C   C905      1.0  0.50944  0.24939  0.37748  1.0000
  C   C906      1.0  0.70955  0.22351  0.47580  1.0000
  C   C907      1.0  0.61142  0.43918  0.46541  1.0000
  C   C908      1.0  0.65248  0.27436  0.02774  1.0000
  H   H1609     1.0  0.55328  0.25862  0.42855  1.0000
  H   H1610     1.0  0.66065  0.22815  0.02961  1.0000
  C   C909      1.0  0.63085  0.27909  0.47910  1.0000
  H   H1611     1.0  0.62395  0.30558  0.25795  1.0000
  H   H1612     1.0  0.70007  0.32286  0.00645  1.0000
  C   C910      1.0  0.50236  0.23899  0.39702  1.0000
  H   H1613     1.0  0.64698  0.25773  0.47097  1.0000
  H   H1614     1.0  0.58095  0.31244  0.29182  1.0000
  C   C911      1.0  0.62928  0.27742  0.03145  1.0000
  C   C912      1.0  0.63429  0.27652  0.22325  1.0000
  C   C913      1.0  0.65414  0.28120  0.23569  1.0000
  C   C914      1.0  0.65660  0.28005  0.26422  1.0000
  C   C915      1.0  0.63949  0.27396  0.28057  1.0000
  C   C916      1.0  0.61977  0.26908  0.26811  1.0000
  C   C917      1.0  0.61711  0.27050  0.23960  1.0000
  H   H1615     1.0  0.66753  0.28577  0.22335  1.0000
  H   H1616     1.0  0.67194  0.28384  0.27367  1.0000
  H   H1617     1.0  0.60648  0.26436  0.28044  1.0000
  H   H1618     1.0  0.60167  0.26686  0.23015  1.0000
  C   C918      1.0  0.63012  0.38408  0.15066  1.0000
  C   C919      1.0  0.63389  0.38227  0.12263  1.0000
  C   C920      1.0  0.64353  0.36873  0.11245  1.0000
  C   C921      1.0  0.64963  0.35672  0.12997  1.0000
  C   C922      1.0  0.64623  0.35862  0.15807  1.0000
  C   C923      1.0  0.63646  0.37214  0.16827  1.0000
  H   H1619     1.0  0.62927  0.39128  0.10873  1.0000
  H   H1620     1.0  0.64619  0.36759  0.09073  1.0000
  H   H1621     1.0  0.65139  0.34975  0.17194  1.0000
  H   H1622     1.0  0.63392  0.37339  0.19000  1.0000
  C   C924      1.0  0.50619  0.44622  0.13015  1.0000
  C   C925      1.0  0.50634  0.43076  0.13399  1.0000
  H   H1623     1.0  0.63778  0.23672  0.26108  1.0000
  H   H1624     1.0  0.52206  0.42477  0.13875  1.0000
  H   H1625     1.0  0.67599  0.23067  0.21843  1.0000
  H   H1626     1.0  0.51498  0.23231  0.40794  1.0000
  H   H1627     1.0  0.65261  0.40998  0.20516  1.0000
  C   C926      1.0  0.69345  0.31263  0.01591  1.0000
  H   H1628     1.0  0.63039  0.41377  0.26348  1.0000
  C   C927      1.0  0.62224  0.41931  0.24558  1.0000
  H   H1629     1.0  0.52121  0.43884  0.18862  1.0000
  C   C928      1.0  0.72064  0.26513  0.48664  1.0000
  C   C929      1.0  0.64310  0.31816  0.99837  1.0000
  H   H1630     1.0  0.67862  0.45294  0.25932  1.0000
  H   H1631     1.0  0.67668  0.39703  0.17207  1.0000
  C   C930      1.0  0.66912  0.45751  0.24146  1.0000
  C   C931      1.0  0.63591  0.32824  0.04408  1.0000
  H   H1632     1.0  0.59029  0.29308  0.15930  1.0000
  C   C932      1.0  0.62229  0.31439  0.05258  1.0000
  C   C933      1.0  0.59928  0.30949  0.28931  1.0000
  C   C934      1.0  0.60431  0.31854  0.07399  1.0000
  H   H1633     1.0  0.62895  0.44292  0.46154  1.0000
  C   C935      1.0  0.64425  0.22243  0.03088  1.0000
  H   H1634     1.0  0.63368  0.30564  0.06156  1.0000
  H   H1635     1.0  0.64310  0.30584  0.00180  1.0000
  C   C936      1.0  0.59418  0.46958  0.27890  1.0000
  H   H1636     1.0  0.53635  0.29892  0.40545  1.0000
  H   H1637     1.0  0.69115  0.38852  0.27375  1.0000
  H   H1638     1.0  0.61335  0.30954  0.03501  1.0000
  H   H1639     1.0  0.71169  0.23153  0.45876  1.0000
  C   C937      1.0  0.67876  0.40803  0.16193  1.0000
  H   H1640     1.0  0.59184  0.32689  0.06559  1.0000
  H   H1641     1.0  0.61043  0.45749  0.00182  1.0000
  H   H1642     1.0  0.61235  0.32320  0.09245  1.0000
  H   H1643     1.0  0.68560  0.44465  0.21007  1.0000
  H   H1644     1.0  0.68614  0.40205  0.23043  1.0000
  C   C938      1.0  0.70557  0.25598  0.31190  1.0000
  H   H1645     1.0  0.67470  0.34015  0.99724  1.0000
  N   N52       1.0  0.54391  0.26039  0.47121  1.0000
  C   C939      1.0  0.68956  0.40091  0.27388  1.0000
  C   C940      1.0  0.52003  0.25521  0.46662  1.0000
  H   H1646     1.0  0.72064  0.25449  0.29843  1.0000
  H   H1647     1.0  0.66897  0.25011  0.27860  1.0000
  H   H1648     1.0  0.60263  0.29831  0.29869  1.0000
  H   H1649     1.0  0.69249  0.42744  0.24452  1.0000
  H   H1650     1.0  0.64403  0.42607  0.18723  1.0000
  H   H1651     1.0  0.65759  0.45085  0.20138  1.0000
  H   H1652     1.0  0.59685  0.22789  0.46958  1.0000
  C   C941      1.0  0.55303  0.43517  0.05201  1.0000
  C   C942      1.0  0.67269  0.31602  0.03453  1.0000
  C   C943      1.0  0.66063  0.27116  0.00136  1.0000
  H   H1653     1.0  0.51942  0.24827  0.44785  1.0000
  C   C944      1.0  0.59981  0.31596  0.16752  1.0000
  H   H1654     1.0  0.61788  0.31362  0.16239  1.0000
  H   H1655     1.0  0.68928  0.37134  0.04288  1.0000
  H   H1656     1.0  0.62497  0.43984  0.22231  1.0000
  H   H1657     1.0  0.52106  0.27499  0.42285  1.0000
  N   N53       1.0  0.65918  0.43071  0.22619  1.0000
  H   H1658     1.0  0.65994  0.40114  0.24858  1.0000
  H   H1659     1.0  0.60077  0.30319  0.20469  1.0000
  H   H1660     1.0  0.57751  0.31599  0.20302  1.0000
  H   H1661     1.0  0.67860  0.26895  0.99830  1.0000
  H   H1662     1.0  0.52081  0.44066  0.22535  1.0000
  H   H1663     1.0  0.52791  0.45043  0.06831  1.0000
  C   C945      1.0  0.51997  0.44690  0.20571  1.0000
  H   H1664     1.0  0.68030  0.40438  0.29269  1.0000
  H   H1665     1.0  0.71902  0.31279  0.04804  1.0000
  C   C946      1.0  0.61106  0.42813  0.48932  1.0000
  H   H1666     1.0  0.58239  0.32648  0.24631  1.0000
  C   C947      1.0  0.61442  0.27723  0.00894  1.0000
  C   C948      1.0  0.67477  0.42370  0.24748  1.0000
  H   H1667     1.0  0.69484  0.24220  0.26629  1.0000
  H   H1668     1.0  0.53483  0.46941  0.31009  1.0000
  H   H1669     1.0  0.58424  0.24878  0.00621  1.0000
  C   C949      1.0  0.68096  0.24040  0.28131  1.0000
  H   H1670     1.0  0.59342  0.45679  0.24151  1.0000
  H   H1671     1.0  0.68182  0.43111  0.17155  1.0000
  H   H1672     1.0  0.68881  0.34394  0.04520  1.0000
  H   H1673     1.0  0.59511  0.30840  0.08003  1.0000
  H   H1674     1.0  0.57929  0.27874  0.48980  1.0000
  H   H1675     1.0  0.70262  0.26374  0.48079  1.0000
  H   H1676     1.0  0.58888  0.30544  0.13026  1.0000
  C   C950      1.0  0.65185  0.22930  0.25314  1.0000
  H   H1677     1.0  0.60956  0.31769  0.30034  1.0000
  N   N54       1.0  0.60904  0.32566  0.21585  1.0000
  C   C951      1.0  0.60107  0.32442  0.24504  1.0000
  C   C952      1.0  0.60506  0.34154  0.20614  1.0000
  C   C953      1.0  0.59606  0.31489  0.19881  1.0000
  C   C954      1.0  0.63409  0.32182  0.21328  1.0000
  C   C955      1.0  0.64987  0.32987  0.23343  1.0000
  C   C956      1.0  0.60579  0.30906  0.25912  1.0000
  H   H1678     1.0  0.54380  0.45977  0.02293  1.0000
  C   C957      1.0  0.57994  0.34712  0.20408  1.0000
  C   C958      1.0  0.57837  0.36293  0.19214  1.0000
  C   C959      1.0  0.67481  0.32573  0.22809  1.0000
  C   C960      1.0  0.66221  0.34094  0.01415  1.0000
  H   H1679     1.0  0.55832  0.23878  0.46011  1.0000
  H   H1680     1.0  0.70074  0.23259  0.31726  1.0000
  H   H1681     1.0  0.60849  0.33328  0.25775  1.0000
  H   H1682     1.0  0.61351  0.34943  0.21993  1.0000
  H   H1683     1.0  0.61311  0.34322  0.18586  1.0000
  H   H1684     1.0  0.61749  0.30027  0.49357  1.0000
  N   N55       1.0  0.65393  0.32576  0.02239  1.0000
  H   H1685     1.0  0.63737  0.30958  0.21550  1.0000
  H   H1686     1.0  0.64022  0.32449  0.19234  1.0000
  H   H1687     1.0  0.64617  0.32673  0.25488  1.0000
  H   H1688     1.0  0.64791  0.34216  0.23138  1.0000
  C   C961      1.0  0.64488  0.26669  0.48551  1.0000
  C   C962      1.0  0.49797  0.45635  0.20383  1.0000
  H   H1689     1.0  0.70765  0.29463  0.04148  1.0000
  H   H1690     1.0  0.59781  0.43147  0.27143  1.0000
  H   H1691     1.0  0.56994  0.33990  0.19068  1.0000
  H   H1692     1.0  0.57185  0.34742  0.22455  1.0000
  H   H1693     1.0  0.58772  0.37082  0.20506  1.0000
  H   H1694     1.0  0.58557  0.36316  0.17114  1.0000
  H   H1695     1.0  0.56031  0.36683  0.19109  1.0000
  H   H1696     1.0  0.67995  0.32957  0.20743  1.0000
  H   H1697     1.0  0.68561  0.33123  0.24334  1.0000
  H   H1698     1.0  0.67784  0.31346  0.22984  1.0000
  H   H1699     1.0  0.57157  0.43448  0.04770  1.0000
  H   H1700     1.0  0.66666  0.37184  0.01822  1.0000
  H   H1701     1.0  0.69500  0.41850  0.19588  1.0000
  H   H1702     1.0  0.60519  0.43377  0.44665  1.0000
  H   H1703     1.0  0.62338  0.33709  0.03738  1.0000
  H   H1704     1.0  0.62119  0.41129  0.22853  1.0000
  C   C963      1.0  0.55874  0.24675  0.47751  1.0000
  H   H1705     1.0  0.62724  0.24337  0.21192  1.0000
  H   H1706     1.0  0.52924  0.28739  0.44947  1.0000
  H   H1707     1.0  0.73948  0.26837  0.25480  1.0000
  C   C964      1.0  0.55174  0.26729  0.44473  1.0000
  C   C965      1.0  0.59907  0.46683  0.25106  1.0000
  C   C966      1.0  0.66105  0.23687  0.22686  1.0000
  C   C967      1.0  0.68136  0.36507  0.02609  1.0000
  C   C968      1.0  0.69057  0.24241  0.31043  1.0000
  H   H1708     1.0  0.58898  0.41337  0.26052  1.0000
  H   H1709     1.0  0.64355  0.33235  0.06322  1.0000
  H   H1710     1.0  0.70689  0.40545  0.27419  1.0000
  H   H1711     1.0  0.56361  0.29406  0.42031  1.0000
  H   H1712     1.0  0.60025  0.44912  0.46973  1.0000
  H   H1713     1.0  0.67637  0.24421  0.32518  1.0000
  C   C969      1.0  0.54627  0.45053  0.06331  1.0000
  H   H1714     1.0  0.66436  0.41018  0.14768  1.0000
  C   C970      1.0  0.63547  0.43332  0.23741  1.0000
  H   H1715     1.0  0.69471  0.40756  0.14981  1.0000
  H   H1716     1.0  0.55192  0.28270  0.39358  1.0000
  H   H1717     1.0  0.65189  0.46108  0.24831  1.0000
  H   H1718     1.0  0.59569  0.30030  0.24941  1.0000
  H   H1719     1.0  0.49748  0.46402  0.22141  1.0000
  H   H1720     1.0  0.66977  0.42774  0.26817  1.0000
  H   H1721     1.0  0.59489  0.32717  0.15940  1.0000
  H   H1722     1.0  0.54898  0.42643  0.06729  1.0000
  H   H1723     1.0  0.68211  0.22629  0.36538  1.0000
  H   H1724     1.0  0.67867  0.32077  0.05408  1.0000
  C   C971      1.0  0.54779  0.28948  0.41189  1.0000
  H   H1725     1.0  0.63577  0.44020  0.25617  1.0000
  C   C972      1.0  0.53584  0.27995  0.43311  1.0000
  H   H1726     1.0  0.64444  0.23004  0.30743  1.0000
  S   S215      1.0  0.74112  0.28216  0.15866  1.0000
  H   H1727     1.0  0.71147  0.25741  0.33321  1.0000
  C   C973      1.0  0.59791  0.42354  0.25407  1.0000
  H   H1728     1.0  0.54353  0.43292  0.03300  1.0000
  H   H1729     1.0  0.50826  0.26493  0.46280  1.0000
  C   C974      1.0  0.67975  0.42049  0.18300  1.0000
  H   H1730     1.0  0.56911  0.27156  0.44655  1.0000
  C   C975      1.0  0.64302  0.23765  0.20448  1.0000
  H   H1731     1.0  0.58847  0.42873  0.23669  1.0000
  H   H1732     1.0  0.64944  0.24405  0.18671  1.0000
  S   S216      1.0  0.61579  0.45502  0.06005  1.0000
  H   H1733     1.0  0.69412  0.36345  0.00955  1.0000
  H   H1734     1.0  0.55822  0.29197  0.47860  1.0000
  H   H1735     1.0  0.56725  0.30683  0.15628  1.0000
  H   H1736     1.0  0.69582  0.26627  0.30575  1.0000
  H   H1737     1.0  0.54830  0.45900  0.26682  1.0000
  C   C976      1.0  0.67668  0.40637  0.24850  1.0000
  C   C977      1.0  0.58564  0.30463  0.15253  1.0000
  H   H1738     1.0  0.49741  0.26567  0.34791  1.0000
  H   H1739     1.0  0.66606  0.24847  0.23114  1.0000
  H   H1740     1.0  0.66619  0.30497  0.04041  1.0000
  C   C978      1.0  0.67362  0.35003  0.03696  1.0000
  H   H1741     1.0  0.63895  0.22626  0.19757  1.0000
  S   S217      1.0  0.58906  0.46582  0.13288  1.0000
  H   H1742     1.0  0.55593  0.45206  0.08237  1.0000
  H   H1743     1.0  0.53479  0.45425  0.20440  1.0000
  H   H1744     1.0  0.63042  0.23094  0.03395  1.0000
  C   C979      1.0  0.66802  0.44581  0.21825  1.0000
  H   H1745     1.0  0.66168  0.35243  0.05398  1.0000
  H   H1746     1.0  0.58497  0.46146  0.29059  1.0000
  H   H1747     1.0  0.51664  0.23447  0.49021  1.0000
  C   C980      1.0  0.71301  0.30522  0.03190  1.0000
  C   C981      1.0  0.68081  0.47158  0.23172  1.0000
  H   H1748     1.0  0.57016  0.46243  0.03841  1.0000
  C   C982      1.0  0.49241  0.25761  0.36313  1.0000
  H   H1749     1.0  0.51780  0.46043  0.26655  1.0000
  H   H1750     1.0  0.59646  0.27953  0.01202  1.0000
  H   H1751     1.0  0.72742  0.30259  0.01790  1.0000
  H   H1752     1.0  0.72743  0.25303  0.23681  1.0000
  H   H1753     1.0  0.74010  0.22601  0.43259  1.0000
  H   H1754     1.0  0.67724  0.23420  0.48667  1.0000
  H   H1755     1.0  0.59228  0.25583  0.46823  1.0000
  C   C983      1.0  0.53350  0.46696  0.26670  1.0000
  C   C984      1.0  0.58386  0.24946  0.48453  1.0000
  C   C985      1.0  0.50934  0.24605  0.49009  1.0000
  C   C986      1.0  0.68409  0.22287  0.48161  1.0000
  H   H1756     1.0  0.72822  0.27321  0.47222  1.0000
  H   H1757     1.0  0.69868  0.46897  0.22575  1.0000
  H   H1758     1.0  0.54664  0.47113  0.36779  1.0000
  H   H1759     1.0  0.62487  0.32174  0.99654  1.0000
  H   H1760     1.0  0.64776  0.34790  0.00588  1.0000
  H   H1761     1.0  0.49896  0.46323  0.18495  1.0000
  H   H1762     1.0  0.72981  0.25419  0.48488  1.0000
  H   H1763     1.0  0.52286  0.46583  0.38865  1.0000
  C   C987      1.0  0.61219  0.46871  0.00934  1.0000
  H   H1764     1.0  0.59338  0.42447  0.49168  1.0000
  H   H1765     1.0  0.68865  0.30472  0.99971  1.0000
  H   H1766     1.0  0.62193  0.41827  0.48377  1.0000
  H   H1767     1.0  0.61533  0.23710  0.49285  1.0000
  C   C988      1.0  0.59732  0.23474  0.48837  1.0000
  C   C989      1.0  0.61497  0.47094  0.03760  1.0000
  C   C990      1.0  0.55158  0.46302  0.04245  1.0000
  H   H1768     1.0  0.50770  0.46367  0.02725  1.0000
  H   H1769     1.0  0.71772  0.22802  0.49422  1.0000
  H   H1770     1.0  0.55221  0.24067  0.49557  1.0000
  C   C991      1.0  0.56214  0.28337  0.49441  1.0000
  C   C992      1.0  0.54374  0.27125  0.49475  1.0000
  Fe  Fe109     1.0  0.58837  0.45948  0.61305  1.0000
  S   S218      1.0  0.58032  0.43501  0.61750  1.0000
  C   C993      1.0  0.55239  0.46739  0.83379  1.0000
  Fe  Fe110     1.0  0.59377  0.46297  0.67684  1.0000
  S   S219      1.0  0.58722  0.43864  0.68432  1.0000
  H   H1771     1.0  0.62358  0.24229  0.99451  1.0000
  Fe  Fe111     1.0  0.60920  0.43345  0.64741  1.0000
  S   S220      1.0  0.63682  0.41449  0.64547  1.0000
  Fe  Fe112     1.0  0.55912  0.44184  0.65371  1.0000
  S   S221      1.0  0.52486  0.43330  0.66607  1.0000
  S   S222      1.0  0.61827  0.45789  0.64191  1.0000
  Fe  Fe113     1.0  0.66220  0.32100  0.63037  1.0000
  S   S223      1.0  0.64102  0.30055  0.62438  1.0000
  S   S224      1.0  0.64045  0.34309  0.62736  1.0000
  Fe  Fe114     1.0  0.70531  0.30077  0.63957  1.0000
  S   S225      1.0  0.68642  0.27975  0.63483  1.0000
  Fe  Fe115     1.0  0.66965  0.29122  0.59867  1.0000
  S   S226      1.0  0.66939  0.27613  0.56100  1.0000
  Fe  Fe116     1.0  0.65944  0.29081  0.66093  1.0000
  S   S227      1.0  0.64002  0.27699  0.69215  1.0000
  S   S228      1.0  0.68998  0.31203  0.60213  1.0000
  S   S229      1.0  0.67924  0.31139  0.66827  1.0000
  Fe  Fe117     1.0  0.61569  0.26553  0.85219  1.0000
  S   S230      1.0  0.60345  0.24264  0.84313  1.0000
  S   S231      1.0  0.63278  0.28126  0.82201  1.0000
  Fe  Fe118     1.0  0.60617  0.26204  0.91359  1.0000
  S   S232      1.0  0.59376  0.23867  0.90813  1.0000
  S   S233      1.0  0.60309  0.27360  0.95505  1.0000
  Fe  Fe119     1.0  0.62404  0.23537  0.87995  1.0000
  Fe  Fe120     1.0  0.57406  0.24800  0.87207  1.0000
  S   S234      1.0  0.53758  0.24096  0.86076  1.0000
  S   S235      1.0  0.63745  0.25811  0.88798  1.0000
  S   S236      1.0  0.58528  0.27155  0.87858  1.0000
  H   H1772     1.0  0.54670  0.29665  0.52714  1.0000
  C   C994      1.0  0.50852  0.24401  0.87145  1.0000
  H   H1773     1.0  0.56613  0.45654  0.88483  1.0000
  H   H1774     1.0  0.51468  0.26099  0.90109  1.0000
  C   C995      1.0  0.65392  0.27756  0.52991  1.0000
  H   H1775     1.0  0.73880  0.30259  0.59214  1.0000
  C   C996      1.0  0.64578  0.27098  0.97889  1.0000
  C   C997      1.0  0.62254  0.27382  0.98261  1.0000
  C   C998      1.0  0.52608  0.47096  0.70201  1.0000
  H   H1776     1.0  0.66351  0.24770  0.75698  1.0000
  C   C999      1.0  0.66032  0.22927  0.97386  1.0000
  H   H1777     1.0  0.65236  0.26904  0.95859  1.0000
  C   C1000     1.0  0.65636  0.26597  0.51076  1.0000
  C   C1001     1.0  0.71861  0.25021  0.59817  1.0000
  C   C1002     1.0  0.63881  0.27817  0.72830  1.0000
  C   C1003     1.0  0.65144  0.28837  0.74291  1.0000
  C   C1004     1.0  0.64949  0.28907  0.77159  1.0000
  C   C1005     1.0  0.63495  0.27961  0.78597  1.0000
  C   C1006     1.0  0.62270  0.26920  0.77140  1.0000
  C   C1007     1.0  0.62460  0.26853  0.74273  1.0000
  H   H1778     1.0  0.66256  0.29578  0.73211  1.0000
  H   H1779     1.0  0.65919  0.29707  0.78273  1.0000
  H   H1780     1.0  0.61148  0.26184  0.78215  1.0000
  H   H1781     1.0  0.61480  0.26058  0.73161  1.0000
  C   C1008     1.0  0.63729  0.39463  0.64039  1.0000
  C   C1009     1.0  0.61805  0.38688  0.63270  1.0000
  C   C1010     1.0  0.61945  0.37122  0.62874  1.0000
  C   C1011     1.0  0.64000  0.36296  0.63249  1.0000
  C   C1012     1.0  0.65920  0.37070  0.64031  1.0000
  C   C1013     1.0  0.65785  0.38637  0.64407  1.0000
  H   H1782     1.0  0.60209  0.39294  0.62976  1.0000
  H   H1783     1.0  0.60442  0.36545  0.62272  1.0000
  H   H1784     1.0  0.67517  0.36464  0.64329  1.0000
  H   H1785     1.0  0.67290  0.39215  0.64996  1.0000
  H   H1786     1.0  0.68912  0.25189  0.95972  1.0000
  C   C1014     1.0  0.50514  0.44396  0.61853  1.0000
  H   H1787     1.0  0.55132  0.42223  0.57045  1.0000
  H   H1788     1.0  0.52203  0.44690  0.61211  1.0000
  H   H1789     1.0  0.71034  0.27177  0.84035  1.0000
  C   C1015     1.0  0.65080  0.44042  0.56438  1.0000
  C   C1016     1.0  0.64315  0.31076  0.94833  1.0000
  H   H1790     1.0  0.71268  0.28193  0.51634  1.0000
  C   C1017     1.0  0.72176  0.27092  0.51586  1.0000
  C   C1018     1.0  0.73703  0.25574  0.57895  1.0000
  H   H1791     1.0  0.58981  0.41232  0.53220  1.0000
  H   H1792     1.0  0.71997  0.25552  0.61848  1.0000
  H   H1793     1.0  0.68826  0.24957  0.92329  1.0000
  H   H1794     1.0  0.54521  0.26502  0.51445  1.0000
  C   C1019     1.0  0.68520  0.25375  0.80513  1.0000
  C   C1020     1.0  0.68612  0.25394  0.83672  1.0000
  C   C1021     1.0  0.62567  0.43562  0.56509  1.0000
  H   H1795     1.0  0.67170  0.26194  0.79859  1.0000
  S   S237      1.0  0.58217  0.47198  0.57188  1.0000
  C   C1022     1.0  0.56337  0.29130  0.52184  1.0000
  H   H1796     1.0  0.66924  0.25168  0.84547  1.0000
  H   H1797     1.0  0.53708  0.46846  0.76659  1.0000
  H   H1798     1.0  0.55395  0.45504  0.83568  1.0000
  H   H1799     1.0  0.61444  0.46393  0.75381  1.0000
  N   N56       1.0  0.62088  0.33814  0.71696  1.0000
  C   C1023     1.0  0.61165  0.35263  0.70493  1.0000
  C   C1024     1.0  0.61847  0.32598  0.69605  1.0000
  C   C1025     1.0  0.60777  0.33475  0.74261  1.0000
  C   C1026     1.0  0.64572  0.33916  0.72408  1.0000
  C   C1027     1.0  0.66097  0.34627  0.70195  1.0000
  C   C1028     1.0  0.61367  0.36661  0.72325  1.0000
  C   C1029     1.0  0.61401  0.31961  0.75663  1.0000
  C   C1030     1.0  0.59382  0.32136  0.68987  1.0000
  C   C1031     1.0  0.59337  0.30994  0.66692  1.0000
  C   C1032     1.0  0.68595  0.34551  0.71029  1.0000
  C   C1033     1.0  0.60894  0.38095  0.70696  1.0000
  C   C1034     1.0  0.59882  0.31693  0.78140  1.0000
  H   H1800     1.0  0.59329  0.35191  0.70033  1.0000
  H   H1801     1.0  0.61967  0.35484  0.68474  1.0000
  H   H1802     1.0  0.62611  0.32941  0.67633  1.0000
  H   H1803     1.0  0.62837  0.31569  0.70206  1.0000
  H   H1804     1.0  0.58918  0.33528  0.73859  1.0000
  H   H1805     1.0  0.61054  0.34347  0.75821  1.0000
  H   H1806     1.0  0.64794  0.34549  0.74332  1.0000
  H   H1807     1.0  0.65317  0.32783  0.72850  1.0000
  H   H1808     1.0  0.65625  0.35822  0.69861  1.0000
  H   H1809     1.0  0.65938  0.34046  0.68225  1.0000
  H   H1810     1.0  0.60105  0.36623  0.74011  1.0000
  H   H1811     1.0  0.63075  0.36740  0.73238  1.0000
  H   H1812     1.0  0.63184  0.31951  0.76389  1.0000
  H   H1813     1.0  0.61209  0.31008  0.74260  1.0000
  H   H1814     1.0  0.58592  0.31620  0.70806  1.0000
  H   H1815     1.0  0.58300  0.33105  0.68334  1.0000
  H   H1816     1.0  0.57573  0.30633  0.66373  1.0000
  H   H1817     1.0  0.59948  0.31499  0.64758  1.0000
  H   H1818     1.0  0.60416  0.29994  0.67211  1.0000
  H   H1819     1.0  0.68850  0.35189  0.72933  1.0000
  H   H1820     1.0  0.69190  0.33375  0.71348  1.0000
  H   H1821     1.0  0.69640  0.35045  0.69383  1.0000
  H   H1822     1.0  0.59217  0.38071  0.69669  1.0000
  H   H1823     1.0  0.60898  0.39073  0.72078  1.0000
  H   H1824     1.0  0.62239  0.38242  0.69136  1.0000
  H   H1825     1.0  0.60375  0.30609  0.79116  1.0000
  H   H1826     1.0  0.60072  0.32588  0.79673  1.0000
  H   H1827     1.0  0.58076  0.31647  0.77514  1.0000
  H   H1828     1.0  0.50212  0.45455  0.71413  1.0000
  H   H1829     1.0  0.61509  0.44610  0.56614  1.0000
  H   H1830     1.0  0.63798  0.43801  0.51128  1.0000
  H   H1831     1.0  0.74022  0.24699  0.95792  1.0000
  C   C1035     1.0  0.57550  0.43380  0.54457  1.0000
  H   H1832     1.0  0.69721  0.26203  0.75315  1.0000
  H   H1833     1.0  0.68596  0.23231  0.88425  1.0000
  H   H1834     1.0  0.66275  0.43067  0.56292  1.0000
  C   C1036     1.0  0.51173  0.27122  0.81314  1.0000
  H   H1835     1.0  0.57677  0.24796  0.97043  1.0000
  H   H1836     1.0  0.68085  0.27807  0.83995  1.0000
  C   C1037     1.0  0.65131  0.38879  0.55975  1.0000
  H   H1837     1.0  0.72622  0.29765  0.54565  1.0000
  H   H1838     1.0  0.57031  0.44714  0.79643  1.0000
  C   C1038     1.0  0.63668  0.40284  0.56512  1.0000
  H   H1839     1.0  0.73570  0.24948  0.55964  1.0000
  H   H1840     1.0  0.63768  0.29889  0.53809  1.0000
  H   H1841     1.0  0.70147  0.25278  0.58962  1.0000
  H   H1842     1.0  0.71227  0.26313  0.52903  1.0000
  H   H1843     1.0  0.49614  0.22749  0.84388  1.0000
  C   C1039     1.0  0.55202  0.42758  0.54995  1.0000
  H   H1844     1.0  0.64617  0.45920  0.59197  1.0000
  H   H1845     1.0  0.50011  0.46738  0.54133  1.0000
  C   C1040     1.0  0.57852  0.24139  0.98963  1.0000
  H   H1846     1.0  0.64884  0.33278  0.96311  1.0000
  C   C1041     1.0  0.63345  0.41237  0.53869  1.0000
  H   H1847     1.0  0.70050  0.23488  0.94444  1.0000
  C   C1042     1.0  0.67958  0.24129  0.76170  1.0000
  H   H1848     1.0  0.66845  0.39178  0.55241  1.0000
  H   H1849     1.0  0.67180  0.31956  0.96895  1.0000
  H   H1850     1.0  0.70154  0.25837  0.79817  1.0000
  H   H1851     1.0  0.69260  0.26910  0.86994  1.0000
  H   H1852     1.0  0.71200  0.25557  0.70791  1.0000
  H   H1853     1.0  0.57834  0.44243  0.55997  1.0000
  C   C1043     1.0  0.65692  0.44886  0.59013  1.0000
  H   H1854     1.0  0.65332  0.38227  0.57901  1.0000
  H   H1855     1.0  0.73756  0.27811  0.59435  1.0000
  H   H1856     1.0  0.67496  0.45208  0.58910  1.0000
  H   H1857     1.0  0.51241  0.25116  0.51026  1.0000
  C   C1044     1.0  0.50193  0.46520  0.70233  1.0000
  C   C1045     1.0  0.73461  0.27288  0.57424  1.0000
  C   C1046     1.0  0.69293  0.26918  0.84727  1.0000
  H   H1858     1.0  0.54583  0.44542  0.74114  1.0000
  H   H1859     1.0  0.51067  0.26930  0.83551  1.0000
  C   C1047     1.0  0.61943  0.23354  0.97947  1.0000
  C   C1048     1.0  0.50191  0.43715  0.64393  1.0000
  C   C1049     1.0  0.70103  0.22823  0.80013  1.0000
  C   C1050     1.0  0.69907  0.24997  0.74815  1.0000
  H   H1860     1.0  0.56707  0.43259  0.75475  1.0000
  H   H1861     1.0  0.59036  0.22825  0.50571  1.0000
  H   H1862     1.0  0.72060  0.23794  0.60092  1.0000
  C   C1051     1.0  0.68683  0.24367  0.94319  1.0000
  H   H1863     1.0  0.54779  0.41928  0.53417  1.0000
  H   H1864     1.0  0.62260  0.42983  0.58487  1.0000
  H   H1865     1.0  0.65471  0.44170  0.60849  1.0000
  H   H1866     1.0  0.62015  0.39922  0.57327  1.0000
  H   H1867     1.0  0.71691  0.23445  0.80320  1.0000
  H   H1868     1.0  0.53821  0.46169  0.69677  1.0000
  H   H1869     1.0  0.71660  0.27587  0.56956  1.0000
  H   H1870     1.0  0.52715  0.27751  0.49602  1.0000
  H   H1871     1.0  0.71592  0.24578  0.75541  1.0000
  H   H1872     1.0  0.64535  0.24152  0.79872  1.0000
  H   H1873     1.0  0.72743  0.22617  0.88199  1.0000
  H   H1874     1.0  0.57461  0.45134  0.74584  1.0000
  H   H1875     1.0  0.65054  0.41524  0.53088  1.0000
  H   H1876     1.0  0.65382  0.44799  0.54683  1.0000
  H   H1877     1.0  0.56861  0.28329  0.53821  1.0000
  H   H1878     1.0  0.54102  0.44249  0.79120  1.0000
  C   C1052     1.0  0.65927  0.23307  0.80274  1.0000
  H   H1879     1.0  0.59289  0.41634  0.56719  1.0000
  H   H1880     1.0  0.66278  0.22831  0.92876  1.0000
  N   N57       1.0  0.61836  0.42620  0.54144  1.0000
  C   C1053     1.0  0.56097  0.44444  0.75457  1.0000
  H   H1881     1.0  0.49734  0.46267  0.68102  1.0000
  H   H1882     1.0  0.61122  0.44651  0.51834  1.0000
  H   H1883     1.0  0.66722  0.25638  0.51552  1.0000
  H   H1884     1.0  0.51592  0.45382  0.82341  1.0000
  H   H1885     1.0  0.57499  0.43929  0.52423  1.0000
  H   H1886     1.0  0.64838  0.29899  0.95268  1.0000
  C   C1054     1.0  0.51413  0.46485  0.81289  1.0000
  C   C1055     1.0  0.59435  0.42137  0.54646  1.0000
  C   C1056     1.0  0.55503  0.44940  0.78361  1.0000
  H   H1887     1.0  0.57624  0.30010  0.52066  1.0000
  C   C1057     1.0  0.56329  0.46884  0.88368  1.0000
  C   C1058     1.0  0.50189  0.25450  0.89128  1.0000
  C   C1059     1.0  0.63971  0.28988  0.52361  1.0000
  C   C1060     1.0  0.62000  0.43541  0.51567  1.0000
  H   H1888     1.0  0.58503  0.25558  0.50406  1.0000
  H   H1889     1.0  0.62430  0.31175  0.94827  1.0000
  H   H1890     1.0  0.65046  0.24535  0.94145  1.0000
  H   H1891     1.0  0.64525  0.40918  0.58129  1.0000
  H   H1892     1.0  0.62654  0.40485  0.52297  1.0000
  H   H1893     1.0  0.51716  0.26061  0.80310  1.0000
  H   H1894     1.0  0.53905  0.43684  0.54934  1.0000
  N   N58       1.0  0.68156  0.23875  0.79215  1.0000
  H   H1895     1.0  0.69869  0.24553  0.84450  1.0000
  C   C1061     1.0  0.69838  0.24883  0.71704  1.0000
  C   C1062     1.0  0.65312  0.32112  0.96955  1.0000
  C   C1063     1.0  0.66365  0.23658  0.94535  1.0000
  H   H1896     1.0  0.70101  0.23705  0.71052  1.0000
  H   H1897     1.0  0.64946  0.31373  0.92768  1.0000
  H   H1898     1.0  0.52487  0.27960  0.80927  1.0000
  H   H1899     1.0  0.68178  0.25323  0.70915  1.0000
  H   H1900     1.0  0.61820  0.23966  0.95975  1.0000
  H   H1901     1.0  0.67808  0.23065  0.75061  1.0000
  H   H1902     1.0  0.56993  0.47126  0.82979  1.0000
  H   H1903     1.0  0.64316  0.38163  0.54443  1.0000
  C   C1064     1.0  0.62828  0.29063  0.49834  1.0000
  N   N59       1.0  0.53709  0.47189  0.81024  1.0000
  H   H1904     1.0  0.73568  0.24500  0.92170  1.0000
  H   H1905     1.0  0.65977  0.23150  0.82527  1.0000
  S   S238      1.0  0.56464  0.46615  0.64734  1.0000
  C   C1065     1.0  0.54835  0.46627  0.78437  1.0000
  H   H1906     1.0  0.50710  0.46228  0.79241  1.0000
  H   H1907     1.0  0.61926  0.46917  0.80325  1.0000
  H   H1908     1.0  0.72761  0.32416  0.56204  1.0000
  H   H1909     1.0  0.52934  0.46761  0.86901  1.0000
  C   C1066     1.0  0.59523  0.22820  0.98568  1.0000
  H   H1910     1.0  0.66243  0.23833  0.98900  1.0000
  H   H1911     1.0  0.69749  0.22308  0.82044  1.0000
  H   H1912     1.0  0.56153  0.23723  0.99513  1.0000
  H   H1913     1.0  0.61545  0.22291  0.79277  1.0000
  Fe  Fe121     1.0  0.69534  0.67056  0.37367  1.0000
  S   S239      1.0  0.67035  0.68995  0.37266  1.0000
  Fe  Fe122     1.0  0.65752  0.64724  0.38177  1.0000
  S   S240      1.0  0.63058  0.66563  0.38055  1.0000
  S   S241      1.0  0.64663  0.62396  0.39769  1.0000
  Fe  Fe123     1.0  0.64960  0.67561  0.34519  1.0000
  S   S242      1.0  0.62918  0.68840  0.31207  1.0000
  Fe  Fe124     1.0  0.65317  0.67860  0.40798  1.0000
  S   S243      1.0  0.63530  0.69224  0.44160  1.0000
  S   S244      1.0  0.67544  0.65640  0.34432  1.0000
  S   S245      1.0  0.67950  0.66000  0.41095  1.0000
  H   H1914     1.0  0.51002  0.70021  0.16727  1.0000
  H   H1915     1.0  0.70161  0.52347  0.39595  1.0000
  S   S246      1.0  0.58181  0.69340  0.12104  1.0000
  C   C1067     1.0  0.58016  0.66465  0.44407  1.0000
  Fe  Fe125     1.0  0.61021  0.70095  0.14803  1.0000
  S   S247      1.0  0.62769  0.68702  0.18164  1.0000
  Fe  Fe126     1.0  0.60454  0.69856  0.08517  1.0000
  S   S248      1.0  0.61544  0.68144  0.05302  1.0000
  Fe  Fe127     1.0  0.60153  0.53586  0.38239  1.0000
  S   S249      1.0  0.62390  0.51473  0.38277  1.0000
  S   S250      1.0  0.61454  0.55818  0.36509  1.0000
  Fe  Fe128     1.0  0.55990  0.51835  0.39869  1.0000
  S   S251      1.0  0.57950  0.49655  0.39981  1.0000
  S   S252      1.0  0.52338  0.51570  0.41139  1.0000
  Fe  Fe129     1.0  0.60576  0.50896  0.42243  1.0000
  S   S253      1.0  0.62390  0.49859  0.46021  1.0000
  Fe  Fe130     1.0  0.59537  0.50381  0.36011  1.0000
  S   S254      1.0  0.59410  0.48538  0.32717  1.0000
  S   S255      1.0  0.58543  0.53073  0.42324  1.0000
  S   S256      1.0  0.57389  0.52500  0.35796  1.0000
  H   H1916     1.0  0.64100  0.53976  0.48412  1.0000
  C   C1068     1.0  0.55220  0.68866  0.27618  1.0000
  C   C1069     1.0  0.61497  0.49538  0.99977  1.0000
  H   H1917     1.0  0.65512  0.70094  0.04262  1.0000
  C   C1070     1.0  0.67850  0.56445  0.42914  1.0000
  C   C1071     1.0  0.54861  0.48454  0.99828  1.0000
  H   H1918     1.0  0.67089  0.59474  0.43533  1.0000
  C   C1072     1.0  0.60104  0.48270  0.29183  1.0000
  C   C1073     1.0  0.61326  0.49297  0.27646  1.0000
  C   C1074     1.0  0.61881  0.48999  0.24883  1.0000
  C   C1075     1.0  0.51422  0.48215  0.35718  1.0000
  C   C1076     1.0  0.61762  0.49762  0.02805  1.0000
  H   H1919     1.0  0.61879  0.50309  0.28596  1.0000
  C   C1077     1.0  0.50268  0.47468  0.03580  1.0000
  H   H1920     1.0  0.70013  0.71736  0.03939  1.0000
  C   C1078     1.0  0.50955  0.69668  0.18912  1.0000
  H   H1921     1.0  0.56383  0.64214  0.02603  1.0000
  H   H1922     1.0  0.52090  0.53851  0.36843  1.0000
  H   H1923     1.0  0.57698  0.49593  0.48083  1.0000
  H   H1924     1.0  0.64948  0.65430  0.45892  1.0000
  H   H1925     1.0  0.53805  0.50265  0.08924  1.0000
  H   H1926     1.0  0.54294  0.49155  0.33582  1.0000
  S   S257      1.0  0.63338  0.70405  0.11231  1.0000
  C   C1079     1.0  0.63689  0.60596  0.38785  1.0000
  C   C1080     1.0  0.63726  0.60101  0.36080  1.0000
  C   C1081     1.0  0.63010  0.58651  0.35433  1.0000
  C   C1082     1.0  0.62234  0.57667  0.37466  1.0000
  C   C1083     1.0  0.62175  0.58166  0.40170  1.0000
  C   C1084     1.0  0.62899  0.59614  0.40819  1.0000
  H   H1927     1.0  0.64323  0.60832  0.34483  1.0000
  H   H1928     1.0  0.63063  0.58289  0.33331  1.0000
  H   H1929     1.0  0.61571  0.57437  0.41763  1.0000
  H   H1930     1.0  0.62851  0.59975  0.42919  1.0000
  C   C1085     1.0  0.62944  0.68796  0.27579  1.0000
  C   C1086     1.0  0.61585  0.69848  0.26126  1.0000
  C   C1087     1.0  0.61515  0.69845  0.23247  1.0000
  C   C1088     1.0  0.62793  0.68778  0.21788  1.0000
  C   C1089     1.0  0.64168  0.67736  0.23236  1.0000
  C   C1090     1.0  0.64250  0.67746  0.26114  1.0000
  H   H1931     1.0  0.60577  0.70669  0.27242  1.0000
  H   H1932     1.0  0.60465  0.70660  0.22163  1.0000
  H   H1933     1.0  0.65167  0.66907  0.22127  1.0000
  H   H1934     1.0  0.65300  0.66929  0.27201  1.0000
  C   C1091     1.0  0.63742  0.69116  0.47773  1.0000
  H   H1935     1.0  0.65703  0.55581  0.38754  1.0000
  H   H1936     1.0  0.70067  0.54165  0.36293  1.0000
  C   C1092     1.0  0.61859  0.68431  0.01739  1.0000
  H   H1937     1.0  0.60886  0.70641  0.48360  1.0000
  H   H1938     1.0  0.56728  0.69207  0.28795  1.0000
  H   H1939     1.0  0.66490  0.54125  0.33508  1.0000
  H   H1940     1.0  0.67526  0.67941  0.16216  1.0000
  C   C1093     1.0  0.50068  0.52384  0.39277  1.0000
  H   H1941     1.0  0.63572  0.54888  0.42353  1.0000
  H   H1942     1.0  0.67062  0.52680  0.42933  1.0000
  H   H1943     1.0  0.69529  0.70958  0.14609  1.0000
  C   C1094     1.0  0.62173  0.69949  0.49362  1.0000
  C   C1095     1.0  0.54300  0.68019  0.18472  1.0000
  H   H1944     1.0  0.71344  0.54665  0.43958  1.0000
  H   H1945     1.0  0.59845  0.62046  0.43396  1.0000
  H   H1946     1.0  0.70860  0.52079  0.43128  1.0000
  C   C1096     1.0  0.54697  0.51280  0.29368  1.0000
  C   C1097     1.0  0.55543  0.52823  0.28602  1.0000
  H   H1947     1.0  0.54520  0.53319  0.26905  1.0000
  H   H1948     1.0  0.67712  0.68176  0.06659  1.0000
  S   S258      1.0  0.62073  0.47322  0.20147  1.0000
  C   C1098     1.0  0.70643  0.54436  0.41895  1.0000
  H   H1949     1.0  0.59122  0.63400  0.03480  1.0000
  H   H1950     1.0  0.70872  0.71748  0.23089  1.0000
  H   H1951     1.0  0.52471  0.71699  0.03237  1.0000
  H   H1952     1.0  0.56890  0.63885  0.47517  1.0000
  H   H1953     1.0  0.55001  0.48301  0.29142  1.0000
  C   C1099     1.0  0.65407  0.68232  0.49094  1.0000
  N   N60       1.0  0.68155  0.54886  0.41789  1.0000
  H   H1954     1.0  0.67885  0.57915  0.39328  1.0000
  C   C1100     1.0  0.71210  0.52767  0.41286  1.0000
  H   H1955     1.0  0.54936  0.70782  0.16971  1.0000
  H   H1956     1.0  0.59364  0.65896  0.17929  1.0000
  H   H1957     1.0  0.56288  0.60827  0.42304  1.0000
  N   N61       1.0  0.51235  0.49949  0.31476  1.0000
  H   H1958     1.0  0.55859  0.50801  0.30936  1.0000
  H   H1959     1.0  0.54821  0.50590  0.27498  1.0000
  H   H1960     1.0  0.49397  0.67815  0.21174  1.0000
  H   H1961     1.0  0.55445  0.53584  0.30382  1.0000
  H   H1962     1.0  0.57344  0.52722  0.27931  1.0000
  H   H1963     1.0  0.68628  0.55302  0.32078  1.0000
  H   H1964     1.0  0.68001  0.69940  0.24443  1.0000
  H   H1965     1.0  0.53506  0.48374  0.39345  1.0000
  H   H1966     1.0  0.68536  0.56483  0.45030  1.0000
  C   C1101     1.0  0.68834  0.59185  0.42814  1.0000
  C   C1102     1.0  0.66971  0.63532  0.47166  1.0000
  H   H1967     1.0  0.62013  0.50879  0.03546  1.0000
  C   C1103     1.0  0.68890  0.57721  0.41222  1.0000
  C   C1104     1.0  0.51274  0.48750  0.29315  1.0000
  H   H1968     1.0  0.67486  0.69755  0.19974  1.0000
  H   H1969     1.0  0.61762  0.54992  0.46850  1.0000
  H   H1970     1.0  0.62872  0.49787  0.23743  1.0000
  H   H1971     1.0  0.52075  0.52261  0.31986  1.0000
  H   H1972     1.0  0.51298  0.69856  0.10537  1.0000
  C   C1105     1.0  0.57900  0.67335  0.41718  1.0000
  H   H1973     1.0  0.56278  0.67996  0.41608  1.0000
  H   H1974     1.0  0.59319  0.68120  0.41572  1.0000
  H   H1975     1.0  0.57983  0.66561  0.39957  1.0000
  N   N62       1.0  0.54441  0.47869  0.05058  1.0000
  C   C1106     1.0  0.49946  0.70631  0.11134  1.0000
  C   C1107     1.0  0.55055  0.48968  0.02834  1.0000
  C   C1108     1.0  0.55761  0.48251  0.07591  1.0000
  H   H1976     1.0  0.64745  0.71611  0.20424  1.0000
  C   C1109     1.0  0.55590  0.49910  0.08505  1.0000
  C   C1110     1.0  0.63631  0.54790  0.46772  1.0000
  C   C1111     1.0  0.56937  0.50151  0.11116  1.0000
  Fe  Fe131     1.0  0.57103  0.71775  0.11869  1.0000
  H   H1977     1.0  0.68073  0.47991  0.24842  1.0000
  H   H1978     1.0  0.56869  0.49274  0.03036  1.0000
  H   H1979     1.0  0.57597  0.47954  0.07311  1.0000
  H   H1980     1.0  0.55200  0.47575  0.09366  1.0000
  H   H1981     1.0  0.66220  0.56130  0.33832  1.0000
  H   H1982     1.0  0.57062  0.60469  0.45803  1.0000
  H   H1983     1.0  0.56286  0.50663  0.06925  1.0000
  H   H1984     1.0  0.56516  0.65225  0.17730  1.0000
  C   C1112     1.0  0.68370  0.69325  0.06597  1.0000
  S   S259      1.0  0.73400  0.67249  0.36826  1.0000
  H   H1985     1.0  0.58753  0.49820  0.10812  1.0000
  H   H1986     1.0  0.56837  0.51350  0.11677  1.0000
  H   H1987     1.0  0.56226  0.49493  0.12829  1.0000
  H   H1988     1.0  0.70252  0.69250  0.06469  1.0000
  H   H1989     1.0  0.53003  0.72169  0.22280  1.0000
  H   H1990     1.0  0.51440  0.49174  0.06206  1.0000
  H   H1991     1.0  0.66452  0.53666  0.38600  1.0000
  H   H1992     1.0  0.49732  0.67503  0.17555  1.0000
  H   H1993     1.0  0.62702  0.62641  0.48333  1.0000
  C   C1113     1.0  0.67168  0.54785  0.38952  1.0000
  H   H1994     1.0  0.67860  0.69898  0.08514  1.0000
  H   H1995     1.0  0.49805  0.48007  0.29572  1.0000
  H   H1996     1.0  0.50129  0.70619  0.20025  1.0000
  H   H1997     1.0  0.69668  0.56138  0.36705  1.0000
  H   H1998     1.0  0.61975  0.48754  0.06839  1.0000
  H   H1999     1.0  0.70684  0.57476  0.40669  1.0000
  H   H2000     1.0  0.53667  0.69293  0.28680  1.0000
  H   H2001     1.0  0.53269  0.67025  0.18890  1.0000
  C   C1114     1.0  0.57580  0.66212  0.17397  1.0000
  H   H2002     1.0  0.53441  0.47386  0.24782  1.0000
  H   H2003     1.0  0.68482  0.64217  0.47516  1.0000
  H   H2004     1.0  0.51045  0.49268  0.27257  1.0000
  H   H2005     1.0  0.67159  0.47665  0.21402  1.0000
  C   C1115     1.0  0.52210  0.51377  0.30394  1.0000
  H   H2006     1.0  0.55443  0.70730  0.24887  1.0000
  H   H2007     1.0  0.50139  0.48306  0.01906  1.0000
  C   C1116     1.0  0.67381  0.70163  0.04126  1.0000
  H   H2008     1.0  0.69399  0.60107  0.41471  1.0000
  H   H2009     1.0  0.63428  0.53077  0.43786  1.0000
  H   H2010     1.0  0.60637  0.64953  0.42706  1.0000
  H   H2011     1.0  0.57870  0.67292  0.46081  1.0000
  C   C1117     1.0  0.67719  0.71140  0.24921  1.0000
  H   H2012     1.0  0.56519  0.65749  0.44489  1.0000
  H   H2013     1.0  0.54045  0.50031  0.03067  1.0000
  H   H2014     1.0  0.61629  0.66372  0.44811  1.0000
  C   C1118     1.0  0.51949  0.47997  0.05766  1.0000
  C   C1119     1.0  0.60280  0.65541  0.44665  1.0000
  H   H2015     1.0  0.74073  0.51303  0.40224  1.0000
  H   H2016     1.0  0.62896  0.63102  0.44850  1.0000
  H   H2017     1.0  0.66658  0.67615  0.47900  1.0000
  C   C1120     1.0  0.66901  0.53850  0.43675  1.0000
  C   C1121     1.0  0.64295  0.54155  0.43981  1.0000
  C   C1122     1.0  0.58549  0.63353  0.46924  1.0000
  H   H2018     1.0  0.66019  0.56765  0.43090  1.0000
  H   H2019     1.0  0.66588  0.70639  0.15277  1.0000
  H   H2020     1.0  0.54813  0.61826  0.44993  1.0000
  N   N63       1.0  0.60424  0.64462  0.47038  1.0000
  C   C1123     1.0  0.58216  0.64188  0.02068  1.0000
  C   C1124     1.0  0.53406  0.47687  0.29194  1.0000
  C   C1125     1.0  0.52504  0.49486  0.34035  1.0000
  H   H2021     1.0  0.58872  0.65327  0.02358  1.0000
  C   C1126     1.0  0.62668  0.63606  0.46894  1.0000
  C   C1127     1.0  0.64817  0.64517  0.47410  1.0000
  H   H2022     1.0  0.59216  0.70127  0.01369  1.0000
  H   H2023     1.0  0.73937  0.70526  0.37884  1.0000
  H   H2024     1.0  0.72609  0.71693  0.17274  1.0000
  H   H2025     1.0  0.73670  0.68610  0.28703  1.0000
  C   C1128     1.0  0.54716  0.70708  0.19227  1.0000
  N   N64       1.0  0.53339  0.69369  0.19963  1.0000
  H   H2026     1.0  0.70484  0.68276  0.15495  1.0000
  C   C1129     1.0  0.61172  0.47693  0.23584  1.0000
  C   C1130     1.0  0.49307  0.68354  0.19130  1.0000
  H   H2027     1.0  0.58852  0.62452  0.48465  1.0000
  C   C1131     1.0  0.68476  0.71361  0.27867  1.0000
  C   C1132     1.0  0.50398  0.53475  0.37271  1.0000
  H   H2028     1.0  0.54215  0.68219  0.16222  1.0000
  C   C1133     1.0  0.68685  0.70515  0.18945  1.0000
  C   C1134     1.0  0.68709  0.68656  0.15065  1.0000
  C   C1135     1.0  0.53235  0.69080  0.23009  1.0000
  H   H2029     1.0  0.51767  0.69703  0.23945  1.0000
  H   H2030     1.0  0.68374  0.68516  0.12856  1.0000
  H   H2031     1.0  0.56951  0.69087  0.23807  1.0000
  C   C1136     1.0  0.56489  0.61351  0.44335  1.0000
  H   H2032     1.0  0.68016  0.69566  0.02290  1.0000
  H   H2033     1.0  0.67702  0.53814  0.45736  1.0000
  C   C1137     1.0  0.58234  0.62573  0.44132  1.0000
  H   H2034     1.0  0.56472  0.70592  0.20019  1.0000
  C   C1138     1.0  0.55341  0.69500  0.24720  1.0000
  H   H2035     1.0  0.70405  0.70066  0.19498  1.0000
  C   C1139     1.0  0.50488  0.72042  0.12116  1.0000
  H   H2036     1.0  0.64532  0.66746  0.01405  1.0000
  C   C1140     1.0  0.68770  0.55080  0.36495  1.0000
  H   H2037     1.0  0.71652  0.55128  0.40486  1.0000
  C   C1141     1.0  0.56760  0.67511  0.19190  1.0000
  H   H2038     1.0  0.56848  0.67100  0.21327  1.0000
  H   H2039     1.0  0.57627  0.63385  0.42555  1.0000
  H   H2040     1.0  0.63880  0.71741  0.01585  1.0000
  C   C1142     1.0  0.61738  0.48556  0.04684  1.0000
  H   H2041     1.0  0.64466  0.55859  0.47161  1.0000
  H   H2042     1.0  0.57530  0.66530  0.15205  1.0000
  C   C1143     1.0  0.67442  0.55162  0.33819  1.0000
  H   H2043     1.0  0.51219  0.51813  0.28620  1.0000
  H   H2044     1.0  0.69985  0.59099  0.44603  1.0000
  C   C1144     1.0  0.73713  0.52513  0.40548  1.0000
  H   H2045     1.0  0.64801  0.65005  0.49482  1.0000
  C   C1145     1.0  0.68339  0.70295  0.15844  1.0000
  H   H2046     1.0  0.67114  0.63047  0.45088  1.0000
  H   H2047     1.0  0.55228  0.67627  0.27578  1.0000
  H   H2048     1.0  0.52639  0.50455  0.35433  1.0000
  H   H2049     1.0  0.57952  0.68428  0.18897  1.0000
  H   H2050     1.0  0.49933  0.48669  0.36880  1.0000
  H   H2051     1.0  0.52901  0.67881  0.23411  1.0000
  C   C1146     1.0  0.60466  0.69446  0.00289  1.0000
  C   C1147     1.0  0.63450  0.67537  0.00300  1.0000
  C   C1148     1.0  0.53081  0.47530  0.37795  1.0000
  H   H2052     1.0  0.66967  0.62616  0.48702  1.0000
  H   H2053     1.0  0.50830  0.47315  0.34378  1.0000
  C   C1149     1.0  0.61189  0.49080  0.49076  1.0000
  H   H2054     1.0  0.67494  0.70626  0.29242  1.0000
  H   H2055     1.0  0.65870  0.71397  0.24834  1.0000
  H   H2056     1.0  0.61984  0.63000  0.99869  1.0000
  C   C1150     1.0  0.68130  0.71802  0.04080  1.0000
  H   H2057     1.0  0.70308  0.71062  0.28104  1.0000
  C   C1151     1.0  0.69066  0.72131  0.22910  1.0000
  N   N65       1.0  0.68317  0.72088  0.19971  1.0000
  H   H2058     1.0  0.74128  0.53120  0.38635  1.0000
  C   C1152     1.0  0.53687  0.72237  0.20174  1.0000
  H   H2059     1.0  0.51609  0.47386  0.07709  1.0000
  Fe  Fe132     1.0  0.70389  0.67950  0.89080  1.0000
  S   S260      1.0  0.67455  0.69320  0.87413  1.0000
  Fe  Fe133     1.0  0.67817  0.64990  0.88039  1.0000
  S   S261      1.0  0.64804  0.66237  0.86211  1.0000
  S   S262      1.0  0.67972  0.62462  0.89058  1.0000
  Fe  Fe134     1.0  0.67370  0.67647  0.84023  1.0000
  S   S263      1.0  0.67741  0.68598  0.79694  1.0000
  Fe  Fe135     1.0  0.65203  0.67798  0.89777  1.0000
  S   S264      1.0  0.62257  0.68723  0.92358  1.0000
  S   S265      1.0  0.70401  0.66301  0.85623  1.0000
  S   S266      1.0  0.68116  0.66524  0.91666  1.0000
  H   H2060     1.0  0.66761  0.67476  0.52975  1.0000
  C   C1153     1.0  0.58661  0.54943  0.78826  1.0000
  S   S267      1.0  0.59088  0.69781  0.62507  1.0000
  H   H2061     1.0  0.61616  0.60611  0.99062  1.0000
  H   H2062     1.0  0.68524  0.61838  0.95226  1.0000
  S   S268      1.0  0.60636  0.69554  0.69977  1.0000
  C   C1154     1.0  0.61074  0.47740  0.79032  1.0000
  S   S269      1.0  0.64017  0.68865  0.57177  1.0000
  Fe  Fe136     1.0  0.60783  0.54396  0.89106  1.0000
  S   S270      1.0  0.62761  0.52190  0.89545  1.0000
  S   S271      1.0  0.61723  0.56744  0.87514  1.0000
  Fe  Fe137     1.0  0.56296  0.52864  0.90402  1.0000
  S   S272      1.0  0.57916  0.50577  0.90862  1.0000
  S   S273      1.0  0.52663  0.53445  0.91567  1.0000
  Fe  Fe138     1.0  0.60587  0.51721  0.93283  1.0000
  S   S274      1.0  0.61655  0.51106  0.97698  1.0000
  Fe  Fe139     1.0  0.59933  0.51181  0.87079  1.0000
  S   S275      1.0  0.60660  0.49395  0.83764  1.0000
  S   S276      1.0  0.58845  0.53996  0.92983  1.0000
  S   S277      1.0  0.58079  0.53387  0.86467  1.0000
  H   H2063     1.0  0.59050  0.61510  0.95011  1.0000
  H   H2064     1.0  0.64864  0.66946  0.96360  1.0000
  H   H2065     1.0  0.66375  0.51502  0.76436  1.0000
  H   H2066     1.0  0.51202  0.49626  0.57071  1.0000
  C   C1155     1.0  0.59433  0.47890  0.54072  1.0000
  H   H2067     1.0  0.58446  0.54347  0.76867  1.0000
  H   H2068     1.0  0.63710  0.53773  0.84719  1.0000
  C   C1156     1.0  0.60267  0.49094  0.80183  1.0000
  C   C1157     1.0  0.59174  0.50144  0.78466  1.0000
  C   C1158     1.0  0.58913  0.49845  0.75653  1.0000
  C   C1159     1.0  0.59713  0.48487  0.74502  1.0000
  H   H2069     1.0  0.52761  0.47996  0.68649  1.0000
  H   H2070     1.0  0.58522  0.51185  0.79303  1.0000
  H   H2071     1.0  0.58071  0.50669  0.74354  1.0000
  C   C1160     1.0  0.50481  0.52873  0.89428  1.0000
  C   C1161     1.0  0.50894  0.51787  0.87443  1.0000
  H   H2072     1.0  0.56227  0.47608  0.99376  1.0000
  H   H2073     1.0  0.52599  0.51337  0.87134  1.0000
  H   H2074     1.0  0.70868  0.68801  0.64489  1.0000
  H   H2075     1.0  0.65711  0.48836  0.80334  1.0000
  C   C1162     1.0  0.60401  0.65423  0.54824  1.0000
  H   H2076     1.0  0.57959  0.47412  0.87847  1.0000
  H   H2077     1.0  0.51319  0.51652  0.76468  1.0000
  C   C1163     1.0  0.66108  0.60925  0.88712  1.0000
  C   C1164     1.0  0.64304  0.60936  0.86856  1.0000
  C   C1165     1.0  0.62974  0.59658  0.86552  1.0000
  C   C1166     1.0  0.63382  0.58357  0.88135  1.0000
  C   C1167     1.0  0.65128  0.58368  0.90069  1.0000
  C   C1168     1.0  0.66493  0.59633  0.90327  1.0000
  H   H2078     1.0  0.63975  0.61914  0.85595  1.0000
  H   H2079     1.0  0.61627  0.59673  0.85055  1.0000
  H   H2080     1.0  0.65465  0.57390  0.91324  1.0000
  H   H2081     1.0  0.67874  0.59605  0.91777  1.0000
  C   C1169     1.0  0.65662  0.68947  0.77130  1.0000
  C   C1170     1.0  0.66224  0.69834  0.74858  1.0000
  C   C1171     1.0  0.64688  0.70062  0.72681  1.0000
  C   C1172     1.0  0.62583  0.69384  0.72732  1.0000
  C   C1173     1.0  0.62015  0.68505  0.75010  1.0000
  C   C1174     1.0  0.63536  0.68296  0.77209  1.0000
  H   H2082     1.0  0.67862  0.70345  0.74781  1.0000
  H   H2083     1.0  0.65129  0.70759  0.70966  1.0000
  H   H2084     1.0  0.60388  0.67979  0.75074  1.0000
  H   H2085     1.0  0.63084  0.67607  0.78935  1.0000
  C   C1175     1.0  0.62199  0.68626  0.95976  1.0000
  H   H2086     1.0  0.67442  0.51821  0.81441  1.0000
  C   C1176     1.0  0.62257  0.69898  0.52236  1.0000
  C   C1177     1.0  0.63907  0.69005  0.53559  1.0000
  H   H2087     1.0  0.57820  0.56066  0.78653  1.0000
  H   H2088     1.0  0.65565  0.66528  0.62128  1.0000
  H   H2089     1.0  0.60751  0.65349  0.93907  1.0000
  H   H2090     1.0  0.66756  0.69793  0.93889  1.0000
  C   C1178     1.0  0.62407  0.53561  0.79694  1.0000
  H   H2091     1.0  0.66358  0.66066  0.74502  1.0000
  C   C1179     1.0  0.53567  0.48872  0.80845  1.0000
  H   H2092     1.0  0.61221  0.58500  0.94159  1.0000
  H   H2093     1.0  0.69239  0.54870  0.88214  1.0000
  H   H2094     1.0  0.67492  0.52853  0.85675  1.0000
  H   H2095     1.0  0.53094  0.47539  0.72214  1.0000
  H   H2096     1.0  0.68391  0.49470  0.79010  1.0000
  H   H2097     1.0  0.60552  0.64739  0.56715  1.0000
  C   C1180     1.0  0.51300  0.48400  0.56754  1.0000
  H   H2098     1.0  0.68156  0.57859  0.76655  1.0000
  H   H2099     1.0  0.71876  0.66408  0.61790  1.0000
  H   H2100     1.0  0.55292  0.49334  0.81033  1.0000
  H   H2101     1.0  0.68348  0.71466  0.93623  1.0000
  C   C1181     1.0  0.52516  0.49533  0.78180  1.0000
  C   C1182     1.0  0.51938  0.51198  0.78455  1.0000
  H   H2102     1.0  0.52627  0.49360  0.82597  1.0000
  H   H2103     1.0  0.54267  0.48529  0.86298  1.0000
  C   C1183     1.0  0.67593  0.55088  0.87166  1.0000
  H   H2104     1.0  0.52202  0.70108  0.66161  1.0000
  H   H2105     1.0  0.70363  0.66160  0.70489  1.0000
  H   H2106     1.0  0.66041  0.70238  0.98779  1.0000
  C   C1184     1.0  0.60932  0.63895  0.90382  1.0000
  C   C1185     1.0  0.65634  0.51915  0.80802  1.0000
  H   H2107     1.0  0.64453  0.48409  0.50727  1.0000
  H   H2108     1.0  0.61476  0.66691  0.61041  1.0000
  H   H2109     1.0  0.62186  0.63804  0.52376  1.0000
  H   H2110     1.0  0.60013  0.64824  0.86420  1.0000
  H   H2111     1.0  0.62805  0.67915  0.65263  1.0000
  C   C1186     1.0  0.49730  0.47956  0.54435  1.0000
  H   H2112     1.0  0.66129  0.68911  0.67241  1.0000
  C   C1187     1.0  0.69430  0.65914  0.65016  1.0000
  H   H2113     1.0  0.53754  0.49407  0.76473  1.0000
  H   H2114     1.0  0.69312  0.66119  0.75398  1.0000
  S   S278      1.0  0.59290  0.48176  0.70931  1.0000
  H   H2115     1.0  0.68273  0.64535  0.73585  1.0000
  H   H2116     1.0  0.64568  0.64399  0.94094  1.0000
  C   C1188     1.0  0.65473  0.68166  0.51973  1.0000
  H   H2117     1.0  0.61408  0.66270  0.49661  1.0000
  C   C1189     1.0  0.67858  0.56657  0.76306  1.0000
  H   H2118     1.0  0.66310  0.48731  0.76732  1.0000
  C   C1190     1.0  0.65483  0.50969  0.78166  1.0000
  H   H2119     1.0  0.57758  0.64928  0.88908  1.0000
  H   H2120     1.0  0.51229  0.68236  0.66587  1.0000
  H   H2121     1.0  0.57808  0.54319  0.80483  1.0000
  C   C1191     1.0  0.64186  0.63272  0.94921  1.0000
  H   H2122     1.0  0.57527  0.64499  0.97831  1.0000
  H   H2123     1.0  0.57821  0.62569  0.98905  1.0000
  H   H2124     1.0  0.51698  0.50025  0.93249  1.0000
  H   H2125     1.0  0.50843  0.47822  0.58683  1.0000
  H   H2126     1.0  0.65103  0.56637  0.79170  1.0000
  S   S279      1.0  0.63895  0.71435  0.63490  1.0000
  H   H2127     1.0  0.61912  0.55758  0.77768  1.0000
  H   H2128     1.0  0.64739  0.62480  0.93304  1.0000
  C   C1192     1.0  0.62640  0.48434  0.51077  1.0000
  C   C1193     1.0  0.70035  0.66180  0.61951  1.0000
  H   H2129     1.0  0.51612  0.69412  0.69540  1.0000
  C   C1194     1.0  0.73214  0.70244  0.82095  1.0000
  H   H2130     1.0  0.69389  0.69912  0.95699  1.0000
  C   C1195     1.0  0.68285  0.62864  0.96468  1.0000
  H   H2131     1.0  0.62766  0.63997  0.89934  1.0000
  H   H2132     1.0  0.53084  0.48075  0.56235  1.0000
  H   H2133     1.0  0.63696  0.50817  0.77569  1.0000
  H   H2134     1.0  0.69412  0.62766  0.98276  1.0000
  H   H2135     1.0  0.58541  0.64039  0.93661  1.0000
  H   H2136     1.0  0.64610  0.55442  0.83277  1.0000
  H   H2137     1.0  0.62923  0.47380  0.55068  1.0000
  H   H2138     1.0  0.67785  0.64546  0.60162  1.0000
  Fe  Fe140     1.0  0.60823  0.70893  0.65999  1.0000
  C   C1196     1.0  0.67364  0.68378  0.65791  1.0000
  H   H2139     1.0  0.71616  0.70920  0.81831  1.0000
  H   H2140     1.0  0.70552  0.68688  0.68109  1.0000
  C   C1197     1.0  0.65814  0.63048  0.97392  1.0000
  H   H2141     1.0  0.73007  0.69508  0.83907  1.0000
  H   H2142     1.0  0.61281  0.55746  0.81393  1.0000
  Fe  Fe141     1.0  0.62022  0.70485  0.59927  1.0000
  C   C1198     1.0  0.68107  0.65766  0.73804  1.0000
  C   C1199     1.0  0.58532  0.63694  0.99104  1.0000
  H   H2143     1.0  0.61412  0.52866  0.81140  1.0000
  C   C1200     1.0  0.69714  0.69085  0.66215  1.0000
  N   N66       1.0  0.61664  0.63141  0.95451  1.0000
  H   H2144     1.0  0.66497  0.64998  0.69000  1.0000
  N   N67       1.0  0.64868  0.53537  0.80554  1.0000
  C   C1201     1.0  0.65027  0.54228  0.83345  1.0000
  H   H2145     1.0  0.67545  0.56259  0.86400  1.0000
  H   H2146     1.0  0.69135  0.67177  0.61074  1.0000
  H   H2147     1.0  0.66763  0.56560  0.74478  1.0000
  C   C1202     1.0  0.60405  0.64157  0.93455  1.0000
  H   H2148     1.0  0.49483  0.70865  0.57792  1.0000
  H   H2149     1.0  0.61675  0.64833  0.98551  1.0000
  H   H2150     1.0  0.60415  0.62774  0.89731  1.0000
  H   H2151     1.0  0.64646  0.51347  0.82434  1.0000
  H   H2152     1.0  0.68358  0.71154  0.68006  1.0000
  S   S280      1.0  0.53646  0.71844  0.60176  1.0000
  H   H2153     1.0  0.61817  0.66211  0.54783  1.0000
  H   H2154     1.0  0.68870  0.71249  0.64360  1.0000
  H   H2155     1.0  0.66203  0.54948  0.88674  1.0000
  C   C1203     1.0  0.66705  0.55993  0.78814  1.0000
  H   H2156     1.0  0.62222  0.53051  0.77650  1.0000
  H   H2157     1.0  0.67822  0.56182  0.80591  1.0000
  C   C1204     1.0  0.66329  0.54296  0.78450  1.0000
  H   H2158     1.0  0.56170  0.48565  0.52418  1.0000
  C   C1205     1.0  0.60521  0.64413  0.52325  1.0000
  C   C1206     1.0  0.61078  0.63677  0.98291  1.0000
  C   C1207     1.0  0.61180  0.55107  0.79470  1.0000
  H   H2159     1.0  0.60096  0.66185  0.89108  1.0000
  S   S281      1.0  0.73082  0.69445  0.90936  1.0000
  C   C1208     1.0  0.68637  0.66546  0.71101  1.0000
  H   H2160     1.0  0.65386  0.64912  0.64252  1.0000
  H   H2161     1.0  0.61437  0.61198  0.92879  1.0000
  C   C1209     1.0  0.60619  0.69528  0.97418  1.0000
  C   C1210     1.0  0.61185  0.66164  0.63067  1.0000
  H   H2162     1.0  0.61036  0.70542  0.53428  1.0000
  H   H2163     1.0  0.61279  0.64931  0.62856  1.0000
  H   H2164     1.0  0.59450  0.66493  0.63776  1.0000
  H   H2165     1.0  0.69522  0.56079  0.75921  1.0000
  H   H2166     1.0  0.65631  0.54125  0.76367  1.0000
  H   H2167     1.0  0.59491  0.70285  0.96303  1.0000
  C   C1211     1.0  0.62931  0.66680  0.65135  1.0000
  H   H2168     1.0  0.50953  0.48952  0.77612  1.0000
  H   H2169     1.0  0.62445  0.66198  0.67136  1.0000
  H   H2170     1.0  0.65244  0.66790  0.69715  1.0000
  C   C1212     1.0  0.60933  0.61566  0.94965  1.0000
  C   C1213     1.0  0.66816  0.66218  0.68930  1.0000
  H   H2171     1.0  0.58763  0.66071  0.54890  1.0000
  C   C1214     1.0  0.65361  0.66156  0.64286  1.0000
  C   C1215     1.0  0.69513  0.70787  0.66329  1.0000
  H   H2172     1.0  0.69360  0.64691  0.65427  1.0000
  C   C1216     1.0  0.59615  0.65030  0.88605  1.0000
  N   N68       1.0  0.67285  0.66697  0.66022  1.0000
  H   H2173     1.0  0.66782  0.68761  0.63733  1.0000
  H   H2174     1.0  0.59161  0.63590  0.52536  1.0000
  H   H2175     1.0  0.68065  0.53765  0.78400  1.0000
  H   H2176     1.0  0.50580  0.51391  0.80001  1.0000
  H   H2177     1.0  0.68785  0.54151  0.83372  1.0000
  C   C1217     1.0  0.66543  0.71187  0.97493  1.0000
  H   H2178     1.0  0.53467  0.51813  0.79056  1.0000
  C   C1218     1.0  0.63638  0.67644  0.97437  1.0000
  C   C1219     1.0  0.60802  0.47437  0.76221  1.0000
  H   H2179     1.0  0.70926  0.66257  0.66194  1.0000
  C   C1220     1.0  0.67348  0.54001  0.84807  1.0000
  C   C1221     1.0  0.66545  0.49408  0.78597  1.0000
  H   H2180     1.0  0.69747  0.71828  0.99232  1.0000
  C   C1222     1.0  0.67846  0.70557  0.95033  1.0000
  H   H2181     1.0  0.68635  0.67761  0.71512  1.0000
  H   H2182     1.0  0.50260  0.48550  0.52554  1.0000
  C   C1223     1.0  0.50823  0.48971  0.92822  1.0000
  H   H2183     1.0  0.71210  0.71250  0.66707  1.0000
  C   C1224     1.0  0.57982  0.48517  0.52056  1.0000
  H   H2184     1.0  0.50394  0.48945  0.90617  1.0000
  C   C1225     1.0  0.61190  0.48081  0.99061  1.0000
  C   C1226     1.0  0.69604  0.64826  0.60157  1.0000
  C   C1227     1.0  0.61774  0.47843  0.53549  1.0000
  H   H2185     1.0  0.70634  0.63841  0.60872  1.0000
  C   C1228     1.0  0.51059  0.69393  0.67375  1.0000
  C   C1229     1.0  0.58846  0.49104  0.49584  1.0000
  H   H2186     1.0  0.61002  0.47882  0.96900  1.0000
  H   H2187     1.0  0.49385  0.50418  0.84404  1.0000
  H   H2188     1.0  0.68795  0.63840  0.95232  1.0000
  H   H2189     1.0  0.61703  0.57965  0.97662  1.0000
  H   H2190     1.0  0.55265  0.49340  0.95731  1.0000
  C   C1230     1.0  0.61943  0.60346  0.96888  1.0000
  H   H2191     1.0  0.52003  0.48013  0.93283  1.0000
  H   H2192     1.0  0.58493  0.65886  0.49798  1.0000
  H   H2193     1.0  0.70104  0.65080  0.58020  1.0000
  C   C1231     1.0  0.49506  0.47406  0.82760  1.0000
  C   C1232     1.0  0.54515  0.47299  0.86246  1.0000
  Fe  Fe142     1.0  0.57400  0.72010  0.61591  1.0000
  H   H2194     1.0  0.64959  0.71741  0.96720  1.0000
  H   H2195     1.0  0.56761  0.50340  0.98284  1.0000
  H   H2196     1.0  0.73488  0.69528  0.80275  1.0000
  H   H2197     1.0  0.50056  0.47811  0.84770  1.0000
  C   C1233     1.0  0.55163  0.49760  0.97852  1.0000
  H   H2198     1.0  0.65684  0.64041  0.98737  1.0000
  H   H2199     1.0  0.63797  0.60209  0.96527  1.0000
  H   H2200     1.0  0.53713  0.50577  0.98010  1.0000
  C   C1234     1.0  0.60911  0.58834  0.96313  1.0000
  H   H2201     1.0  0.59053  0.58879  0.96708  1.0000
  H   H2202     1.0  0.65415  0.62055  0.98634  1.0000
  H   H2203     1.0  0.55776  0.47290  0.90409  1.0000
  H   H2204     1.0  0.49187  0.48748  0.96729  1.0000
  H   H2205     1.0  0.53213  0.47953  0.99390  1.0000
  C   C1235     1.0  0.60205  0.65334  0.49653  1.0000
  H   H2206     1.0  0.56398  0.47251  0.78014  1.0000
  H   H2207     1.0  0.74116  0.78871  0.25173  1.0000
  S   S282      1.0  0.65087  0.74267  0.09936  1.0000
  H   H2208     1.0  0.72066  0.83062  0.34086  1.0000
  S   S283      1.0  0.53366  0.72639  0.12470  1.0000
  C   C1236     1.0  0.72275  0.82113  0.32649  1.0000
  C   C1237     1.0  0.67083  0.75387  0.11676  1.0000
  C   C1238     1.0  0.69137  0.75709  0.10355  1.0000
  C   C1239     1.0  0.70714  0.76671  0.11530  1.0000
  C   C1240     1.0  0.70257  0.77336  0.14055  1.0000
  C   C1241     1.0  0.68222  0.76990  0.15412  1.0000
  C   C1242     1.0  0.66648  0.76020  0.14238  1.0000
  H   H2209     1.0  0.69508  0.75221  0.08395  1.0000
  H   H2210     1.0  0.68152  0.72535  0.28504  1.0000
  H   H2211     1.0  0.67839  0.77501  0.17360  1.0000
  H   H2212     1.0  0.65066  0.75805  0.15268  1.0000
  H   H2213     1.0  0.60007  0.73628  0.02141  1.0000
  H   H2214     1.0  0.65375  0.72667  0.17492  1.0000
  H   H2215     1.0  0.73041  0.76271  0.02785  1.0000
  N   N69       1.0  0.67144  0.72801  0.01859  1.0000
  H   H2216     1.0  0.61989  0.75357  0.21766  1.0000
  C   C1243     1.0  0.60802  0.73737  0.00092  1.0000
  H   H2217     1.0  0.71241  0.74023  0.04445  1.0000
  H   H2218     1.0  0.69506  0.74319  0.19229  1.0000
  H   H2219     1.0  0.67188  0.74801  0.04327  1.0000
  C   C1244     1.0  0.73376  0.73931  0.16146  1.0000
  H   H2220     1.0  0.73214  0.75085  0.16956  1.0000
  H   H2221     1.0  0.67326  0.75141  0.00755  1.0000
  H   H2222     1.0  0.62269  0.74596  0.18391  1.0000
  H   H2223     1.0  0.64066  0.73028  0.04266  1.0000
  H   H2224     1.0  0.51247  0.73558  0.02890  1.0000
  C   C1245     1.0  0.71175  0.76180  0.02556  1.0000
  H   H2225     1.0  0.55976  0.73658  0.17936  1.0000
  H   H2226     1.0  0.71035  0.82281  0.30961  1.0000
  C   C1246     1.0  0.62536  0.74352  0.20593  1.0000
  H   H2227     1.0  0.57601  0.73098  0.49515  1.0000
  H   H2228     1.0  0.68964  0.73313  0.16233  1.0000
  H   H2229     1.0  0.66025  0.74946  0.20444  1.0000
  C   C1247     1.0  0.70554  0.74536  0.02539  1.0000
  C   C1248     1.0  0.72256  0.72827  0.18084  1.0000
  S   S284      1.0  0.72153  0.78612  0.15573  1.0000
  C   C1249     1.0  0.67941  0.74361  0.02388  1.0000
  H   H2230     1.0  0.65235  0.73873  0.23393  1.0000
  C   C1250     1.0  0.65040  0.73982  0.21149  1.0000
  H   H2231     1.0  0.69020  0.73298  0.23675  1.0000
  H   H2232     1.0  0.72269  0.76917  0.10459  1.0000
  H   H2233     1.0  0.52267  0.72592  0.18801  1.0000
  H   H2234     1.0  0.61467  0.73410  0.21224  1.0000
  H   H2235     1.0  0.54651  0.74519  0.20858  1.0000
  H   H2236     1.0  0.56932  0.73156  0.21350  1.0000
  H   H2237     1.0  0.71899  0.81066  0.33768  1.0000
  H   H2238     1.0  0.70333  0.76773  0.04289  1.0000
  C   C1251     1.0  0.55431  0.73461  0.20075  1.0000
  C   C1252     1.0  0.69670  0.73184  0.18332  1.0000
  H   H2239     1.0  0.70656  0.76737  0.00614  1.0000
  H   H2240     1.0  0.73087  0.72911  0.20103  1.0000
  C   C1253     1.0  0.64587  0.72836  0.02100  1.0000
  H   H2241     1.0  0.72582  0.73901  0.14094  1.0000
  S   S285      1.0  0.59866  0.72507  0.14802  1.0000
  Fe  Fe143     1.0  0.62097  0.72782  0.11083  1.0000
  C   C1254     1.0  0.65831  0.72523  0.19686  1.0000
  H   H2242     1.0  0.73720  0.80863  0.27944  1.0000
  H   H2243     1.0  0.63459  0.75155  0.01348  1.0000
  C   C1255     1.0  0.63325  0.74049  0.00355  1.0000
  H   H2244     1.0  0.71425  0.73999  0.00774  1.0000
  H   H2245     1.0  0.51308  0.72635  0.06189  1.0000
  H   H2246     1.0  0.52926  0.79651  0.49555  1.0000
  C   C1256     1.0  0.51089  0.72469  0.03960  1.0000
  S   S286      1.0  0.59271  0.72257  0.08129  1.0000
  H   H2247     1.0  0.67717  0.72290  0.06120  1.0000
  Fe  Fe144     1.0  0.62019  0.73577  0.62449  1.0000
  S   S287      1.0  0.63702  0.75856  0.62048  1.0000
  H   H2248     1.0  0.55910  0.73866  0.56661  1.0000
  C   C1257     1.0  0.68959  0.75961  0.54742  1.0000
  C   C1258     1.0  0.50043  0.73220  0.63120  1.0000
  C   C1259     1.0  0.66440  0.76691  0.62081  1.0000
  C   C1260     1.0  0.68503  0.75943  0.62781  1.0000
  C   C1261     1.0  0.70587  0.76719  0.62761  1.0000
  C   C1262     1.0  0.70622  0.78241  0.62010  1.0000
  C   C1263     1.0  0.68562  0.78960  0.61294  1.0000
  C   C1264     1.0  0.66510  0.78202  0.61345  1.0000
  H   H2249     1.0  0.68489  0.74777  0.63358  1.0000
  H   H2250     1.0  0.71628  0.77299  0.56244  1.0000
  H   H2251     1.0  0.68545  0.80126  0.60705  1.0000
  H   H2252     1.0  0.64952  0.78799  0.60798  1.0000
  C   C1265     1.0  0.51933  0.75432  0.56145  1.0000
  C   C1266     1.0  0.55966  0.74596  0.52447  1.0000
  H   H2253     1.0  0.73748  0.83372  0.63469  1.0000
  H   H2254     1.0  0.72518  0.76335  0.51470  1.0000
  H   H2255     1.0  0.59927  0.74670  0.98977  1.0000
  H   H2256     1.0  0.54228  0.75067  0.60680  1.0000
  S   S288      1.0  0.60275  0.72647  0.58743  1.0000
  H   H2257     1.0  0.68550  0.76711  0.52986  1.0000
  N   N70       1.0  0.54259  0.76045  0.56614  1.0000
  H   H2258     1.0  0.49967  0.75947  0.59849  1.0000
  H   H2259     1.0  0.53699  0.80337  0.52865  1.0000
  H   H2260     1.0  0.67804  0.76271  0.56455  1.0000
  H   H2261     1.0  0.50076  0.77484  0.57485  1.0000
  H   H2262     1.0  0.55980  0.78053  0.63951  1.0000
  C   C1267     1.0  0.69338  0.85679  0.68460  1.0000
  H   H2263     1.0  0.53417  0.77050  0.51151  1.0000
  H   H2264     1.0  0.73889  0.84653  0.58902  1.0000
  H   H2265     1.0  0.51513  0.75401  0.53945  1.0000
  H   H2266     1.0  0.56344  0.76105  0.64906  1.0000
  H   H2267     1.0  0.73120  0.87150  0.66615  1.0000
  C   C1268     1.0  0.54609  0.76149  0.59665  1.0000
  C   C1269     1.0  0.71526  0.85064  0.67145  1.0000
  H   H2268     1.0  0.59402  0.73604  0.52305  1.0000
  C   C1270     1.0  0.67989  0.72313  0.99073  1.0000
  S   S289      1.0  0.73125  0.79338  0.61840  1.0000
  H   H2269     1.0  0.55769  0.79311  0.50807  1.0000
  H   H2270     1.0  0.51356  0.78064  0.53142  1.0000
  H   H2271     1.0  0.54012  0.78465  0.56829  1.0000
  H   H2272     1.0  0.71215  0.85014  0.64915  1.0000
  H   H2273     1.0  0.67915  0.84943  0.67961  1.0000
  H   H2274     1.0  0.51322  0.73724  0.64363  1.0000
  H   H2275     1.0  0.72157  0.76141  0.63318  1.0000
  C   C1271     1.0  0.73534  0.86089  0.67712  1.0000
  H   H2276     1.0  0.56370  0.77763  0.54947  1.0000
  C   C1272     1.0  0.57021  0.77016  0.63621  1.0000
  H   H2277     1.0  0.68639  0.74788  0.54170  1.0000
  H   H2278     1.0  0.68912  0.86819  0.67677  1.0000
  H   H2279     1.0  0.68135  0.73291  0.97673  1.0000
  H   H2280     1.0  0.58232  0.75623  0.60377  1.0000
  H   H2281     1.0  0.72788  0.74495  0.52760  1.0000
  H   H2282     1.0  0.71835  0.83920  0.67960  1.0000
  H   H2283     1.0  0.57656  0.77537  0.59409  1.0000
  C   C1273     1.0  0.54539  0.77575  0.55359  1.0000
  H   H2284     1.0  0.58791  0.77217  0.64276  1.0000
  H   H2285     1.0  0.69513  0.85713  0.70716  1.0000
  C   C1274     1.0  0.71424  0.76122  0.55628  1.0000
  C   C1275     1.0  0.53199  0.77936  0.52697  1.0000
  H   H2286     1.0  0.60568  0.72695  0.98929  1.0000
  S   S290      1.0  0.59003  0.73111  0.65218  1.0000
  H   H2287     1.0  0.51904  0.74242  0.56802  1.0000
  C   C1276     1.0  0.57015  0.76584  0.60609  1.0000
  C   C1277     1.0  0.56029  0.74944  0.55534  1.0000
  H   H2288     1.0  0.71692  0.75388  0.57437  1.0000
  H   H2289     1.0  0.64065  0.74127  0.98276  1.0000
  C   C1278     1.0  0.73087  0.75682  0.53284  1.0000
  H   H2290     1.0  0.73543  0.78620  0.51987  1.0000
  C   C1279     1.0  0.57643  0.73317  0.51743  1.0000
  H   H2291     1.0  0.57770  0.75342  0.55910  1.0000
  H   H2292     1.0  0.53398  0.76989  0.60561  1.0000
  H   H2293     1.0  0.56484  0.75586  0.51254  1.0000
  C   C1280     1.0  0.49944  0.76255  0.57648  1.0000
  H   H2294     1.0  0.54265  0.74255  0.51781  1.0000
  C   C1281     1.0  0.53951  0.79399  0.51411  1.0000
  H   H2295     1.0  0.73495  0.86392  0.69911  1.0000
  H   H2296     1.0  0.73933  0.72956  0.79810  1.0000
  H   H2297     1.0  0.57185  0.72278  0.52838  1.0000
  C   C1282     1.0  0.50715  0.72248  0.61018  1.0000
  Fe  Fe145     1.0  0.86196  0.03433  0.37670  1.0000
  S   S291      1.0  0.84756  0.01174  0.36652  1.0000
  S   S292      1.0  0.84444  0.05681  0.38876  1.0000
  Fe  Fe146     1.0  0.90939  0.02026  0.38539  1.0000
  S   S293      1.0  0.89870  0.99711  0.37572  1.0000
  S   S294      1.0  0.94393  0.02463  0.40267  1.0000
  Fe  Fe147     1.0  0.87933  0.00776  0.34058  1.0000
  S   S295      1.0  0.88794  0.99870  0.29728  1.0000
  Fe  Fe148     1.0  0.86840  0.00245  0.40223  1.0000
  S   S296      1.0  0.85683  0.98528  0.43428  1.0000
  S   S297      1.0  0.89235  0.03091  0.34912  1.0000
  S   S298      1.0  0.88031  0.02493  0.41364  1.0000
  H   H2298     1.0  0.94320  0.03874  0.34925  1.0000
  Fe  Fe149     1.0  0.77232  0.17316  0.35973  1.0000
  S   S299      1.0  0.80012  0.18761  0.37460  1.0000
  Fe  Fe150     1.0  0.80589  0.14495  0.35702  1.0000
  S   S300      1.0  0.83478  0.15845  0.37213  1.0000
  S   S301      1.0  0.81452  0.12140  0.33973  1.0000
  Fe  Fe151     1.0  0.80963  0.16840  0.40228  1.0000
  S   S302      1.0  0.81497  0.16890  0.44852  1.0000
  Fe  Fe152     1.0  0.82204  0.17634  0.34274  1.0000
  S   S303      1.0  0.84496  0.18952  0.31432  1.0000
  S   S304      1.0  0.78094  0.15401  0.38857  1.0000
  S   S305      1.0  0.79416  0.16269  0.32650  1.0000
  H   H2299     1.0  0.88361  0.10711  0.40591  1.0000
  C   C1283     1.0  0.79211  0.03718  0.38962  1.0000
  S   S306      1.0  0.88718  0.19168  0.12338  1.0000
  C   C1284     1.0  0.88117  0.12440  0.37572  1.0000
  Fe  Fe153     1.0  0.86458  0.19682  0.08699  1.0000
  S   S307      1.0  0.85616  0.17956  0.05447  1.0000
  Fe  Fe154     1.0  0.85821  0.20054  0.14962  1.0000
  S   S308      1.0  0.84024  0.18815  0.18423  1.0000
  C   C1285     1.0  0.85360  0.18213  0.01864  1.0000
  C   C1286     1.0  0.79230  0.02699  0.41476  1.0000
  C   C1287     1.0  0.82650  0.19792  0.46185  1.0000
  C   C1288     1.0  0.82327  0.18330  0.47086  1.0000
  H   H2300     1.0  0.83603  0.01809  0.49438  1.0000
  H   H2301     1.0  0.95785  0.00558  0.26374  1.0000
  H   H2302     1.0  0.77583  0.06860  0.48853  1.0000
  H   H2303     1.0  0.82403  0.20073  0.44054  1.0000
  C   C1289     1.0  0.87145  0.03621  0.48792  1.0000
  H   H2304     1.0  0.87789  0.19945  0.01544  1.0000
  C   C1290     1.0  0.84283  0.18987  0.27816  1.0000
  C   C1291     1.0  0.86009  0.19633  0.26256  1.0000
  C   C1292     1.0  0.85942  0.19624  0.23375  1.0000
  C   C1293     1.0  0.84146  0.18961  0.22029  1.0000
  C   C1294     1.0  0.82397  0.18344  0.23591  1.0000
  C   C1295     1.0  0.82454  0.18368  0.26463  1.0000
  H   H2305     1.0  0.77667  0.02945  0.42679  1.0000
  H   H2306     1.0  0.87298  0.20105  0.22200  1.0000
  H   H2307     1.0  0.80991  0.17839  0.22569  1.0000
  H   H2308     1.0  0.81083  0.17904  0.27630  1.0000
  H   H2309     1.0  0.84221  0.11303  0.22805  1.0000
  H   H2310     1.0  0.83767  0.04510  0.49149  1.0000
  C   C1296     1.0  0.97615  0.98771  0.34254  1.0000
  H   H2311     1.0  0.86354  0.16073  0.26804  1.0000
  C   C1297     1.0  0.83644  0.07468  0.37443  1.0000
  C   C1298     1.0  0.83585  0.07748  0.34626  1.0000
  C   C1299     1.0  0.82913  0.09178  0.33615  1.0000
  C   C1300     1.0  0.82312  0.10360  0.35393  1.0000
  C   C1301     1.0  0.82410  0.10086  0.38208  1.0000
  C   C1302     1.0  0.83054  0.08651  0.39218  1.0000
  H   H2312     1.0  0.84017  0.06855  0.33223  1.0000
  H   H2313     1.0  0.82828  0.09366  0.31436  1.0000
  H   H2314     1.0  0.81956  0.10975  0.39610  1.0000
  H   H2315     1.0  0.83090  0.08458  0.41399  1.0000
  C   C1303     1.0  0.87718  0.98756  0.27001  1.0000
  C   C1304     1.0  0.79499  0.98290  0.48377  1.0000
  C   C1305     1.0  0.77313  0.21335  0.26141  1.0000
  H   H2316     1.0  0.93778  0.00893  0.06074  1.0000
  H   H2317     1.0  0.79160  0.01529  0.40748  1.0000
  C   C1306     1.0  0.87697  0.13226  0.02826  1.0000
  C   C1307     1.0  0.78904  0.21734  0.20255  1.0000
  H   H2318     1.0  0.88446  0.16827  0.31156  1.0000
  H   H2319     1.0  0.88352  0.00188  0.47427  1.0000
  H   H2320     1.0  0.78257  0.13219  0.28143  1.0000
  H   H2321     1.0  0.85636  0.12031  0.28670  1.0000
  C   C1308     1.0  0.86297  0.12593  0.00503  1.0000
  C   C1309     1.0  0.96560  0.02914  0.37967  1.0000
  H   H2322     1.0  0.82882  0.16506  0.01474  1.0000
  C   C1310     1.0  0.96062  0.03603  0.35462  1.0000
  H   H2323     1.0  0.77726  0.21409  0.47363  1.0000
  H   H2324     1.0  0.78982  0.20980  0.00251  1.0000
  H   H2325     1.0  0.84849  0.04419  0.45682  1.0000
  C   C1311     1.0  0.97012  0.20560  0.10810  1.0000
  H   H2326     1.0  0.94360  0.97914  0.35766  1.0000
  C   C1312     1.0  0.82592  0.14198  0.26999  1.0000
  H   H2327     1.0  0.86252  0.13760  0.31542  1.0000
  N   N71       1.0  0.90646  0.08347  0.37220  1.0000
  C   C1313     1.0  0.90027  0.07160  0.35203  1.0000
  C   C1314     1.0  0.90037  0.07827  0.40061  1.0000
  C   C1315     1.0  0.89185  0.09725  0.36599  1.0000
  C   C1316     1.0  0.93120  0.08749  0.37053  1.0000
  H   H2328     1.0  0.88013  0.15756  0.34223  1.0000
  C   C1317     1.0  0.90071  0.07642  0.32155  1.0000
  C   C1318     1.0  0.89278  0.11014  0.38691  1.0000
  C   C1319     1.0  0.91209  0.06360  0.41093  1.0000
  H   H2329     1.0  0.80392  0.97629  0.46766  1.0000
  H   H2330     1.0  0.89542  0.13056  0.02422  1.0000
  C   C1320     1.0  0.89990  0.06297  0.30263  1.0000
  H   H2331     1.0  0.80716  0.03467  0.37655  1.0000
  H   H2332     1.0  0.88287  0.06767  0.35635  1.0000
  H   H2333     1.0  0.91133  0.06146  0.35434  1.0000
  C   C1321     1.0  0.87419  0.14650  0.18617  1.0000
  H   H2334     1.0  0.88165  0.07695  0.40217  1.0000
  H   H2335     1.0  0.87372  0.09428  0.36419  1.0000
  H   H2336     1.0  0.89657  0.10209  0.34585  1.0000
  H   H2337     1.0  0.93364  0.09664  0.35539  1.0000
  H   H2338     1.0  0.93677  0.09216  0.39035  1.0000
  N   N72       1.0  0.84982  0.13906  0.25948  1.0000
  C   C1322     1.0  0.78966  0.22216  0.17205  1.0000
  H   H2339     1.0  0.88560  0.08372  0.31690  1.0000
  H   H2340     1.0  0.91616  0.08271  0.31671  1.0000
  H   H2341     1.0  0.91057  0.11266  0.39210  1.0000
  H   H2342     1.0  0.90979  0.05423  0.39667  1.0000
  H   H2343     1.0  0.93045  0.06526  0.41415  1.0000
  H   H2344     1.0  0.90696  0.18448  0.06459  1.0000
  H   H2345     1.0  0.88729  0.14940  0.22627  1.0000
  H   H2346     1.0  0.86321  0.12239  0.37038  1.0000
  H   H2347     1.0  0.98491  0.07048  0.35972  1.0000
  H   H2348     1.0  0.89989  0.06680  0.28103  1.0000
  H   H2349     1.0  0.91495  0.05541  0.30590  1.0000
  H   H2350     1.0  0.88419  0.05670  0.30638  1.0000
  C   C1323     1.0  0.98486  0.97642  0.17565  1.0000
  C   C1324     1.0  0.98824  0.02577  0.38661  1.0000
  H   H2351     1.0  0.82295  0.13527  0.28876  1.0000
  H   H2352     1.0  0.79291  0.20348  0.29509  1.0000
  H   H2353     1.0  0.91209  0.20755  0.03816  1.0000
  C   C1325     1.0  0.86314  0.14897  0.30656  1.0000
  C   C1326     1.0  0.97299  0.07962  0.36631  1.0000
  C   C1327     1.0  0.88284  0.97679  0.22411  1.0000
  C   C1328     1.0  0.92338  0.18635  0.05413  1.0000
  H   H2354     1.0  0.82364  0.15379  0.27640  1.0000
  H   H2355     1.0  0.77870  0.02699  0.47743  1.0000
  H   H2356     1.0  0.85715  0.09269  0.27602  1.0000
  H   H2357     1.0  0.93754  0.00109  0.31207  1.0000
  C   C1329     1.0  0.99051  0.19622  0.19257  1.0000
  C   C1330     1.0  0.87519  0.14194  0.21629  1.0000
  H   H2358     1.0  0.93884  0.03196  0.29751  1.0000
  H   H2359     1.0  0.83992  0.13665  0.21698  1.0000
  H   H2360     1.0  0.94634  0.06454  0.37432  1.0000
  H   H2361     1.0  0.75002  0.18379  0.41693  1.0000
  C   C1331     1.0  0.75906  0.21542  0.47961  1.0000
  H   H2362     1.0  0.87302  0.14440  0.03076  1.0000
  C   C1332     1.0  0.80603  0.13958  0.24984  1.0000
  C   C1333     1.0  0.88297  0.15677  0.31987  1.0000
  H   H2363     1.0  0.77981  0.15184  0.27264  1.0000
  H   H2364     1.0  0.94234  0.03157  0.26094  1.0000
  C   C1334     1.0  0.78308  0.14046  0.26444  1.0000
  H   H2365     1.0  0.76481  0.16201  0.44530  1.0000
  H   H2366     1.0  0.93845  0.20648  0.47836  1.0000
  H   H2367     1.0  0.78278  0.05019  0.45251  1.0000
  H   H2368     1.0  0.88131  0.13328  0.39144  1.0000
  H   H2369     1.0  0.95964  0.01171  0.32521  1.0000
  H   H2370     1.0  0.84478  0.08691  0.24438  1.0000
  H   H2371     1.0  0.80580  0.14845  0.23386  1.0000
  H   H2372     1.0  0.98541  0.97690  0.34637  1.0000
  C   C1335     1.0  0.90230  0.05891  0.43848  1.0000
  H   H2373     1.0  0.90467  0.08680  0.41599  1.0000
  H   H2374     1.0  0.96284  0.20272  0.05188  1.0000
  H   H2375     1.0  0.87231  0.09513  0.24415  1.0000
  H   H2376     1.0  0.92541  0.00225  0.46542  1.0000
  C   C1336     1.0  0.78483  0.20906  0.15337  1.0000
  C   C1337     1.0  0.95750  0.97887  0.02094  1.0000
  H   H2377     1.0  0.93113  0.99694  0.01706  1.0000
  H   H2378     1.0  0.81851  0.04074  0.43163  1.0000
  H   H2379     1.0  0.97443  0.04464  0.31702  1.0000
  C   C1338     1.0  0.94855  0.07486  0.36233  1.0000
  C   C1339     1.0  0.85133  0.14333  0.22965  1.0000
  H   H2380     1.0  0.87568  0.12135  0.25928  1.0000
  H   H2381     1.0  0.77676  0.98436  0.47837  1.0000
  H   H2382     1.0  0.94659  0.07198  0.34049  1.0000
  H   H2383     1.0  0.96181  0.21876  0.47212  1.0000
  H   H2384     1.0  0.84520  0.15514  0.22687  1.0000
  C   C1340     1.0  0.86416  0.98215  0.46943  1.0000
  H   H2385     1.0  0.88249  0.02975  0.47359  1.0000
  C   C1341     1.0  0.89040  0.98550  0.24617  1.0000
  N   N73       1.0  0.81269  0.02300  0.46110  1.0000
  H   H2386     1.0  0.99011  0.99260  0.27529  1.0000
  H   H2387     1.0  0.88938  0.99754  0.02677  1.0000
  C   C1342     1.0  0.96317  0.21924  0.11973  1.0000
  C   C1343     1.0  0.94397  0.00327  0.46842  1.0000
  H   H2388     1.0  0.95247  0.19838  0.01937  1.0000
  C   C1344     1.0  0.81401  0.02883  0.43217  1.0000
  H   H2389     1.0  0.82817  0.02300  0.42102  1.0000
  C   C1345     1.0  0.83616  0.02288  0.47341  1.0000
  H   H2390     1.0  0.95829  0.99460  0.07046  1.0000
  H   H2391     1.0  0.86271  0.13922  0.17469  1.0000
  H   H2392     1.0  0.82666  0.11035  0.25962  1.0000
  H   H2393     1.0  0.79221  0.04910  0.39574  1.0000
  H   H2394     1.0  0.92565  0.20824  0.07088  1.0000
  C   C1346     1.0  0.87696  0.99217  0.48435  1.0000
  H   H2395     1.0  0.84728  0.15511  0.31254  1.0000
  H   H2396     1.0  0.94157  0.98438  0.26631  1.0000
  H   H2397     1.0  0.90500  0.06761  0.45408  1.0000
  C   C1347     1.0  0.95827  0.01266  0.28211  1.0000
  C   C1348     1.0  0.80539  0.00698  0.45973  1.0000
  H   H2398     1.0  0.76934  0.13802  0.24981  1.0000
  H   H2399     1.0  0.80745  0.12869  0.23946  1.0000
  C   C1349     1.0  0.77861  0.05666  0.49422  1.0000
  H   H2400     1.0  0.77286  0.20279  0.24966  1.0000
  H   H2401     1.0  0.97471  0.01843  0.28211  1.0000
  H   H2402     1.0  0.89142  0.14549  0.17700  1.0000
  H   H2403     1.0  0.84488  0.12763  0.01083  1.0000
  H   H2404     1.0  0.98148  0.97871  0.11676  1.0000
  H   H2405     1.0  0.88369  0.14562  0.27052  1.0000
  S   S309      1.0  0.83511  0.20363  0.11348  1.0000
  H   H2406     1.0  0.79737  0.19974  0.15684  1.0000
  H   H2407     1.0  0.84555  0.98225  0.28922  1.0000
  H   H2408     1.0  0.92263  0.01935  0.27718  1.0000
  C   C1350     1.0  0.97827  0.03933  0.33642  1.0000
  C   C1351     1.0  0.77618  0.20922  0.29155  1.0000
  C   C1352     1.0  0.93934  0.02461  0.27935  1.0000
  C   C1353     1.0  0.74217  0.18122  0.43700  1.0000
  H   H2409     1.0  0.89915  0.15040  0.31624  1.0000
  C   C1354     1.0  0.87971  0.99031  0.01398  1.0000
  C   C1355     1.0  0.95581  0.00358  0.30905  1.0000
  H   H2410     1.0  0.95314  0.99779  0.45120  1.0000
  C   C1356     1.0  0.77021  0.21430  0.41943  1.0000
  C   C1357     1.0  0.84737  0.03816  0.47658  1.0000
  H   H2411     1.0  0.88197  0.13027  0.21740  1.0000
  H   H2412     1.0  0.86704  0.11378  0.00375  1.0000
  H   H2413     1.0  0.91092  0.04835  0.44539  1.0000
  H   H2414     1.0  0.88383  0.05699  0.43665  1.0000
  H   H2415     1.0  0.87425  0.20126  0.27281  1.0000
  C   C1358     1.0  0.86570  0.14889  0.27496  1.0000
  H   H2416     1.0  0.86803  0.15831  0.18400  1.0000
  N   N74       1.0  0.97060  0.98957  0.31255  1.0000
  H   H2417     1.0  0.89022  0.12845  0.35733  1.0000
  C   C1359     1.0  0.85742  0.12305  0.26459  1.0000
  H   H2418     1.0  0.77658  0.03538  0.37744  1.0000
  H   H2419     1.0  0.94790  0.01532  0.46803  1.0000
  H   H2420     1.0  0.80824  0.21559  0.25199  1.0000
  C   C1360     1.0  0.85530  0.09550  0.25399  1.0000
  H   H2421     1.0  0.97585  0.98686  0.16865  1.0000
  C   C1361     1.0  0.95082  0.00084  0.05283  1.0000
  H   H2422     1.0  0.82904  0.20970  0.03720  1.0000
  H   H2423     1.0  0.92652  0.98427  0.04502  1.0000
  H   H2424     1.0  0.76273  0.20156  0.29808  1.0000
  C   C1362     1.0  0.95147  0.99629  0.49561  1.0000
  C   C1363     1.0  0.79233  0.04867  0.47186  1.0000
  H   H2425     1.0  0.94114  0.97577  0.31394  1.0000
  C   C1364     1.0  0.83322  0.20890  0.48046  1.0000
  C   C1365     1.0  0.84380  0.11091  0.25026  1.0000
  C   C1366     1.0  0.92657  0.20309  0.05036  1.0000
  H   H2426     1.0  0.91469  0.22102  0.44538  1.0000
  C   C1367     1.0  0.74609  0.21416  0.43209  1.0000
  H   H2427     1.0  0.77126  0.18996  0.45777  1.0000
  C   C1368     1.0  0.76939  0.22035  0.39019  1.0000
  C   C1369     1.0  0.87196  0.97678  0.02497  1.0000
  H   H2428     1.0  0.97500  0.99440  0.39816  1.0000
  Fe  Fe155     1.0  0.89735  0.21574  0.11975  1.0000
  H   H2429     1.0  0.95760  0.19738  0.10380  1.0000
  H   H2430     1.0  0.75958  0.21290  0.37696  1.0000
  H   H2431     1.0  0.80311  0.20898  0.20591  1.0000
  C   C1370     1.0  0.95561  0.98802  0.36243  1.0000
  H   H2432     1.0  0.87279  0.12651  0.04770  1.0000
  C   C1371     1.0  0.80590  0.99804  0.48700  1.0000
  H   H2433     1.0  0.96861  0.97474  0.26038  1.0000
  H   H2434     1.0  0.78606  0.21275  0.13173  1.0000
  C   C1372     1.0  0.93967  0.99011  0.03320  1.0000
  H   H2435     1.0  0.81606  0.00062  0.44477  1.0000
  C   C1373     1.0  0.79590  0.03178  0.47861  1.0000
  H   H2436     1.0  0.92305  0.18069  0.03405  1.0000
  H   H2437     1.0  0.84784  0.01552  0.46119  1.0000
  H   H2438     1.0  0.96554  0.97307  0.03873  1.0000
  H   H2439     1.0  0.82363  0.99566  0.49367  1.0000
  C   C1374     1.0  0.86669  0.19234  0.00437  1.0000
  H   H2440     1.0  0.98771  0.99665  0.34915  1.0000
  H   H2441     1.0  0.87886  0.04732  0.49086  1.0000
  H   H2442     1.0  0.94825  0.98607  0.40561  1.0000
  H   H2443     1.0  0.78772  0.00648  0.45193  1.0000
  C   C1375     1.0  0.94976  0.20621  0.03669  1.0000
  H   H2444     1.0  0.94635  0.99895  0.36148  1.0000
  H   H2445     1.0  0.97643  0.08973  0.35391  1.0000
  H   H2446     1.0  0.96424  0.00714  0.04226  1.0000
  H   H2447     1.0  0.76746  0.20501  0.15702  1.0000
  H   H2448     1.0  0.99040  0.20600  0.20639  1.0000
  C   C1376     1.0  0.94309  0.21810  0.47363  1.0000
  H   H2449     1.0  0.90653  0.99084  0.24456  1.0000
  H   H2450     1.0  0.93723  0.18131  0.06684  1.0000
  H   H2451     1.0  0.94070  0.21399  0.43013  1.0000
  H   H2452     1.0  0.77818  0.20297  0.41915  1.0000
  C   C1377     1.0  0.85607  0.98079  0.27126  1.0000
  H   H2453     1.0  0.93808  0.97517  0.16149  1.0000
  H   H2454     1.0  0.97707  0.19819  0.17695  1.0000
  C   C1378     1.0  0.83910  0.17295  0.00386  1.0000
  H   H2455     1.0  0.77327  0.21101  0.20558  1.0000
  H   H2456     1.0  0.80849  0.05448  0.46934  1.0000
  C   C1379     1.0  0.93347  0.22192  0.44540  1.0000
  H   H2457     1.0  0.98650  0.18603  0.20445  1.0000
  C   C1380     1.0  0.96331  0.98556  0.39192  1.0000
  H   H2458     1.0  0.98818  0.97539  0.47990  1.0000
  H   H2459     1.0  0.97627  0.08193  0.38817  1.0000
  C   C1381     1.0  0.75241  0.19097  0.45964  1.0000
  H   H2460     1.0  0.78690  0.22090  0.38187  1.0000
  H   H2461     1.0  0.97103  0.98550  0.01110  1.0000
  H   H2462     1.0  0.83587  0.22015  0.47325  1.0000
  H   H2463     1.0  0.89324  0.97544  0.20602  1.0000
  H   H2464     1.0  0.98368  0.97665  0.19835  1.0000
  H   H2465     1.0  0.94990  0.97397  0.47812  1.0000
  H   H2466     1.0  0.97197  0.97446  0.39438  1.0000
  H   H2467     1.0  0.74855  0.18553  0.47953  1.0000
  N   N75       1.0  0.74435  0.20712  0.46005  1.0000
  C   C1382     1.0  0.74635  0.16462  0.44304  1.0000
  H   H2468     1.0  0.80422  0.22145  0.04432  1.0000
  C   C1383     1.0  0.82096  0.22091  0.03382  1.0000
  H   H2469     1.0  0.75637  0.21917  0.25927  1.0000
  H   H2470     1.0  0.77495  0.21935  0.30447  1.0000
  C   C1384     1.0  0.95797  0.97605  0.30360  1.0000
  S   S310      1.0  0.87608  0.22037  0.08186  1.0000
  C   C1385     1.0  0.95283  0.97492  0.27277  1.0000
  H   H2471     1.0  0.78133  0.22167  0.43120  1.0000
  H   H2472     1.0  0.97736  0.21418  0.99726  1.0000
  N   N76       1.0  0.95315  0.22210  0.02756  1.0000
  Fe  Fe156     1.0  0.87453  0.03910  0.87856  1.0000
  S   S311      1.0  0.85131  0.02003  0.86884  1.0000
  S   S312      1.0  0.86962  0.06500  0.87485  1.0000
  Fe  Fe157     1.0  0.91529  0.01696  0.88647  1.0000
  S   S313      1.0  0.89484  0.99711  0.87666  1.0000
  S   S314      1.0  0.95162  0.01097  0.89768  1.0000
  Fe  Fe158     1.0  0.87980  0.01065  0.84211  1.0000
  S   S315      1.0  0.88402  0.00208  0.79777  1.0000
  Fe  Fe159     1.0  0.86874  0.00771  0.90461  1.0000
  S   S316      1.0  0.85343  0.99134  0.93591  1.0000
  S   S317      1.0  0.90223  0.03003  0.85060  1.0000
  S   S318      1.0  0.88993  0.02725  0.91564  1.0000
  H   H2473     1.0  0.95190  0.03799  0.86446  1.0000
  Fe  Fe160     1.0  0.78082  0.18015  0.86692  1.0000
  S   S319      1.0  0.81397  0.19176  0.86299  1.0000
  Fe  Fe161     1.0  0.80692  0.14936  0.86298  1.0000
  S   S320      1.0  0.84094  0.15984  0.85886  1.0000
  S   S321      1.0  0.80323  0.12366  0.86537  1.0000
  Fe  Fe162     1.0  0.82867  0.17505  0.89262  1.0000
  S   S322      1.0  0.85239  0.18443  0.92470  1.0000
  Fe  Fe163     1.0  0.82354  0.17594  0.82938  1.0000
  S   S323      1.0  0.84328  0.18743  0.79506  1.0000
  S   S324      1.0  0.79539  0.16400  0.89857  1.0000
  S   S325      1.0  0.78968  0.16483  0.83140  1.0000
  H   H2474     1.0  0.97004  0.99761  0.49735  1.0000
  H   H2475     1.0  0.76029  0.21288  0.65010  1.0000
  S   S326      1.0  0.87590  0.20265  0.60139  1.0000
  C   C1386     1.0  0.81942  0.04973  0.83043  1.0000
  C   C1387     1.0  0.90407  0.04009  0.77511  1.0000
  H   H2476     1.0  0.92556  0.98007  0.54542  1.0000
  Fe  Fe164     1.0  0.85274  0.20909  0.63660  1.0000
  S   S327      1.0  0.83478  0.19284  0.66505  1.0000
  C   C1388     1.0  0.98045  0.21306  0.52610  1.0000
  H   H2477     1.0  0.77968  0.20359  0.92802  1.0000
  C   C1389     1.0  0.83780  0.17393  0.97514  1.0000
  C   C1390     1.0  0.85174  0.18362  0.96087  1.0000
  H   H2478     1.0  0.90036  0.05669  0.80613  1.0000
  C   C1391     1.0  0.83334  0.19083  0.51726  1.0000
  H   H2479     1.0  0.78792  0.05610  0.51391  1.0000
  H   H2480     1.0  0.82630  0.16710  0.96399  1.0000
  C   C1392     1.0  0.88908  0.09071  0.93964  1.0000
  H   H2481     1.0  0.83594  0.18798  0.53854  1.0000
  C   C1393     1.0  0.84080  0.18835  0.75885  1.0000
  C   C1394     1.0  0.85551  0.19755  0.74413  1.0000
  C   C1395     1.0  0.85405  0.19893  0.71547  1.0000
  C   C1396     1.0  0.83780  0.19111  0.70109  1.0000
  C   C1397     1.0  0.82312  0.18186  0.71576  1.0000
  C   C1398     1.0  0.82455  0.18050  0.74447  1.0000
  N   N77       1.0  0.85591  0.12856  0.95273  1.0000
  C   C1399     1.0  0.94423  0.97809  0.54739  1.0000
  H   H2482     1.0  0.81053  0.17572  0.70485  1.0000
  H   H2483     1.0  0.81315  0.17336  0.75544  1.0000
  C   C1400     1.0  0.94013  0.97812  0.59900  1.0000
  S   S328      1.0  0.75358  0.19900  0.87391  1.0000
  H   H2484     1.0  0.85462  0.10515  0.96372  1.0000
  H   H2485     1.0  0.81759  0.09320  0.81188  1.0000
  C   C1401     1.0  0.85081  0.08121  0.87292  1.0000
  C   C1402     1.0  0.82721  0.08043  0.87581  1.0000
  C   C1403     1.0  0.81311  0.09348  0.87350  1.0000
  C   C1404     1.0  0.82222  0.10762  0.86855  1.0000
  C   C1405     1.0  0.84586  0.10846  0.86610  1.0000
  C   C1406     1.0  0.85996  0.09538  0.86821  1.0000
  H   H2486     1.0  0.81977  0.06977  0.87993  1.0000
  H   H2487     1.0  0.79492  0.09259  0.87559  1.0000
  H   H2488     1.0  0.85328  0.11914  0.86211  1.0000
  H   H2489     1.0  0.87814  0.09624  0.86596  1.0000
  C   C1407     1.0  0.87253  0.99263  0.76905  1.0000
  C   C1408     1.0  0.90151  0.19120  0.53668  1.0000
  C   C1409     1.0  0.82653  0.17988  0.49869  1.0000
  C   C1410     1.0  0.84978  0.98861  0.76768  1.0000
  H   H2490     1.0  0.98365  0.05083  0.84162  1.0000
  H   H2491     1.0  0.83837  0.99143  0.78433  1.0000
  C   C1411     1.0  0.86145  0.98588  0.97008  1.0000
  C   C1412     1.0  0.98685  0.04031  0.85209  1.0000
  C   C1413     1.0  0.88093  0.98975  0.51254  1.0000
  H   H2492     1.0  0.79712  0.20086  0.78104  1.0000
  H   H2493     1.0  0.89051  0.99774  0.52384  1.0000
  H   H2494     1.0  0.79056  0.21241  0.64494  1.0000
  C   C1414     1.0  0.97305  0.01961  0.87895  1.0000
  H   H2495     1.0  0.87784  0.08608  0.92383  1.0000
  C   C1415     1.0  0.96886  0.03302  0.86486  1.0000
  H   H2496     1.0  0.97933  0.20152  0.60212  1.0000
  H   H2497     1.0  0.89557  0.03620  0.75644  1.0000
  H   H2498     1.0  0.78452  0.04231  0.82968  1.0000
  C   C1416     1.0  0.80450  0.21211  0.98893  1.0000
  H   H2499     1.0  0.86556  0.20600  0.70450  1.0000
  H   H2500     1.0  0.86450  0.14604  0.98058  1.0000
  C   C1417     1.0  0.82582  0.04447  0.80121  1.0000
  H   H2501     1.0  0.82548  0.12221  0.97448  1.0000
  H   H2502     1.0  0.74513  0.18959  0.93312  1.0000
  H   H2503     1.0  0.74811  0.22093  0.94194  1.0000
  C   C1418     1.0  0.98143  0.01028  0.79990  1.0000
  C   C1419     1.0  0.80008  0.04069  0.84222  1.0000
  H   H2504     1.0  0.78037  0.20929  0.69364  1.0000
  C   C1420     1.0  0.84703  0.03123  0.75157  1.0000
  H   H2505     1.0  0.81361  0.06160  0.83050  1.0000
  H   H2506     1.0  0.86760  0.03284  0.71463  1.0000
  H   H2507     1.0  0.78715  0.14245  0.94935  1.0000
  C   C1421     1.0  0.94490  0.97968  0.49745  1.0000
  H   H2508     1.0  0.78478  0.12292  0.95855  1.0000
  H   H2509     1.0  0.78130  0.21819  0.73752  1.0000
  H   H2510     1.0  0.75633  0.20317  0.97545  1.0000
  H   H2511     1.0  0.83334  0.09908  0.78215  1.0000
  S   S329      1.0  0.87817  0.97489  0.56206  1.0000
  H   H2512     1.0  0.86819  0.20363  0.75501  1.0000
  H   H2513     1.0  0.98978  0.00991  0.75688  1.0000
  H   H2514     1.0  0.90452  0.99200  0.74756  1.0000
  H   H2515     1.0  0.98515  0.98262  0.53018  1.0000
  H   H2516     1.0  0.80559  0.07063  0.78702  1.0000
  H   H2517     1.0  0.88077  0.00522  0.97890  1.0000
  H   H2518     1.0  0.88513  0.08550  0.95966  1.0000
  C   C1422     1.0  0.90648  0.20753  0.53067  1.0000
  H   H2519     1.0  0.81030  0.04559  0.78835  1.0000
  C   C1423     1.0  0.76803  0.19455  0.96660  1.0000
  H   H2520     1.0  0.95335  0.22022  0.70537  1.0000
  H   H2521     1.0  0.97693  0.20699  0.50710  1.0000
  H   H2522     1.0  0.97327  0.19848  0.66263  1.0000
  H   H2523     1.0  0.93701  0.20826  0.55492  1.0000
  H   H2524     1.0  0.88695  0.13291  0.97491  1.0000
  H   H2525     1.0  0.94298  0.00279  0.51216  1.0000
  H   H2526     1.0  0.83003  0.21067  0.94467  1.0000
  H   H2527     1.0  0.84542  0.07205  0.81268  1.0000
  C   C1424     1.0  0.75813  0.21023  0.50987  1.0000
  H   H2528     1.0  0.86803  0.03443  0.80353  1.0000
  H   H2529     1.0  0.88772  0.06179  0.77466  1.0000
  H   H2530     1.0  0.76489  0.17450  0.94218  1.0000
  H   H2531     1.0  0.76179  0.05156  0.49682  1.0000
  H   H2532     1.0  0.80943  0.21126  0.73244  1.0000
  H   H2533     1.0  0.89117  0.11220  0.92087  1.0000
  H   H2534     1.0  0.86016  0.05367  0.74729  1.0000
  H   H2535     1.0  0.86076  0.02531  0.76296  1.0000
  H   H2536     1.0  0.97682  0.19720  0.69919  1.0000
  C   C1425     1.0  0.85634  0.97670  0.72301  1.0000
  C   C1426     1.0  0.87477  0.99474  0.98676  1.0000
  H   H2537     1.0  0.83078  0.02604  0.75722  1.0000
  H   H2538     1.0  0.94129  0.20148  0.52163  1.0000
  H   H2539     1.0  0.77881  0.12913  0.92418  1.0000
  H   H2540     1.0  0.82094  0.07642  0.75728  1.0000
  H   H2541     1.0  0.95049  0.02243  0.81143  1.0000
  H   H2542     1.0  0.94665  0.00887  0.78502  1.0000
  C   C1427     1.0  0.93222  0.21040  0.53323  1.0000
  H   H2543     1.0  0.92046  0.98947  0.93121  1.0000
  H   H2544     1.0  0.98408  0.06456  0.90530  1.0000
  S   S330      1.0  0.93609  0.21658  0.61177  1.0000
  H   H2545     1.0  0.81612  0.11623  0.92660  1.0000
  C   C1428     1.0  0.84177  0.98080  0.74478  1.0000
  C   C1429     1.0  0.77222  0.22023  0.52797  1.0000
  N   N78       1.0  0.84546  0.05214  0.78780  1.0000
  C   C1430     1.0  0.87899  0.98094  0.72419  1.0000
  H   H2546     1.0  0.83411  0.04847  0.84437  1.0000
  H   H2547     1.0  0.89661  0.21438  0.54557  1.0000
  H   H2548     1.0  0.92603  0.97980  0.49746  1.0000
  H   H2549     1.0  0.86699  0.05051  0.82312  1.0000
  H   H2550     1.0  0.88289  0.18964  0.53596  1.0000
  C   C1431     1.0  0.86715  0.04681  0.80155  1.0000
  C   C1432     1.0  0.81862  0.09262  0.78926  1.0000
  H   H2551     1.0  0.85709  0.07455  0.78001  1.0000
  H   H2552     1.0  0.82397  0.16862  0.50591  1.0000
  H   H2553     1.0  0.79025  0.22002  0.52114  1.0000
  C   C1433     1.0  0.86601  0.19290  0.97564  1.0000
  H   H2554     1.0  0.90973  0.18380  0.52122  1.0000
  C   C1434     1.0  0.88600  0.10769  0.94105  1.0000
  C   C1435     1.0  0.95826  0.01740  0.79281  1.0000
  C   C1436     1.0  0.95333  0.21445  0.68539  1.0000
  C   C1437     1.0  0.98269  0.21327  0.60389  1.0000
  H   H2555     1.0  0.85150  0.10877  0.92849  1.0000
  H   H2556     1.0  0.77176  0.21610  0.54939  1.0000
  H   H2557     1.0  0.76533  0.19868  0.51199  1.0000
  C   C1438     1.0  0.81695  0.21985  0.94361  1.0000
  H   H2558     1.0  0.77608  0.18817  0.98374  1.0000
  H   H2559     1.0  0.83031  0.05267  0.74766  1.0000
  H   H2560     1.0  0.95117  0.98937  0.55033  1.0000
  C   C1439     1.0  0.86097  0.11229  0.94685  1.0000
  H   H2561     1.0  0.85151  0.01614  0.71745  1.0000
  H   H2562     1.0  0.82953  0.03222  0.80272  1.0000
  H   H2563     1.0  0.80044  0.19301  0.94578  1.0000
  C   C1440     1.0  0.97519  0.20504  0.68163  1.0000
  C   C1441     1.0  0.84321  0.06888  0.79088  1.0000
  H   H2564     1.0  0.94960  0.98856  0.60116  1.0000
  H   H2565     1.0  0.82669  0.14158  0.96685  1.0000
  H   H2566     1.0  0.83720  0.03360  0.70881  1.0000
  H   H2567     1.0  0.97784  0.20528  0.54352  1.0000
  H   H2568     1.0  0.92076  0.04450  0.76904  1.0000
  C   C1442     1.0  0.85107  0.02837  0.72122  1.0000
  H   H2569     1.0  0.94243  0.98747  0.97572  1.0000
  C   C1443     1.0  0.84591  0.04822  0.75792  1.0000
  C   C1444     1.0  0.83074  0.13029  0.95852  1.0000
  H   H2570     1.0  0.80330  0.21522  0.90256  1.0000
  S   S331      1.0  0.84569  0.21966  0.53055  1.0000
  H   H2571     1.0  0.90693  0.08767  0.93417  1.0000
  C   C1445     1.0  0.75392  0.18372  0.95032  1.0000
  H   H2572     1.0  0.89755  0.11163  0.95708  1.0000
  H   H2573     1.0  0.88810  0.15314  0.94201  1.0000
  H   H2574     1.0  0.96009  0.02636  0.77727  1.0000
  H   H2575     1.0  0.87671  0.20050  0.96472  1.0000
  C   C1446     1.0  0.86151  0.13827  0.92831  1.0000
  H   H2576     1.0  0.79831  0.21362  0.80916  1.0000
  H   H2577     1.0  0.90726  0.03048  0.78912  1.0000
  Fe  Fe165     1.0  0.85505  0.21900  0.57600  1.0000
  C   C1447     1.0  0.79275  0.21242  0.78765  1.0000
  H   H2578     1.0  0.79676  0.00426  0.50339  1.0000
  C   C1448     1.0  0.86829  0.13388  0.97765  1.0000
  H   H2579     1.0  0.79624  0.04448  0.86333  1.0000
  H   H2580     1.0  0.80288  0.09791  0.78071  1.0000
  H   H2581     1.0  0.85031  0.14854  0.92794  1.0000
  H   H2582     1.0  0.88843  0.14277  0.88219  1.0000
  C   C1449     1.0  0.93541  0.97617  0.97901  1.0000
  H   H2583     1.0  0.92172  0.98095  0.59690  1.0000
  C   C1450     1.0  0.89102  0.15100  0.89866  1.0000
  H   H2584     1.0  0.87991  0.16103  0.89505  1.0000
  H   H2585     1.0  0.80491  0.02862  0.84303  1.0000
  C   C1451     1.0  0.88694  0.98890  0.74694  1.0000
  C   C1452     1.0  0.83688  0.20540  0.50821  1.0000
  H   H2586     1.0  0.90008  0.21013  0.50987  1.0000
  C   C1453     1.0  0.81464  0.12787  0.93405  1.0000
  C   C1454     1.0  0.88603  0.14421  0.92662  1.0000
  C   C1455     1.0  0.78670  0.20170  0.94876  1.0000
  C   C1456     1.0  0.82091  0.07639  0.77994  1.0000
  H   H2587     1.0  0.90892  0.15453  0.89786  1.0000
  H   H2588     1.0  0.81843  0.13550  0.91689  1.0000
  C   C1457     1.0  0.78985  0.13079  0.94219  1.0000
  H   H2589     1.0  0.81528  0.20168  0.98905  1.0000
  H   H2590     1.0  0.93845  0.20714  0.68472  1.0000
  C   C1458     1.0  0.87266  0.97713  0.52625  1.0000
  C   C1459     1.0  0.88989  0.05239  0.78920  1.0000
  H   H2591     1.0  0.85787  0.13230  0.90899  1.0000
  H   H2592     1.0  0.91751  0.97822  0.98566  1.0000
  H   H2593     1.0  0.89916  0.13542  0.93060  1.0000
  C   C1460     1.0  0.77609  0.21896  0.65391  1.0000
  H   H2594     1.0  0.90769  0.18792  0.55734  1.0000
  H   H2595     1.0  0.87128  0.03031  0.50795  1.0000
  H   H2596     1.0  0.82418  0.97769  0.74413  1.0000
  H   H2597     1.0  0.84539  0.21476  0.89836  1.0000
  N   N79       1.0  0.79644  0.21573  0.96026  1.0000
  H   H2598     1.0  0.77407  0.21424  0.78676  1.0000
  C   C1461     1.0  0.91760  0.97727  0.93185  1.0000
  H   H2599     1.0  0.90019  0.97535  0.93952  1.0000
  H   H2600     1.0  0.89044  0.97800  0.70764  1.0000
  C   C1462     1.0  0.79938  0.22135  0.73888  1.0000
  H   H2601     1.0  0.80071  0.03066  0.50053  1.0000
  H   H2602     1.0  0.98260  0.99245  0.77047  1.0000
  H   H2603     1.0  0.97867  0.00203  0.81653  1.0000
  H   H2604     1.0  0.90967  0.21586  0.94714  1.0000
  H   H2605     1.0  0.94598  0.21425  0.97190  1.0000
  C   C1463     1.0  0.77949  0.22071  0.68461  1.0000
  H   H2606     1.0  0.81604  0.22097  0.68594  1.0000
  C   C1464     1.0  0.93025  0.21669  0.98374  1.0000
  H   H2607     1.0  0.92346  0.20598  0.99116  1.0000
  H   H2608     1.0  0.79633  0.97656  0.50329  1.0000
  H   H2609     1.0  0.91895  0.97287  0.91077  1.0000
  Fe  Fe166     1.0  0.89713  0.22217  0.61381  1.0000
  H   H2610     1.0  0.86534  0.97262  0.81970  1.0000
  H   H2611     1.0  0.78431  0.26985  0.17662  1.0000
  C   C1465     1.0  0.81830  0.22425  0.00333  1.0000
  S   S332      1.0  0.81978  0.24416  0.09723  1.0000
  H   H2612     1.0  0.80718  0.24594  0.19802  1.0000
  C   C1466     1.0  0.80982  0.23963  0.21741  1.0000
  H   H2613     1.0  0.97500  0.24020  0.13460  1.0000
  H   H2614     1.0  0.93792  0.23342  0.43918  1.0000
  C   C1467     1.0  0.76220  0.27082  0.14165  1.0000
  C   C1468     1.0  0.75988  0.26647  0.11444  1.0000
  C   C1469     1.0  0.77742  0.25805  0.10141  1.0000
  C   C1470     1.0  0.79736  0.25361  0.11546  1.0000
  C   C1471     1.0  0.79955  0.25778  0.14278  1.0000
  C   C1472     1.0  0.78213  0.26635  0.15574  1.0000
  H   H2615     1.0  0.76816  0.24567  0.20133  1.0000
  H   H2616     1.0  0.77562  0.25511  0.08018  1.0000
  H   H2617     1.0  0.81511  0.25491  0.15347  1.0000
  C   C1473     1.0  0.85194  0.24280  0.20939  1.0000
  H   H2618     1.0  0.75329  0.23207  0.21965  1.0000
  H   H2619     1.0  0.84869  0.24812  0.18917  1.0000
  S   S333      1.0  0.86922  0.22438  0.14818  1.0000
  H   H2620     1.0  0.94145  0.25594  0.08561  1.0000
  H   H2621     1.0  0.85253  0.25159  0.22523  1.0000
  C   C1474     1.0  0.95212  0.23206  0.05222  1.0000
  H   H2622     1.0  0.91853  0.22957  0.01874  1.0000
  H   H2623     1.0  0.74477  0.26986  0.10323  1.0000
  H   H2624     1.0  0.75511  0.22763  0.47849  1.0000
  H   H2625     1.0  0.81096  0.24830  0.23341  1.0000
  H   H2626     1.0  0.94274  0.25394  0.03429  1.0000
  H   H2627     1.0  0.96421  0.22788  0.06796  1.0000
  H   H2628     1.0  0.95921  0.26946  0.06939  1.0000
  S   S334      1.0  0.93380  0.22452  0.12509  1.0000
  C   C1475     1.0  0.79282  0.22306  0.25119  1.0000
  C   C1476     1.0  0.95732  0.25738  0.07368  1.0000
  H   H2629     1.0  0.83808  0.22651  0.23612  1.0000
  C   C1477     1.0  0.76838  0.23921  0.22082  1.0000
  N   N80       1.0  0.79001  0.22979  0.22305  1.0000
  H   H2630     1.0  0.76183  0.24524  0.26386  1.0000
  H   H2631     1.0  0.86876  0.23687  0.20868  1.0000
  C   C1478     1.0  0.98000  0.22963  0.12551  1.0000
  H   H2632     1.0  0.77822  0.25857  0.24531  1.0000
  H   H2633     1.0  0.97295  0.25035  0.03624  1.0000
  H   H2634     1.0  0.83431  0.22287  0.20037  1.0000
  C   C1479     1.0  0.83357  0.23168  0.21616  1.0000
  H   H2635     1.0  0.79592  0.23190  0.26648  1.0000
  C   C1480     1.0  0.95656  0.24879  0.04687  1.0000
  C   C1481     1.0  0.76400  0.25081  0.24378  1.0000
  H   H2636     1.0  0.74406  0.26654  0.21861  1.0000
  H   H2637     1.0  0.93512  0.23170  0.06214  1.0000
  H   H2638     1.0  0.76147  0.23175  0.38957  1.0000
  H   H2639     1.0  0.77678  0.23106  0.16743  1.0000
  Fe  Fe167     1.0  0.84731  0.22694  0.11065  1.0000
  H   H2640     1.0  0.97761  0.23363  0.00245  1.0000
  H   H2641     1.0  0.97202  0.25339  0.08614  1.0000
  C   C1482     1.0  0.97594  0.22281  0.01344  1.0000
  H   H2642     1.0  0.80996  0.23545  0.00108  1.0000
  C   C1483     1.0  0.93490  0.22732  0.00785  1.0000
  H   H2643     1.0  0.91512  0.23047  0.49269  1.0000
  H   H2644     1.0  0.80662  0.22632  0.16646  1.0000
  H   H2645     1.0  0.93931  0.23825  0.99868  1.0000
  H   H2646     1.0  0.94045  0.24026  0.48927  1.0000
  H   H2647     1.0  0.83190  0.22933  0.04321  1.0000
  C   C1484     1.0  0.74241  0.26021  0.23810  1.0000
  C   C1485     1.0  0.93385  0.22922  0.49527  1.0000
  H   H2648     1.0  0.78917  0.30852  0.65012  1.0000
  Fe  Fe168     1.0  0.85283  0.24185  0.62212  1.0000
  S   S335      1.0  0.83845  0.26505  0.63279  1.0000
  S   S336      1.0  0.87706  0.23822  0.58686  1.0000
  C   C1486     1.0  0.86249  0.25348  0.71102  1.0000
  C   C1487     1.0  0.96919  0.23866  0.61029  1.0000
  H   H2649     1.0  0.95548  0.24673  0.61371  1.0000
  C   C1488     1.0  0.76859  0.28952  0.64320  1.0000
  C   C1489     1.0  0.76915  0.27410  0.63756  1.0000
  C   C1490     1.0  0.79029  0.26621  0.63377  1.0000
  C   C1491     1.0  0.81088  0.27369  0.63611  1.0000
  C   C1492     1.0  0.80999  0.28895  0.64194  1.0000
  C   C1493     1.0  0.78921  0.29673  0.64546  1.0000
  H   H2650     1.0  0.82504  0.22981  0.95221  1.0000
  H   H2651     1.0  0.79071  0.25440  0.62942  1.0000
  H   H2652     1.0  0.82563  0.29488  0.64392  1.0000
  N   N81       1.0  0.80394  0.23432  0.71994  1.0000
  C   C1494     1.0  0.83538  0.22547  0.89799  1.0000
  H   H2653     1.0  0.83549  0.24840  0.68403  1.0000
  H   H2654     1.0  0.76822  0.22755  0.91792  1.0000
  H   H2655     1.0  0.96791  0.23070  0.55116  1.0000
  C   C1495     1.0  0.81288  0.22384  0.91320  1.0000
  C   C1496     1.0  0.83727  0.25118  0.70588  1.0000
  H   H2656     1.0  0.92680  0.27511  0.55771  1.0000
  H   H2657     1.0  0.77131  0.24270  0.73523  1.0000
  H   H2658     1.0  0.75348  0.30042  0.53174  1.0000
  H   H2659     1.0  0.82829  0.26195  0.71019  1.0000
  H   H2660     1.0  0.76783  0.30419  0.58151  1.0000
  C   C1497     1.0  0.78010  0.25782  0.70329  1.0000
  N   N82       1.0  0.75012  0.27924  0.55287  1.0000
  H   H2661     1.0  0.76444  0.22675  0.69323  1.0000
  C   C1498     1.0  0.92093  0.26348  0.55943  1.0000
  H   H2662     1.0  0.76086  0.25372  0.93363  1.0000
  H   H2663     1.0  0.92335  0.25964  0.58087  1.0000
  H   H2664     1.0  0.77669  0.27996  0.58323  1.0000
  C   C1499     1.0  0.76611  0.27114  0.71424  1.0000
  H   H2665     1.0  0.86531  0.25707  0.73236  1.0000
  H   H2666     1.0  0.93172  0.25785  0.51893  1.0000
  H   H2667     1.0  0.83055  0.24268  0.74577  1.0000
  C   C1500     1.0  0.92700  0.23699  0.54226  1.0000
  H   H2668     1.0  0.92847  0.23370  0.56414  1.0000
  C   C1501     1.0  0.74992  0.30553  0.57485  1.0000
  H   H2669     1.0  0.87256  0.24302  0.70714  1.0000
  C   C1502     1.0  0.77436  0.27638  0.56178  1.0000
  H   H2670     1.0  0.80333  0.23812  0.67599  1.0000
  H   H2671     1.0  0.79043  0.29603  0.54337  1.0000
  H   H2672     1.0  0.77860  0.26420  0.56192  1.0000
  H   H2673     1.0  0.90256  0.26348  0.55438  1.0000
  H   H2674     1.0  0.76028  0.27840  0.69704  1.0000
  H   H2675     1.0  0.75709  0.32587  0.55215  1.0000
  H   H2676     1.0  0.75456  0.26050  0.52530  1.0000
  C   C1503     1.0  0.82817  0.23871  0.72454  1.0000
  C   C1504     1.0  0.80169  0.22888  0.69097  1.0000
  H   H2677     1.0  0.79250  0.27942  0.52289  1.0000
  C   C1505     1.0  0.78743  0.24703  0.72681  1.0000
  H   H2678     1.0  0.78827  0.23940  0.96156  1.0000
  C   C1506     1.0  0.77930  0.22863  0.96140  1.0000
  C   C1507     1.0  0.93453  0.25342  0.53986  1.0000
  C   C1508     1.0  0.79283  0.28372  0.54406  1.0000
  H   H2679     1.0  0.81791  0.28477  0.57669  1.0000
  H   H2680     1.0  0.82953  0.28545  0.54267  1.0000
  H   H2681     1.0  0.79442  0.25391  0.74349  1.0000
  C   C1509     1.0  0.74872  0.24476  0.93803  1.0000
  H   H2682     1.0  0.79478  0.26219  0.69204  1.0000
  H   H2683     1.0  0.82314  0.22246  0.77315  1.0000
  H   H2684     1.0  0.83977  0.22873  0.72226  1.0000
  H   H2685     1.0  0.79889  0.23511  0.77629  1.0000
  H   H2686     1.0  0.86864  0.26227  0.69696  1.0000
  H   H2687     1.0  0.76935  0.25205  0.68836  1.0000
  H   H2688     1.0  0.82008  0.26800  0.55641  1.0000
  S   S337      1.0  0.87477  0.22757  0.65059  1.0000
  C   C1510     1.0  0.74549  0.32207  0.56851  1.0000
  H   H2689     1.0  0.90853  0.23719  0.53754  1.0000
  H   H2690     1.0  0.91879  0.23427  0.95546  1.0000
  C   C1511     1.0  0.81648  0.28025  0.55571  1.0000
  H   H2691     1.0  0.75344  0.26825  0.63667  1.0000
  H   H2692     1.0  0.95273  0.25446  0.54504  1.0000
  H   H2693     1.0  0.76966  0.22852  0.98100  1.0000
  H   H2694     1.0  0.75368  0.25279  0.58842  1.0000
  H   H2695     1.0  0.77655  0.27792  0.72802  1.0000
  H   H2696     1.0  0.75089  0.26734  0.72542  1.0000
  H   H2697     1.0  0.97172  0.23632  0.51675  1.0000
  C   C1512     1.0  0.80455  0.22380  0.76957  1.0000
  H   H2698     1.0  0.76536  0.23190  0.52745  1.0000
  N   N83       1.0  0.93969  0.22572  0.52464  1.0000
  C   C1513     1.0  0.76104  0.22951  0.93850  1.0000
  H   H2699     1.0  0.75599  0.27814  0.50936  1.0000
  H   H2700     1.0  0.80349  0.23473  0.91154  1.0000
  H   H2701     1.0  0.84555  0.23432  0.90731  1.0000
  C   C1514     1.0  0.91267  0.22365  0.96421  1.0000
  C   C1515     1.0  0.96436  0.22348  0.60843  1.0000
  H   H2702     1.0  0.83200  0.22850  0.87633  1.0000
  S   S338      1.0  0.82998  0.22371  0.60988  1.0000
  H   H2703     1.0  0.89629  0.22584  0.97498  1.0000
  S   S339      1.0  0.74335  0.30059  0.64931  1.0000
  C   C1516     1.0  0.96488  0.22722  0.52970  1.0000
  C   C1517     1.0  0.74464  0.29573  0.54982  1.0000
  H   H2704     1.0  0.77463  0.23004  0.64369  1.0000
  C   C1518     1.0  0.74677  0.27197  0.52553  1.0000
  H   H2705     1.0  0.74851  0.32872  0.58715  1.0000
  H   H2706     1.0  0.95145  0.22290  0.66881  1.0000
  H   H2707     1.0  0.83570  0.22455  0.99457  1.0000
  C   C1519     1.0  0.77804  0.69958  0.27285  1.0000
  C   C1520     1.0  0.83670  0.71422  0.29385  1.0000
  C   C1521     1.0  0.75756  0.68463  0.36977  1.0000
  C   C1522     1.0  0.77912  0.67820  0.36469  1.0000
  C   C1523     1.0  0.79859  0.68685  0.36442  1.0000
  C   C1524     1.0  0.79722  0.70221  0.36939  1.0000
  C   C1525     1.0  0.77568  0.70887  0.37474  1.0000
  C   C1526     1.0  0.75587  0.70010  0.37486  1.0000
  H   H2708     1.0  0.78081  0.66636  0.36074  1.0000
  H   H2709     1.0  0.81495  0.68151  0.36028  1.0000
  H   H2710     1.0  0.74936  0.67174  0.30834  1.0000
  C   C1527     1.0  0.81601  0.70426  0.28954  1.0000
  C   C1528     1.0  0.85761  0.70477  0.30227  1.0000
  H   H2711     1.0  0.81287  0.69898  0.30977  1.0000
  S   S340      1.0  0.82314  0.71211  0.36701  1.0000
  H   H2712     1.0  0.84132  0.72038  0.27507  1.0000
  H   H2713     1.0  0.86224  0.69652  0.28623  1.0000
  H   H2714     1.0  0.78701  0.68187  0.30269  1.0000
  N   N84       1.0  0.79452  0.71177  0.27871  1.0000
  H   H2715     1.0  0.85440  0.69880  0.32180  1.0000
  H   H2716     1.0  0.74815  0.52898  0.42222  1.0000
  C   C1529     1.0  0.77224  0.68931  0.29736  1.0000
  H   H2717     1.0  0.76155  0.70448  0.26558  1.0000
  H   H2718     1.0  0.78462  0.69229  0.25606  1.0000
  H   H2719     1.0  0.78755  0.71787  0.32063  1.0000
  H   H2720     1.0  0.82155  0.69501  0.27569  1.0000
  C   C1530     1.0  0.78396  0.72220  0.29971  1.0000
  H   H2721     1.0  0.80973  0.71183  0.23847  1.0000
  H   H2722     1.0  0.83321  0.72221  0.31056  1.0000
  H   H2723     1.0  0.87373  0.71786  0.99992  1.0000
  C   C1531     1.0  0.79969  0.71949  0.25206  1.0000
  H   H2724     1.0  0.87224  0.71210  0.30530  1.0000
  H   H2725     1.0  0.77098  0.71574  0.22474  1.0000
  H   H2726     1.0  0.77425  0.72072  0.37864  1.0000
  H   H2727     1.0  0.78671  0.69519  0.99962  1.0000
  H   H2728     1.0  0.80027  0.71555  0.01851  1.0000
  H   H2729     1.0  0.90058  0.71654  0.47717  1.0000
  H   H2730     1.0  0.76736  0.69599  0.31552  1.0000
  H   H2731     1.0  0.75645  0.67233  0.27257  1.0000
  C   C1532     1.0  0.75248  0.67929  0.29073  1.0000
  H   H2732     1.0  0.76750  0.67760  0.88195  1.0000
  H   H2733     1.0  0.87597  0.71390  0.96370  1.0000
  C   C1533     1.0  0.75735  0.69961  0.89534  1.0000
  C   C1534     1.0  0.77260  0.68902  0.88423  1.0000
  C   C1535     1.0  0.79494  0.69298  0.87757  1.0000
  C   C1536     1.0  0.80225  0.70760  0.88151  1.0000
  C   C1537     1.0  0.78104  0.68310  0.96280  1.0000
  H   H2734     1.0  0.79067  0.70404  0.78804  1.0000
  S   S341      1.0  0.83109  0.71166  0.87455  1.0000
  H   H2735     1.0  0.80680  0.68455  0.86988  1.0000
  H   H2736     1.0  0.83362  0.70985  0.95905  1.0000
  H   H2737     1.0  0.76749  0.70513  0.82874  1.0000
  C   C1538     1.0  0.82996  0.71734  0.97677  1.0000
  C   C1539     1.0  0.79394  0.69477  0.97870  1.0000
  H   H2738     1.0  0.79642  0.70869  0.94273  1.0000
  C   C1540     1.0  0.75229  0.71250  0.82530  1.0000
  H   H2739     1.0  0.83370  0.71045  0.99532  1.0000
  C   C1541     1.0  0.76444  0.71436  0.89849  1.0000
  H   H2740     1.0  0.76276  0.68641  0.96107  1.0000
  H   H2741     1.0  0.89976  0.71691  0.77141  1.0000
  H   H2742     1.0  0.74878  0.71898  0.84410  1.0000
  H   H2743     1.0  0.80760  0.71681  0.76876  1.0000
  C   C1542     1.0  0.79162  0.71029  0.96454  1.0000
  H   H2744     1.0  0.82252  0.69858  0.81932  1.0000
  C   C1543     1.0  0.82567  0.70419  0.79943  1.0000
  H   H2745     1.0  0.78826  0.68177  0.94194  1.0000
  H   H2746     1.0  0.83100  0.69553  0.78443  1.0000
  H   H2747     1.0  0.77316  0.71320  0.96473  1.0000
  C   C1544     1.0  0.80408  0.71239  0.78950  1.0000
  C   C1545     1.0  0.78661  0.71842  0.89109  1.0000
  H   H2748     1.0  0.78244  0.67214  0.97346  1.0000
  H   H2749     1.0  0.83972  0.71206  0.80187  1.0000
  H   H2750     1.0  0.75719  0.71620  0.78178  1.0000
  H   H2751     1.0  0.79684  0.72073  0.83026  1.0000
  H   H2752     1.0  0.81192  0.69078  0.97998  1.0000
  Fe  Fe169     1.0  0.75728  0.79190  0.14057  1.0000
  S   S342      1.0  0.77975  0.77342  0.12439  1.0000
  Fe  Fe170     1.0  0.79694  0.81480  0.13844  1.0000
  S   S343      1.0  0.82133  0.79691  0.12260  1.0000
  S   S344      1.0  0.81421  0.83695  0.14937  1.0000
  Fe  Fe171     1.0  0.79291  0.79050  0.09482  1.0000
  S   S345      1.0  0.79268  0.78792  0.04834  1.0000
  Fe  Fe172     1.0  0.80578  0.78169  0.15395  1.0000
  S   S346      1.0  0.82319  0.76441  0.18199  1.0000
  S   S347      1.0  0.76882  0.80891  0.10949  1.0000
  S   S348      1.0  0.78295  0.79964  0.17133  1.0000
  C   C1546     1.0  0.79595  0.92056  0.17292  1.0000
  S   S349      1.0  0.82483  0.75668  0.36900  1.0000
  Fe  Fe173     1.0  0.89014  0.74754  0.37895  1.0000
  S   S350      1.0  0.87505  0.77095  0.37700  1.0000
  H   H2753     1.0  0.86439  0.80122  0.43627  1.0000
  Fe  Fe174     1.0  0.84706  0.76275  0.40434  1.0000
  S   S351      1.0  0.83043  0.77752  0.43728  1.0000
  Fe  Fe175     1.0  0.85399  0.76283  0.34191  1.0000
  S   S352      1.0  0.84774  0.77862  0.30570  1.0000
  C   C1547     1.0  0.79556  0.93289  0.15128  1.0000
  H   H2754     1.0  0.98906  0.95603  0.49003  1.0000
  Fe  Fe176     1.0  0.85680  0.92383  0.11729  1.0000
  S   S353      1.0  0.84354  0.94796  0.11822  1.0000
  S   S354      1.0  0.83236  0.90435  0.10920  1.0000
  Fe  Fe177     1.0  0.90481  0.93383  0.12971  1.0000
  S   S355      1.0  0.93953  0.92490  0.14210  1.0000
  Fe  Fe178     1.0  0.86490  0.95076  0.15631  1.0000
  H   H2755     1.0  0.83266  0.88507  0.02307  1.0000
  Fe  Fe179     1.0  0.87467  0.95374  0.09338  1.0000
  C   C1548     1.0  0.78019  0.74732  0.32291  1.0000
  S   S356      1.0  0.87611  0.92658  0.15624  1.0000
  S   S357      1.0  0.88668  0.92956  0.09030  1.0000
  C   C1549     1.0  0.96244  0.93044  0.12183  1.0000
  H   H2756     1.0  0.78109  0.77361  0.22094  1.0000
  C   C1550     1.0  0.95896  0.94001  0.09952  1.0000
  H   H2757     1.0  0.86736  0.76621  0.02053  1.0000
  C   C1551     1.0  0.81713  0.92998  0.24052  1.0000
  C   C1552     1.0  0.82034  0.91706  0.18327  1.0000
  H   H2758     1.0  0.94316  0.96825  0.19585  1.0000
  C   C1553     1.0  0.77600  0.81863  0.26207  1.0000
  H   H2759     1.0  0.75275  0.76771  0.48198  1.0000
  H   H2760     1.0  0.79155  0.91467  0.22933  1.0000
  H   H2761     1.0  0.76877  0.75396  0.44241  1.0000
  C   C1554     1.0  0.95673  0.74647  0.38083  1.0000
  C   C1555     1.0  0.81951  0.85529  0.13622  1.0000
  C   C1556     1.0  0.83973  0.86226  0.14353  1.0000
  C   C1557     1.0  0.84423  0.87702  0.13500  1.0000
  C   C1558     1.0  0.82820  0.88534  0.11970  1.0000
  C   C1559     1.0  0.80800  0.87834  0.11230  1.0000
  C   C1560     1.0  0.80374  0.86345  0.12027  1.0000
  H   H2762     1.0  0.85216  0.85614  0.15578  1.0000
  H   H2763     1.0  0.86017  0.88190  0.14014  1.0000
  H   H2764     1.0  0.79542  0.88455  0.10042  1.0000
  H   H2765     1.0  0.78793  0.85846  0.11475  1.0000
  C   C1561     1.0  0.81361  0.78122  0.02492  1.0000
  C   C1562     1.0  0.77568  0.79097  0.26809  1.0000
  H   H2766     1.0  0.78545  0.74207  0.34260  1.0000
  C   C1563     1.0  0.83108  0.77574  0.47348  1.0000
  H   H2767     1.0  0.79756  0.80760  0.23068  1.0000
  C   C1564     1.0  0.83485  0.77556  0.03336  1.0000
  C   C1565     1.0  0.88306  0.79956  0.43836  1.0000
  H   H2768     1.0  0.84875  0.75441  0.47463  1.0000
  H   H2769     1.0  0.80196  0.75169  0.05742  1.0000
  H   H2770     1.0  0.83891  0.77512  0.05487  1.0000
  C   C1566     1.0  0.83098  0.76843  0.21608  1.0000
  C   C1567     1.0  0.83579  0.75664  0.23449  1.0000
  C   C1568     1.0  0.84095  0.75947  0.26206  1.0000
  C   C1569     1.0  0.84215  0.77418  0.27118  1.0000
  C   C1570     1.0  0.83843  0.78594  0.25244  1.0000
  C   C1571     1.0  0.83248  0.78311  0.22517  1.0000
  H   H2771     1.0  0.83542  0.74526  0.22737  1.0000
  H   H2772     1.0  0.84435  0.75033  0.27611  1.0000
  H   H2773     1.0  0.84009  0.79731  0.25911  1.0000
  H   H2774     1.0  0.82949  0.79227  0.21102  1.0000
  C   C1572     1.0  0.96188  0.75856  0.36384  1.0000
  H   H2775     1.0  0.87078  0.80617  0.11149  1.0000
  H   H2776     1.0  0.81856  0.88844  0.18135  1.0000
  H   H2777     1.0  0.94819  0.76514  0.35467  1.0000
  H   H2778     1.0  0.89018  0.89206  0.22612  1.0000
  S   S358      1.0  0.89493  0.95814  0.13178  1.0000
  H   H2779     1.0  0.94197  0.94407  0.09455  1.0000
  H   H2780     1.0  0.87951  0.78268  0.46912  1.0000
  H   H2781     1.0  0.77791  0.72696  0.00531  1.0000
  C   C1573     1.0  0.83513  0.86144  0.03319  1.0000
  H   H2782     1.0  0.75208  0.73632  0.15910  1.0000
  H   H2783     1.0  0.95825  0.78558  0.44820  1.0000
  H   H2784     1.0  0.87629  0.79680  0.99916  1.0000
  C   C1574     1.0  0.77335  0.83342  0.05106  1.0000
  C   C1575     1.0  0.86165  0.97012  0.22528  1.0000
  H   H2785     1.0  0.87289  0.83932  0.09561  1.0000
  C   C1576     1.0  0.97505  0.73819  0.39257  1.0000
  H   H2786     1.0  0.97615  0.95266  0.17756  1.0000
  H   H2787     1.0  0.89798  0.88923  0.19085  1.0000
  H   H2788     1.0  0.78494  0.74444  0.28000  1.0000
  H   H2789     1.0  0.92095  0.78130  0.43072  1.0000
  H   H2790     1.0  0.89760  0.72481  0.44379  1.0000
  H   H2791     1.0  0.86463  0.80653  0.04381  1.0000
  C   C1577     1.0  0.85599  0.82965  0.03042  1.0000
  H   H2792     1.0  0.77071  0.83846  0.03050  1.0000
  C   C1578     1.0  0.75950  0.75619  0.48518  1.0000
  H   H2793     1.0  0.98448  0.79583  0.31569  1.0000
  H   H2794     1.0  0.97134  0.78747  0.28639  1.0000
  H   H2795     1.0  0.78494  0.88822  0.22957  1.0000
  H   H2796     1.0  0.82960  0.91188  0.16584  1.0000
  H   H2797     1.0  0.81385  0.81870  0.04383  1.0000
  C   C1579     1.0  0.79088  0.73878  0.29899  1.0000
  C   C1580     1.0  0.78177  0.87423  0.19439  1.0000
  H   H2798     1.0  0.74637  0.79681  0.30634  1.0000
  S   S359      1.0  0.87037  0.73982  0.34227  1.0000
  C   C1581     1.0  0.91341  0.73892  0.47380  1.0000
  H   H2799     1.0  0.79676  0.84979  0.06350  1.0000
  H   H2800     1.0  0.79778  0.83288  0.08342  1.0000
  C   C1582     1.0  0.85898  0.96779  0.00816  1.0000
  H   H2801     1.0  0.92165  0.79098  0.46232  1.0000
  H   H2802     1.0  0.77285  0.78176  0.28296  1.0000
  C   C1583     1.0  0.87293  0.81818  0.11597  1.0000
  C   C1584     1.0  0.86944  0.82761  0.09015  1.0000
  H   H2803     1.0  0.76070  0.81981  0.24885  1.0000
  C   C1585     1.0  0.89649  0.72711  0.46602  1.0000
  H   H2804     1.0  0.84608  0.96163  0.47193  1.0000
  H   H2805     1.0  0.84644  0.85942  0.01537  1.0000
  C   C1586     1.0  0.82090  0.78711  0.48947  1.0000
  C   C1587     1.0  0.85599  0.96950  0.48311  1.0000
  H   H2806     1.0  0.92383  0.96056  0.27776  1.0000
  H   H2807     1.0  0.75971  0.83773  0.06487  1.0000
  H   H2808     1.0  0.79093  0.76079  0.46366  1.0000
  C   C1588     1.0  0.94592  0.76268  0.45503  1.0000
  S   S360      1.0  0.92803  0.74141  0.38887  1.0000
  C   C1589     1.0  0.91454  0.78106  0.45220  1.0000
  H   H2809     1.0  0.83353  0.83064  0.09565  1.0000
  H   H2810     1.0  0.80946  0.73993  0.30009  1.0000
  H   H2811     1.0  0.85277  0.95739  0.01609  1.0000
  C   C1590     1.0  0.79374  0.74245  0.04655  1.0000
  H   H2812     1.0  0.81739  0.85971  0.02677  1.0000
  H   H2813     1.0  0.77471  0.79424  0.33567  1.0000
  H   H2814     1.0  0.80205  0.81003  0.35927  1.0000
  H   H2815     1.0  0.79324  0.78881  0.26054  1.0000
  H   H2816     1.0  0.77604  0.74616  0.04168  1.0000
  H   H2817     1.0  0.80808  0.79050  0.36570  1.0000
  C   C1591     1.0  0.92300  0.94460  0.00016  1.0000
  H   H2818     1.0  0.79744  0.78402  0.31907  1.0000
  C   C1592     1.0  0.79650  0.83745  0.06238  1.0000
  Fe  Fe180     1.0  0.84202  0.73407  0.37165  1.0000
  S   S361      1.0  0.86297  0.73975  0.40852  1.0000
  H   H2819     1.0  0.74532  0.74844  0.48237  1.0000
  H   H2820     1.0  0.84101  0.81436  0.07733  1.0000
  C   C1593     1.0  0.98578  0.76994  0.44162  1.0000
  H   H2821     1.0  0.76021  0.79761  0.22845  1.0000
  H   H2822     1.0  0.80278  0.94326  0.15946  1.0000
  C   C1594     1.0  0.79719  0.81785  0.24319  1.0000
  C   C1595     1.0  0.96421  0.77475  0.45705  1.0000
  C   C1596     1.0  0.84740  0.90582  0.21569  1.0000
  C   C1597     1.0  0.86253  0.89565  0.19703  1.0000
  C   C1598     1.0  0.88756  0.89628  0.20497  1.0000
  H   H2823     1.0  0.85518  0.91700  0.21556  1.0000
  H   H2824     1.0  0.84951  0.90138  0.23688  1.0000
  H   H2825     1.0  0.83546  0.93034  0.24544  1.0000
  H   H2826     1.0  0.85780  0.88378  0.19860  1.0000
  H   H2827     1.0  0.86090  0.89905  0.17542  1.0000
  H   H2828     1.0  0.89359  0.90789  0.20352  1.0000
  C   C1599     1.0  0.84490  0.82638  0.07914  1.0000
  C   C1600     1.0  0.97045  0.96304  0.16680  1.0000
  C   C1601     1.0  0.78847  0.88895  0.20730  1.0000
  H   H2829     1.0  0.97419  0.80741  0.28790  1.0000
  H   H2830     1.0  0.78915  0.91048  0.16317  1.0000
  H   H2831     1.0  0.82543  0.80052  0.34198  1.0000
  H   H2832     1.0  0.98831  0.77161  0.34561  1.0000
  H   H2833     1.0  0.82284  0.88337  0.21617  1.0000
  H   H2834     1.0  0.82893  0.92780  0.18648  1.0000
  H   H2835     1.0  0.81261  0.90662  0.25075  1.0000
  N   N85       1.0  0.82246  0.90723  0.20833  1.0000
  C   C1602     1.0  0.81407  0.89176  0.20265  1.0000
  H   H2836     1.0  0.75858  0.81933  0.33317  1.0000
  H   H2837     1.0  0.78350  0.87488  0.17182  1.0000
  C   C1603     1.0  0.81015  0.91401  0.23254  1.0000
  C   C1604     1.0  0.97751  0.94432  0.08365  1.0000
  H   H2838     1.0  0.81340  0.93805  0.22371  1.0000
  C   C1605     1.0  0.94024  0.96068  0.26650  1.0000
  C   C1606     1.0  0.98454  0.92538  0.12836  1.0000
  H   H2839     1.0  0.78446  0.92436  0.18954  1.0000
  H   H2840     1.0  0.77779  0.93543  0.14484  1.0000
  H   H2841     1.0  0.83191  0.96730  0.25025  1.0000
  H   H2842     1.0  0.85435  0.88029  0.04777  1.0000
  H   H2843     1.0  0.94229  0.95249  0.03461  1.0000
  N   N86       1.0  0.92273  0.76685  0.46647  1.0000
  H   H2844     1.0  0.86019  0.85355  0.06182  1.0000
  C   C1607     1.0  0.87473  0.80907  0.00208  1.0000
  H   H2845     1.0  0.76380  0.87196  0.19937  1.0000
  S   S362      1.0  0.85067  0.95928  0.19776  1.0000
  H   H2846     1.0  0.80535  0.92923  0.13302  1.0000
  C   C1608     1.0  0.77694  0.75281  0.46274  1.0000
  H   H2847     1.0  0.89545  0.94093  0.02904  1.0000
  H   H2848     1.0  0.77200  0.82110  0.04962  1.0000
  H   H2849     1.0  0.95335  0.75265  0.46548  1.0000
  H   H2850     1.0  0.93587  0.95559  0.16917  1.0000
  C   C1609     1.0  0.88854  0.78390  0.44952  1.0000
  H   H2851     1.0  0.80936  0.80486  0.29302  1.0000
  N   N87       1.0  0.77372  0.80588  0.28212  1.0000
  H   H2852     1.0  0.88145  0.77579  0.43508  1.0000
  H   H2853     1.0  0.86064  0.82174  0.13208  1.0000
  H   H2854     1.0  0.88224  0.82371  0.07497  1.0000
  H   H2855     1.0  0.88926  0.80817  0.45249  1.0000
  H   H2856     1.0  0.89089  0.80105  0.41790  1.0000
  C   C1610     1.0  0.98252  0.79649  0.29316  1.0000
  H   H2857     1.0  0.89037  0.81958  0.12388  1.0000
  H   H2858     1.0  0.90660  0.75249  0.43764  1.0000
  H   H2859     1.0  0.82475  0.88075  0.05762  1.0000
  N   N88       1.0  0.83977  0.83455  0.05276  1.0000
  H   H2860     1.0  0.81273  0.83475  0.02274  1.0000
  H   H2861     1.0  0.78591  0.75898  0.32262  1.0000
  H   H2862     1.0  0.77672  0.82941  0.27310  1.0000
  H   H2863     1.0  0.75142  0.77248  0.21305  1.0000
  C   C1611     1.0  0.79733  0.83112  0.22345  1.0000
  C   C1612     1.0  0.80696  0.73881  0.02041  1.0000
  C   C1613     1.0  0.76375  0.77386  0.22992  1.0000
  C   C1614     1.0  0.80784  0.79936  0.34973  1.0000
  C   C1615     1.0  0.90947  0.93445  0.01894  1.0000
  H   H2864     1.0  0.95071  0.95062  0.27216  1.0000
  H   H2865     1.0  0.88949  0.75692  0.46607  1.0000
  H   H2866     1.0  0.77724  0.89789  0.19878  1.0000
  H   H2867     1.0  0.93644  0.96021  0.24434  1.0000
  H   H2868     1.0  0.79740  0.84181  0.23477  1.0000
  C   C1616     1.0  0.79249  0.80672  0.30291  1.0000
  C   C1617     1.0  0.90727  0.75419  0.46013  1.0000
  C   C1618     1.0  0.79185  0.79518  0.32666  1.0000
  H   H2869     1.0  0.96705  0.96557  0.31018  1.0000
  C   C1619     1.0  0.81597  0.83101  0.04413  1.0000
  H   H2870     1.0  0.78412  0.74125  0.46484  1.0000
  H   H2871     1.0  0.80668  0.74910  0.00782  1.0000
  H   H2872     1.0  0.76138  0.74745  0.32152  1.0000
  H   H2873     1.0  0.78234  0.83105  0.20975  1.0000
  H   H2874     1.0  0.83267  0.85470  0.07592  1.0000
  C   C1620     1.0  0.84221  0.85105  0.05737  1.0000
  H   H2875     1.0  0.94442  0.75960  0.43311  1.0000
  H   H2876     1.0  0.85066  0.83476  0.01060  1.0000
  H   H2877     1.0  0.81303  0.81809  0.25530  1.0000
  C   C1621     1.0  0.83688  0.87785  0.04096  1.0000
  H   H2878     1.0  0.96895  0.77651  0.47867  1.0000
  H   H2879     1.0  0.84159  0.80801  0.01979  1.0000
  H   H2880     1.0  0.79269  0.86480  0.20208  1.0000
  C   C1622     1.0  0.80400  0.93545  0.26566  1.0000
  H   H2881     1.0  0.81286  0.83036  0.21054  1.0000
  H   H2882     1.0  0.81285  0.79668  0.47952  1.0000
  C   C1623     1.0  0.85092  0.77049  0.01384  1.0000
  H   H2883     1.0  0.97477  0.95189  0.06676  1.0000
  H   H2884     1.0  0.76218  0.76441  0.24452  1.0000
  C   C1624     1.0  0.84131  0.76339  0.48663  1.0000
  H   H2885     1.0  0.79248  0.74656  0.22399  1.0000
  H   H2886     1.0  0.98721  0.91789  0.14553  1.0000
  H   H2887     1.0  0.76550  0.73033  0.24909  1.0000
  H   H2888     1.0  0.87326  0.83388  0.03418  1.0000
  C   C1625     1.0  0.93339  0.95737  0.01650  1.0000
  H   H2889     1.0  0.91860  0.96373  0.02508  1.0000
  N   N89       1.0  0.94862  0.96768  0.00095  1.0000
  H   H2890     1.0  0.90192  0.92543  0.00683  1.0000
  H   H2891     1.0  0.79309  0.81815  0.31159  1.0000
  C   C1626     1.0  0.75059  0.80728  0.29535  1.0000
  C   C1627     1.0  0.85820  0.81258  0.02544  1.0000
  C   C1628     1.0  0.98479  0.76220  0.35868  1.0000
  C   C1629     1.0  0.77866  0.72520  0.23557  1.0000
  H   H2892     1.0  0.80750  0.92797  0.28341  1.0000
  H   H2893     1.0  0.87887  0.73080  0.47136  1.0000
  H   H2894     1.0  0.79353  0.73258  0.06038  1.0000
  H   H2895     1.0  0.89185  0.81324  0.00673  1.0000
  H   H2896     1.0  0.92064  0.92926  0.03483  1.0000
  H   H2897     1.0  0.97542  0.94235  0.02040  1.0000
  C   C1630     1.0  0.75893  0.78872  0.24416  1.0000
  H   H2898     1.0  0.93037  0.73460  0.46724  1.0000
  C   C1631     1.0  0.94539  0.96576  0.17382  1.0000
  H   H2899     1.0  0.82471  0.73599  0.02646  1.0000
  H   H2900     1.0  0.98220  0.76910  0.41945  1.0000
  C   C1632     1.0  0.98483  0.95081  0.00869  1.0000
  H   H2901     1.0  0.80936  0.94685  0.27098  1.0000
  H   H2902     1.0  0.78546  0.93597  0.26152  1.0000
  C   C1633     1.0  0.79674  0.72548  0.00527  1.0000
  H   H2903     1.0  0.97150  0.72883  0.40578  1.0000
  H   H2904     1.0  0.97171  0.96084  0.14468  1.0000
  C   C1634     1.0  0.78517  0.73673  0.21409  1.0000
  C   C1635     1.0  0.80866  0.78170  0.99683  1.0000
  C   C1636     1.0  0.84838  0.97224  0.24906  1.0000
  S   S363      1.0  0.87949  0.97171  0.05948  1.0000
  H   H2905     1.0  0.76994  0.74068  0.20264  1.0000
  H   H2906     1.0  0.75012  0.83130  0.30511  1.0000
  C   C1637     1.0  0.74703  0.82049  0.31539  1.0000
  H   H2907     1.0  0.81080  0.72908  0.25535  1.0000
  H   H2908     1.0  0.79779  0.73191  0.19945  1.0000
  H   H2909     1.0  0.76509  0.72247  0.29813  1.0000
  Fe  Fe181     1.0  0.76965  0.79357  0.62703  1.0000
  S   S364      1.0  0.79259  0.77323  0.62830  1.0000
  Fe  Fe182     1.0  0.80974  0.81487  0.63579  1.0000
  S   S365      1.0  0.83502  0.79536  0.63725  1.0000
  S   S366      1.0  0.82291  0.83814  0.64745  1.0000
  Fe  Fe183     1.0  0.81607  0.78622  0.60133  1.0000
  S   S367      1.0  0.83475  0.77308  0.56752  1.0000
  Fe  Fe184     1.0  0.80971  0.78392  0.66405  1.0000
  S   S368      1.0  0.81985  0.76831  0.69958  1.0000
  S   S369      1.0  0.79233  0.80632  0.59807  1.0000
  S   S370      1.0  0.78518  0.80362  0.66462  1.0000
  H   H2910     1.0  0.74828  0.76746  0.73410  1.0000
  S   S371      1.0  0.83255  0.75506  0.89186  1.0000
  Fe  Fe185     1.0  0.89726  0.74801  0.87133  1.0000
  S   S372      1.0  0.88224  0.77042  0.88337  1.0000
  S   S373      1.0  0.93325  0.74646  0.85190  1.0000
  Fe  Fe186     1.0  0.86400  0.75834  0.91708  1.0000
  S   S374      1.0  0.86710  0.76497  0.96200  1.0000
  Fe  Fe187     1.0  0.85241  0.76489  0.85684  1.0000
  S   S375      1.0  0.83764  0.78156  0.82567  1.0000
  S   S376      1.0  0.88051  0.73601  0.90635  1.0000
  S   S377      1.0  0.86790  0.74316  0.84324  1.0000
  Fe  Fe188     1.0  0.85944  0.92651  0.62025  1.0000
  S   S378      1.0  0.84315  0.94986  0.61900  1.0000
  S   S379      1.0  0.83921  0.90581  0.60785  1.0000
  Fe  Fe189     1.0  0.90525  0.93894  0.63546  1.0000
  S   S380      1.0  0.94097  0.93385  0.65053  1.0000
  Fe  Fe190     1.0  0.86234  0.95429  0.65812  1.0000
  S   S381      1.0  0.84557  0.96575  0.69567  1.0000
  Fe  Fe191     1.0  0.87449  0.95689  0.59598  1.0000
  H   H2911     1.0  0.87653  0.80152  0.81930  1.0000
  S   S382      1.0  0.87624  0.93056  0.66068  1.0000
  S   S383      1.0  0.88978  0.93346  0.59499  1.0000
  C   C1638     1.0  0.96369  0.93597  0.62764  1.0000
  C   C1639     1.0  0.75224  0.83827  0.59559  1.0000
  C   C1640     1.0  0.96127  0.93297  0.59986  1.0000
  N   N90       1.0  0.75866  0.85498  0.66913  1.0000
  C   C1641     1.0  0.91133  0.77036  0.74217  1.0000
  C   C1642     1.0  0.77918  0.76807  0.85097  1.0000
  C   C1643     1.0  0.75763  0.75206  0.76691  1.0000
  C   C1644     1.0  0.77745  0.74299  0.95677  1.0000
  H   H2912     1.0  0.98613  0.78866  0.78296  1.0000
  H   H2913     1.0  0.81286  0.74544  0.96478  1.0000
  H   H2914     1.0  0.86440  0.93830  0.82135  1.0000
  H   H2915     1.0  0.85381  0.95717  0.52129  1.0000
  C   C1645     1.0  0.82867  0.85655  0.63493  1.0000
  C   C1646     1.0  0.84068  0.86632  0.65169  1.0000
  C   C1647     1.0  0.84468  0.88121  0.64350  1.0000
  C   C1648     1.0  0.83628  0.88674  0.61857  1.0000
  C   C1649     1.0  0.82433  0.87696  0.60178  1.0000
  C   C1650     1.0  0.82075  0.86197  0.60970  1.0000
  H   H2916     1.0  0.84693  0.86234  0.67123  1.0000
  H   H2917     1.0  0.85387  0.88850  0.65672  1.0000
  H   H2918     1.0  0.81778  0.88102  0.58242  1.0000
  H   H2919     1.0  0.81157  0.85470  0.59643  1.0000
  C   C1651     1.0  0.83220  0.77420  0.53139  1.0000
  H   H2920     1.0  0.80514  0.92762  0.74129  1.0000
  H   H2921     1.0  0.90595  0.92760  0.80316  1.0000
  H   H2922     1.0  0.92402  0.93026  0.50114  1.0000
  H   H2923     1.0  0.74726  0.84392  0.72305  1.0000
  C   C1652     1.0  0.82143  0.78636  0.51825  1.0000
  H   H2924     1.0  0.85014  0.75316  0.52537  1.0000
  H   H2925     1.0  0.82099  0.77744  0.95579  1.0000
  H   H2926     1.0  0.87275  0.96027  0.77355  1.0000
  H   H2927     1.0  0.81405  0.79536  0.53024  1.0000
  C   C1653     1.0  0.82511  0.77245  0.73438  1.0000
  C   C1654     1.0  0.83168  0.76071  0.75216  1.0000
  C   C1655     1.0  0.83562  0.76332  0.78007  1.0000
  C   C1656     1.0  0.83310  0.77775  0.79057  1.0000
  C   C1657     1.0  0.82656  0.78950  0.77281  1.0000
  C   C1658     1.0  0.82262  0.78689  0.74485  1.0000
  H   H2928     1.0  0.83360  0.74949  0.74427  1.0000
  H   H2929     1.0  0.84043  0.75414  0.79347  1.0000
  H   H2930     1.0  0.82450  0.80070  0.78072  1.0000
  H   H2931     1.0  0.81754  0.79603  0.73145  1.0000
  C   C1659     1.0  0.96813  0.74539  0.89116  1.0000
  C   C1660     1.0  0.96222  0.74637  0.86352  1.0000
  C   C1661     1.0  0.90127  0.78265  0.78520  1.0000
  H   H2932     1.0  0.79324  0.86142  0.67699  1.0000
  H   H2933     1.0  0.89579  0.78199  0.69216  1.0000
  C   C1662     1.0  0.86830  0.96154  0.82955  1.0000
  H   H2934     1.0  0.94515  0.92939  0.59215  1.0000
  C   C1663     1.0  0.76051  0.85294  0.63854  1.0000
  H   H2935     1.0  0.75060  0.81107  0.52253  1.0000
  H   H2936     1.0  0.91877  0.78102  0.73532  1.0000
  H   H2937     1.0  0.92629  0.73780  0.77325  1.0000
  H   H2938     1.0  0.87054  0.77126  0.69022  1.0000
  H   H2939     1.0  0.78247  0.89670  0.69298  1.0000
  H   H2940     1.0  0.78679  0.75935  0.51421  1.0000
  H   H2941     1.0  0.89793  0.76180  0.68979  1.0000
  C   C1664     1.0  0.88713  0.77014  0.72968  1.0000
  C   C1665     1.0  0.89416  0.79914  0.82643  1.0000
  C   C1666     1.0  0.88805  0.77137  0.69857  1.0000
  H   H2942     1.0  0.90791  0.79300  0.77585  1.0000
  H   H2943     1.0  0.88279  0.78306  0.78050  1.0000
  H   H2944     1.0  0.89418  0.79941  0.84909  1.0000
  H   H2945     1.0  0.87638  0.77965  0.73711  1.0000
  H   H2946     1.0  0.87856  0.75965  0.73479  1.0000
  H   H2947     1.0  0.90534  0.80799  0.81872  1.0000
  H   H2948     1.0  0.76799  0.75273  0.72400  1.0000
  H   H2949     1.0  0.88643  0.96034  0.83557  1.0000
  C   C1667     1.0  0.95163  0.78149  0.77690  1.0000
  H   H2950     1.0  0.89012  0.92836  0.72749  1.0000
  H   H2951     1.0  0.78699  0.76442  0.80890  1.0000
  C   C1668     1.0  0.90061  0.75540  0.78302  1.0000
  C   C1669     1.0  0.84820  0.72940  0.97466  1.0000
  C   C1670     1.0  0.90272  0.78381  0.81670  1.0000
  H   H2952     1.0  0.90338  0.75395  0.80534  1.0000
  H   H2953     1.0  0.85169  0.92891  0.71312  1.0000
  H   H2954     1.0  0.94465  0.79107  0.78880  1.0000
  H   H2955     1.0  0.95221  0.78476  0.75504  1.0000
  H   H2956     1.0  0.89897  0.89459  0.78969  1.0000
  H   H2957     1.0  0.77846  0.85406  0.63186  1.0000
  C   C1671     1.0  0.76486  0.84053  0.68373  1.0000
  N   N91       1.0  0.91261  0.76897  0.77283  1.0000
  H   H2958     1.0  0.89192  0.77529  0.82621  1.0000
  H   H2959     1.0  0.97815  0.93170  0.56080  1.0000
  H   H2960     1.0  0.92026  0.78206  0.82442  1.0000
  H   H2961     1.0  0.77270  0.86982  0.69913  1.0000
  H   H2962     1.0  0.92193  0.76144  0.73223  1.0000
  C   C1672     1.0  0.79059  0.89269  0.67379  1.0000
  C   C1673     1.0  0.96887  0.95944  0.98858  1.0000
  H   H2963     1.0  0.97263  0.90207  0.63351  1.0000
  C   C1674     1.0  0.77145  0.82570  0.72742  1.0000
  H   H2964     1.0  0.80785  0.73345  0.93736  1.0000
  C   C1675     1.0  0.93727  0.76743  0.78099  1.0000
  H   H2965     1.0  0.88193  0.75695  0.78076  1.0000
  H   H2966     1.0  0.93892  0.76382  0.80269  1.0000
  H   H2967     1.0  0.94596  0.75833  0.76926  1.0000
  H   H2968     1.0  0.78219  0.83665  0.67736  1.0000
  H   H2969     1.0  0.79354  0.74796  0.77527  1.0000
  C   C1676     1.0  0.91715  0.93543  0.52009  1.0000
  C   C1677     1.0  0.77609  0.88099  0.66022  1.0000
  H   H2970     1.0  0.79249  0.90237  0.65975  1.0000
  H   H2971     1.0  0.77061  0.73859  0.84545  1.0000
  H   H2972     1.0  0.77754  0.76811  0.74427  1.0000
  H   H2973     1.0  0.93446  0.75956  0.50631  1.0000
  H   H2974     1.0  0.91427  0.91825  0.77184  1.0000
  C   C1678     1.0  0.81652  0.92976  0.72368  1.0000
  H   H2975     1.0  0.91265  0.95729  0.50264  1.0000
  C   C1679     1.0  0.88727  0.93913  0.73841  1.0000
  C   C1680     1.0  0.90289  0.77226  0.51298  1.0000
  H   H2976     1.0  0.96204  0.89037  0.60704  1.0000
  C   C1681     1.0  0.76215  0.74869  0.56225  1.0000
  C   C1682     1.0  0.75654  0.80245  0.53746  1.0000
  H   H2977     1.0  0.97636  0.77592  0.80871  1.0000
  C   C1683     1.0  0.84193  0.76267  0.51540  1.0000
  C   C1684     1.0  0.78654  0.75762  0.82786  1.0000
  C   C1685     1.0  0.92156  0.95214  0.52042  1.0000
  C   C1686     1.0  0.90287  0.90390  0.80363  1.0000
  H   H2978     1.0  0.87555  0.91286  0.76062  1.0000
  C   C1687     1.0  0.87633  0.94934  0.78375  1.0000
  C   C1688     1.0  0.90698  0.77152  0.54374  1.0000
  H   H2979     1.0  0.97942  0.96746  0.97702  1.0000
  C   C1689     1.0  0.90799  0.74034  0.76973  1.0000
  H   H2980     1.0  0.75361  0.83143  0.67775  1.0000
  H   H2981     1.0  0.78757  0.72490  0.58633  1.0000
  H   H2982     1.0  0.74227  0.74555  0.76292  1.0000
  C   C1690     1.0  0.77628  0.75658  0.93784  1.0000
  H   H2983     1.0  0.93977  0.95857  0.57430  1.0000
  H   H2984     1.0  0.95490  0.74477  0.90643  1.0000
  C   C1691     1.0  0.82475  0.77666  0.97734  1.0000
  N   N92       1.0  0.75582  0.75877  0.53841  1.0000
  H   H2985     1.0  0.77104  0.82622  0.75006  1.0000
  H   H2986     1.0  0.93589  0.77897  0.50075  1.0000
  H   H2987     1.0  0.84326  0.94927  0.74871  1.0000
  C   C1692     1.0  0.77010  0.74448  0.82538  1.0000
  H   H2988     1.0  0.75351  0.75260  0.58126  1.0000
  H   H2989     1.0  0.77943  0.77582  0.54920  1.0000
  C   C1693     1.0  0.89484  0.72746  0.78195  1.0000
  C   C1694     1.0  0.84815  0.93768  0.75516  1.0000
  S   S384      1.0  0.89236  0.96274  0.63525  1.0000
  C   C1695     1.0  0.86032  0.96693  0.51120  1.0000
  C   C1696     1.0  0.86184  0.94903  0.81022  1.0000
  H   H2990     1.0  0.76207  0.77311  0.84685  1.0000
  H   H2991     1.0  0.85772  0.96113  0.84833  1.0000
  C   C1697     1.0  0.94738  0.95503  0.51929  1.0000
  H   H2992     1.0  0.94062  0.95167  0.71846  1.0000
  H   H2993     1.0  0.88989  0.76401  0.50833  1.0000
  H   H2994     1.0  0.84353  0.95076  0.80555  1.0000
  H   H2995     1.0  0.92501  0.92980  0.53816  1.0000
  H   H2996     1.0  0.86468  0.91927  0.79216  1.0000
  H   H2997     1.0  0.79377  0.75837  0.57616  1.0000
  H   H2998     1.0  0.77472  0.80424  0.54180  1.0000
  H   H2999     1.0  0.84320  0.96543  0.96863  1.0000
  C   C1698     1.0  0.76087  0.77459  0.54625  1.0000
  C   C1699     1.0  0.77565  0.86640  0.67760  1.0000
  H   H3000     1.0  0.90817  0.95833  0.74779  1.0000
  Fe  Fe192     1.0  0.84977  0.73347  0.87946  1.0000
  H   H3001     1.0  0.84351  0.91524  0.73798  1.0000
  C   C1700     1.0  0.97615  0.89168  0.62173  1.0000
  C   C1701     1.0  0.77003  0.75387  0.51399  1.0000
  H   H3002     1.0  0.77997  0.73328  0.75883  1.0000
  C   C1702     1.0  0.76453  0.84095  0.71536  1.0000
  H   H3003     1.0  0.78354  0.87872  0.63978  1.0000
  H   H3004     1.0  0.96353  0.95115  0.97338  1.0000
  H   H3005     1.0  0.91316  0.76017  0.54995  1.0000
  H   H3006     1.0  0.79141  0.77722  0.85266  1.0000
  H   H3007     1.0  0.97575  0.74763  0.82266  1.0000
  C   C1703     1.0  0.91064  0.94641  0.74217  1.0000
  H   H3008     1.0  0.91374  0.95663  0.53930  1.0000
  H   H3009     1.0  0.75841  0.76078  0.93604  1.0000
  C   C1704     1.0  0.87754  0.92170  0.77618  1.0000
  H   H3010     1.0  0.83686  0.93503  0.77263  1.0000
  C   C1705     1.0  0.97993  0.74703  0.84410  1.0000
  C   C1706     1.0  0.84597  0.77101  0.98574  1.0000
  C   C1707     1.0  0.79227  0.73629  0.59255  1.0000
  H   H3011     1.0  0.80779  0.88799  0.67849  1.0000
  C   C1708     1.0  0.97988  0.93436  0.58215  1.0000
  H   H3012     1.0  0.89855  0.93374  0.52090  1.0000
  H   H3013     1.0  0.98414  0.76911  0.77513  1.0000
  H   H3014     1.0  0.77140  0.74668  0.97718  1.0000
  C   C1709     1.0  0.80200  0.73620  0.95843  1.0000
  H   H3015     1.0  0.89079  0.90391  0.82110  1.0000
  C   C1710     1.0  0.75352  0.78692  0.52558  1.0000
  H   H3016     1.0  0.80406  0.75346  0.83242  1.0000
  H   H3017     1.0  0.81062  0.73608  0.59776  1.0000
  H   H3018     1.0  0.77892  0.76193  0.87069  1.0000
  H   H3019     1.0  0.98683  0.94234  0.65918  1.0000
  H   H3020     1.0  0.79838  0.74382  0.55167  1.0000
  C   C1711     1.0  0.84138  0.92710  0.73170  1.0000
  H   H3021     1.0  0.78653  0.76568  0.94607  1.0000
  H   H3022     1.0  0.89605  0.78366  0.50836  1.0000
  C   C1712     1.0  0.97604  0.77856  0.78650  1.0000
  C   C1713     1.0  0.77774  0.74151  0.77559  1.0000
  C   C1714     1.0  0.90145  0.91885  0.78844  1.0000
  C   C1715     1.0  0.76327  0.76056  0.74072  1.0000
  H   H3023     1.0  0.77412  0.74164  0.51514  1.0000
  H   H3024     1.0  0.81360  0.94142  0.71635  1.0000
  H   H3025     1.0  0.95580  0.94808  0.53537  1.0000
  H   H3026     1.0  0.78898  0.82239  0.72094  1.0000
  C   C1716     1.0  0.92437  0.94592  0.71570  1.0000
  H   H3027     1.0  0.93120  0.95728  0.95033  1.0000
  H   H3028     1.0  0.92031  0.90195  0.81171  1.0000
  C   C1717     1.0  0.78781  0.74746  0.56933  1.0000
  H   H3029     1.0  0.96708  0.96685  0.57741  1.0000
  H   H3030     1.0  0.74648  0.80384  0.55656  1.0000
  H   H3031     1.0  0.86847  0.81418  0.98270  1.0000
  H   H3032     1.0  0.75343  0.76048  0.78274  1.0000
  H   H3033     1.0  0.92098  0.94090  0.75832  1.0000
  H   H3034     1.0  0.90482  0.74050  0.74744  1.0000
  H   H3035     1.0  0.78261  0.75359  0.91719  1.0000
  H   H3036     1.0  0.81219  0.92211  0.70684  1.0000
  H   H3037     1.0  0.91480  0.95161  0.69888  1.0000
  H   H3038     1.0  0.89429  0.94976  0.79025  1.0000
  H   H3039     1.0  0.74775  0.82712  0.58783  1.0000
  C   C1718     1.0  0.98485  0.94016  0.63764  1.0000
  H   H3040     1.0  0.87818  0.94659  0.72351  1.0000
  H   H3041     1.0  0.91953  0.77985  0.54992  1.0000
  N   N93       1.0  0.87282  0.93689  0.76367  1.0000
  H   H3042     1.0  0.87625  0.72949  0.77952  1.0000
  H   H3043     1.0  0.89075  0.77403  0.55468  1.0000
  H   H3044     1.0  0.75324  0.77735  0.56651  1.0000
  H   H3045     1.0  0.77666  0.84909  0.72326  1.0000
  H   H3046     1.0  0.93626  0.93757  0.98997  1.0000
  H   H3047     1.0  0.92831  0.93418  0.70979  1.0000
  H   H3048     1.0  0.89891  0.72607  0.80397  1.0000
  H   H3049     1.0  0.95364  0.95030  0.49965  1.0000
  C   C1719     1.0  0.79714  0.72527  0.80911  1.0000
  H   H3050     1.0  0.78247  0.73960  0.61106  1.0000
  H   H3051     1.0  0.76544  0.73491  0.94858  1.0000
  H   H3052     1.0  0.79177  0.72979  0.89338  1.0000
  C   C1720     1.0  0.75381  0.83766  0.62670  1.0000
  H   H3053     1.0  0.75628  0.73717  0.55854  1.0000
  C   C1721     1.0  0.92514  0.76924  0.49677  1.0000
  H   H3054     1.0  0.75960  0.81704  0.72074  1.0000
  C   C1722     1.0  0.93513  0.96926  0.95002  1.0000
  H   H3055     1.0  0.84781  0.73450  0.95394  1.0000
  H   H3056     1.0  0.97652  0.88196  0.63592  1.0000
  H   H3057     1.0  0.95201  0.97043  0.94016  1.0000
  H   H3058     1.0  0.75069  0.86198  0.62770  1.0000
  H   H3059     1.0  0.76705  0.82909  0.63204  1.0000
  H   H3060     1.0  0.76431  0.78613  0.50703  1.0000
  H   H3061     1.0  0.76882  0.84129  0.58657  1.0000
  H   H3062     1.0  0.79233  0.78614  0.99008  1.0000
  H   H3063     1.0  0.75246  0.74919  0.82374  1.0000
  H   H3064     1.0  0.88467  0.73158  0.97669  1.0000
  H   H3065     1.0  0.75890  0.88605  0.65722  1.0000
  H   H3066     1.0  0.84542  0.73839  0.98970  1.0000
  H   H3067     1.0  0.91090  0.94927  0.98480  1.0000
  C   C1723     1.0  0.99127  0.74489  0.89911  1.0000
  H   H3068     1.0  0.81151  0.73304  0.80891  1.0000
  H   H3069     1.0  0.98619  0.96355  0.53924  1.0000
  N   N94       1.0  0.77514  0.73358  0.80262  1.0000
  C   C1724     1.0  0.85362  0.97238  0.98110  1.0000
  N   N95       1.0  0.95401  0.97109  0.52183  1.0000
  C   C1725     1.0  0.94871  0.96927  0.57432  1.0000
  H   H3070     1.0  0.75271  0.72265  0.90686  1.0000
  C   C1726     1.0  0.97961  0.97149  0.52333  1.0000
  H   H3071     1.0  0.94268  0.97127  0.61781  1.0000
  C   C1727     1.0  0.75565  0.72310  0.80054  1.0000
  C   C1728     1.0  0.87206  0.72268  0.97906  1.0000
  N   N96       1.0  0.80527  0.72263  0.97666  1.0000
  H   H3072     1.0  0.91313  0.73987  0.49636  1.0000
