data_image0
_chemical_formula_structural       FeS2FeS2FeSFeS3C2FeSHSFeS2FeS2FeSFeS3HSFeSHSC2HSHC6H4C3H3CNH2C2HC6H4C6H4CH2CHC2H11CH2CH4C2HC3H2CH9C2H4CHCHCH2C3HC2HCH2CH2C3H2CHCH8FeHNCHC5H2C3H2CH12C2H10FeHCH7NHC2H2CH5C2HCH3CH2CH2SH2C2H2NC6HC4H5NH15CH7CH5CSH2CH2CHCHCH2CH3CH7CHCH2C2H3CHCH2CH4CHCSHCSFeSFeS2FeS2FeSFeS3HSHSFeSFeS2FeS2FeSFeS3C2H2CHC3HC2H3C6H4C6H5C2H2C3H2C6H4C3H9C2NC4H4SCH6C2H3NHCHCH3C2NHCH4SHCH5CH3CH3NC12H29CH3C2NHCH9C2HC3HC2H5CHC2H2NFeHCH3CHCH4CHCHCH2CH3CH3C2H4CHCH5C4H4CH2NH6C2H6CHCH7CHC2HC2H2CHCHFeH4SH4CHC2H5C2SCHCHC2H4FeHC3HSHFeSH2FeS2FeS2FeSFeS3FeS2FeS2FeSFeS3FeSCS3H2CH2C3H2C3H2C6H4C6H4CH4CH4C6H4CH5CH9CH2CH3C2H2CH4CNHC3H2CH2CH3CH4C4H6C2H4CHC2H7SHNCHCH3CH6C3HFeC2HCHCHCH3C2H2C2H2CH5NH3CH3NC3H2C4H6CH5C2H9CNC12H8CH5CSH8CH6FeH3CH3CHNH4C2HCHCHFeS3FeS2FeS2FeSFeS3FeS2FeS2FeSFeS3FeSHCSHCH2CHC6H4C2H3CH2CNC6H5C3H2C2H2C6H4CH13CH5CH2CH6CH2CHCH6CH3NC4HC2H3CH2CH4CH3C3H3CH9C4HC2NH4C2H4C2HCFeH3CNC2H2CH7C2H2CH2C2H8CH4CH10CHCHNC12H11CHCH2C2H5C2H4NC2H6CH2CH2C2H2CH2C2H3CHCH2CHCHCH4CH2SH2CH3CHFeS2HFeS2FeS2FeSFeS3FeS2FeS2FeSFeS4CFeSH2C6H2C3H2C6H4C6H4CH5C3HC6H4CH4NC10H24CSC2H2CH4CH2CH2CH4CHC2NCHCH3C2H3CH3CHC2HNHC4HC4HCH20CH2CHCFeH3CHSFeCHCNCNH3CH3CH9C2HFeH5CH5CH3CH4CHC2H5CNH4NC3HSCHCHSC2H2CH3CH4C3H4CH4CH2CSCHSHCH2C2H4C3HFeHC2H2CHCH4CH5C2H2S2FeSCHFeS2FeS2FeSFeS4CHCFeSFeS2FeS2FeSFeS3HC2H3CH3C6H4CHC8H4C3H6C7H5C2H2C3H13CH3NH6CHCHCH3NC2HCH2C4HCH4CH17NCH4C2NC5HC3HCH21CH3C2HCH4SHCH2NC2HC3HC5H4CH2CH4CH5CH2CH2CHCH2CHC3HCH4C2H2CH9C2HCHCH3C2H7CH4C2HCH4CH3CH2CHCHSHCHFeSFeS2FeS2FeSFeS3NHFeSHSFeS2FeS2FeSFeS3HCHCHC3H2C6H6CH4C6H4C3H7C6H5CH2CH8C3H2CH3CH10CH2C2H2CH2CH4C2HNC3H3CHCH2CH5CH6CH2CHCHC2H3CH3CNHNC7H12C5H2SCH5CH4NCH10CHCHCHC3H2CHCH2CH4CH3C2H3C2H6CH4C2H2CH2C4HCH5CH2C2HCSH3CH2CHFeSHSFeSFeS2HFeS2FeS2FeSFeS3FeS2FeS2FeSFeS3C3H2CHCH2C6H4CHCH2C2H2C7H6C2H2C6H6CH2NC4HCHC2HC2H12CSH2CH8CH2CH3CH4CHCHNCH8NHC2HNCHC2H2C2HCHCHCH11SHCHC2H2CH5NC12H28CHCH3CFeH3SCHCH2CHC2H9CH2C2FeCHCHCH7C2H5CH3C2HNC4H2C2HC2H3SHFeHSH2CH3C2HC2HCHCFeS2FeS2FeSFeS3HCFeS2HCSCHFeSFeS2FeS2FeSFeS3C2H4C3HC6H6C2H2C8H4C6H4CH3CHC3HNCHC2HCH4CH4CH2CH5CH4CNCH5CH4C2H3CH8C3H3CH3CHSC2HCHSH5CH2CHCH2CHNC3H3CH3C2H2CH9CH5FeCH3CHCH3C2H11CHCHCSH5C2NC9HC2H18CHCH9CHCH2CHCH2C2H3NCHCHS2H2FeSHSFeSH2FeS2FeS2FeSFeS3FeS2FeS2FeSFeS3C2H4C2H2C6H4C2H2CHCHNC7H5CH3C6H6CHCH2CHCH8CH2CH2CHCH2CHC2HC2NH2CH3C2H15CHC3HCH3CHCH3SCH4FeH15CH2CNHC4HC6HCH8C2H18CH4CHC4HC2H2CHSNHC3H2C4HC3H4CHNH2CH2CH2CHCHCHC2HCHNCH2CH3FeH2C2HCH2FeS2FeS2FeSFeS4H3FeSFeS2FeS2FeSFeS3FeSCFeSC2H4C6H4C2HCHC4HC2HCSH2C6H4C6H5C2H2CHC2H2CH2CH3CH2CHSH2CH6CH4C2HC2NC3H3C3H15CH4CHCHC2HCHC4HCHCH2CH9NH4CH8C2H3CHNC11H29CH4NH2CH4CH6SCHCHCSHC2H3C2H3C2H5CFeC6H2NHCH3C2HCH4CH2C2NH3CH2CH3CHFeHSCHCH2C2H2FeS2FeS2FeSFeS3FeSHS2CFeS2FeS2FeSFeS3FeSHSCSHC2H2C6H4C3H3C2H5CHC6H4C6H5CH3C4H2CH3CNHNCH4C3HCH2CH4CHCHC3HCHCH2FeH4CH4CH2C2H12C2H2CH5CSH2C2H4CH2C4H3CH6C2H7C2H2CH4C2H4SH3CHC2H5CHCHC2HC2H4CNH7C2FeH2CNH5NC8HCHCH17CH5C2H3NC5H2CH3CSCH3CH3C2H3C2HCH2CHC2H11CS2FeSHCFeS2FeS2FeSFeS3FeS2FeS2FeSFeS3CHFeS2H4C6H4C2H2NC3H2C6H4C3H2C2H3C6H5CHCH2CH5CH3C2H13CH4CH2CH3CHNH2FeHCH2C2H2CH4SCHCH5CHCH3C2H5CH2C2H3C2HCH6CH3CNHCH3CH11CHFeC4H5NH3NHC3HCH3CH10CH5SC2H3C3SH3CHCH5C6HCHCH3CH2CH2C3HCHCHCH2C2H2C3HCHNH2C2HCH4CHCH2NHSC2SFeSFeS2FeS2FeSFeS3HSFeHFeSFeS2FeS2FeSFeS3C2H4C3HC6H8C6H5CH3C2H3C6H4CHC2HSH3C2NCHC2H5C2H2C2FeH2C2H13CH3CNH2CH3CHCH2CH6CNC8H18CHC2H3CH6CHCH5CHC2H4C2HCH2NC3HCHCH6CH4C3HNC6HCHC2H18CH11CHCH2CH2CHCH2CH2CH8NH2C3HCHSC2HCH3CH4CH2CH2SFeSHSFeS2FeS2FeSFeS4C3FeSFeS2FeS2FeSFeS3HC2H3C2H2C6H4CH2C2HC7H4C2H3C2H3C6H6CH2CH9CHCHCHCH2CHSHC2HCH8CHCHCNCH2CH4FeH6C3H5CH2CH3C3H5CSH3CH3CH3CH2NHFeC2H4NC12H32CH4C3H2C2SH6CHCH2CH2CH2C2HC4NC2H4CNCH4C5H12CH2CNCHC2H2C2H4CHCH3CH5CHCH2C2HCH2CH2CH3CH2CHFeS3FeSH2SHFeS2FeS2FeSFeS3FeS2FeS2FeSFeS3C3H2C2H3C6H4C3H2CH4C6H10C6H6CHCNC5H15CH3CHCH2SCHC2H2CHC3H2C2H2SH5C3N2CHC2HC5HC4H6CH14NH3CHNHC2HC2H7CHCHCH6CH15SCH5C2H2CH8C2H6CHCH2CHC2HCHCHCH2CHCH2CH3CH3CNHCH3FeHC5HSH2CHC2FeNH2CH2CH4CHCH7CH2CHC
_chemical_formula_sum              "Fe192 S384 C1728 H3072 N96"
_cell_length_a       65.9877
_cell_length_b       66.1302
_cell_length_c       66.0266
_cell_angle_alpha    87.6219
_cell_angle_beta     87.6597
_cell_angle_gamma    87.5642

_space_group_name_H-M_alt    "P 1"
_space_group_IT_number       1

loop_
  _space_group_symop_operation_xyz
  'x, y, z'

loop_
  _atom_site_type_symbol
  _atom_site_label
  _atom_site_symmetry_multiplicity
  _atom_site_fract_x
  _atom_site_fract_y
  _atom_site_fract_z
  _atom_site_occupancy
  Fe  Fe1       1.0  0.36606  0.08523  0.27596  1.0000
  S   S1        1.0  0.36578  0.08142  0.24188  1.0000
  S   S2        1.0  0.33461  0.08336  0.29257  1.0000
  Fe  Fe2       1.0  0.41284  0.08774  0.27423  1.0000
  S   S3        1.0  0.41482  0.08410  0.24082  1.0000
  S   S4        1.0  0.44213  0.08751  0.29157  1.0000
  Fe  Fe3       1.0  0.38827  0.10647  0.23900  1.0000
  S   S5        1.0  0.39130  0.13628  0.21962  1.0000
  Fe  Fe4       1.0  0.39254  0.05938  0.24668  1.0000
  S   S6        1.0  0.40418  0.02891  0.23451  1.0000
  S   S7        1.0  0.38712  0.11134  0.27282  1.0000
  S   S8        1.0  0.39171  0.06208  0.28043  1.0000
  C   C1        1.0  0.45012  0.09567  0.19708  1.0000
  C   C2        1.0  0.49164  0.05589  0.23340  1.0000
  Fe  Fe5       1.0  0.38642  0.21539  0.11982  1.0000
  S   S9        1.0  0.37843  0.18376  0.13344  1.0000
  H   H1        1.0  0.43404  0.09123  0.19814  1.0000
  S   S10       1.0  0.41683  0.21988  0.10399  1.0000
  Fe  Fe6       1.0  0.26064  0.09773  0.39508  1.0000
  S   S11       1.0  0.23581  0.08183  0.38069  1.0000
  S   S12       1.0  0.29211  0.10287  0.37951  1.0000
  Fe  Fe7       1.0  0.23671  0.09890  0.43705  1.0000
  S   S13       1.0  0.21105  0.08271  0.42457  1.0000
  S   S14       1.0  0.22801  0.10676  0.46991  1.0000
  Fe  Fe8       1.0  0.23470  0.06229  0.40956  1.0000
  S   S15       1.0  0.23984  0.02845  0.41682  1.0000
  Fe  Fe9       1.0  0.21429  0.10411  0.39723  1.0000
  S   S16       1.0  0.18521  0.11932  0.38415  1.0000
  S   S17       1.0  0.26025  0.07751  0.42348  1.0000
  S   S18       1.0  0.23924  0.12114  0.41010  1.0000
  H   H2        1.0  0.02891  0.22777  0.32018  1.0000
  S   S19       1.0  0.08620  0.22165  0.42619  1.0000
  Fe  Fe10      1.0  0.10942  0.22315  0.40010  1.0000
  S   S20       1.0  0.14080  0.20622  0.39945  1.0000
  H   H3        1.0  0.46938  0.05765  0.19596  1.0000
  S   S21       1.0  0.03299  0.21090  0.40222  1.0000
  C   C3        1.0  0.00856  0.22322  0.40351  1.0000
  C   C4        1.0  0.45743  0.04821  0.24620  1.0000
  H   H4        1.0  0.34874  0.15659  0.31994  1.0000
  S   S22       1.0  0.36978  0.22797  0.09238  1.0000
  H   H5        1.0  0.44194  0.04433  0.24214  1.0000
  C   C5        1.0  0.17287  0.14333  0.38924  1.0000
  C   C6        1.0  0.18349  0.15964  0.39560  1.0000
  C   C7        1.0  0.17336  0.17858  0.39879  1.0000
  C   C8        1.0  0.15242  0.18160  0.39572  1.0000
  C   C9        1.0  0.14171  0.16523  0.38951  1.0000
  C   C10       1.0  0.15192  0.14632  0.38613  1.0000
  H   H6        1.0  0.19967  0.15782  0.39745  1.0000
  H   H7        1.0  0.18189  0.19107  0.40348  1.0000
  H   H8        1.0  0.12564  0.16720  0.38702  1.0000
  H   H9        1.0  0.14353  0.13391  0.38102  1.0000
  C   C11       1.0  0.23312  0.00572  0.40591  1.0000
  C   C12       1.0  0.14026  0.23209  0.34940  1.0000
  C   C13       1.0  0.22141  0.00552  0.38874  1.0000
  H   H10       1.0  0.06135  0.22124  0.33767  1.0000
  H   H11       1.0  0.21564  0.01964  0.38191  1.0000
  H   H12       1.0  0.30285  0.10469  0.27093  1.0000
  C   C14       1.0  0.48118  0.12845  0.33340  1.0000
  N   N1        1.0  0.15748  0.12636  0.45600  1.0000
  H   H13       1.0  0.14354  0.18907  0.35108  1.0000
  H   H14       1.0  0.01542  0.21505  0.34106  1.0000
  C   C15       1.0  0.40029  0.22855  0.02303  1.0000
  C   C16       1.0  0.37963  0.22472  0.02305  1.0000
  H   H15       1.0  0.15113  0.22387  0.35962  1.0000
  C   C17       1.0  0.32322  0.08886  0.31692  1.0000
  C   C18       1.0  0.30221  0.08640  0.32035  1.0000
  C   C19       1.0  0.29245  0.09042  0.33935  1.0000
  C   C20       1.0  0.30355  0.09710  0.35524  1.0000
  C   C21       1.0  0.32455  0.09954  0.35179  1.0000
  C   C22       1.0  0.33434  0.09536  0.33286  1.0000
  H   H16       1.0  0.29338  0.08134  0.30822  1.0000
  H   H17       1.0  0.27629  0.08857  0.34164  1.0000
  H   H18       1.0  0.33335  0.10468  0.36391  1.0000
  H   H19       1.0  0.35050  0.09722  0.33063  1.0000
  C   C23       1.0  0.38845  0.14864  0.19508  1.0000
  C   C24       1.0  0.37860  0.13993  0.17940  1.0000
  C   C25       1.0  0.37579  0.15086  0.16074  1.0000
  C   C26       1.0  0.38276  0.17064  0.15735  1.0000
  C   C27       1.0  0.39287  0.17923  0.17292  1.0000
  C   C28       1.0  0.39566  0.16832  0.19158  1.0000
  H   H20       1.0  0.37287  0.12490  0.18174  1.0000
  H   H21       1.0  0.36796  0.14398  0.14888  1.0000
  H   H22       1.0  0.39837  0.19437  0.17067  1.0000
  H   H23       1.0  0.40325  0.17532  0.20353  1.0000
  C   C29       1.0  0.39341  0.00462  0.23613  1.0000
  H   H24       1.0  0.44362  0.11525  0.02448  1.0000
  H   H25       1.0  0.31113  0.23924  0.05425  1.0000
  C   C30       1.0  0.47532  0.02676  0.22030  1.0000
  H   H26       1.0  0.36306  0.01520  0.22939  1.0000
  C   C31       1.0  0.03591  0.23856  0.45788  1.0000
  C   C32       1.0  0.46615  0.09269  0.27991  1.0000
  H   H27       1.0  0.43898  0.04526  0.28467  1.0000
  H   H28       1.0  0.12443  0.17604  0.42966  1.0000
  H   H29       1.0  0.45441  0.11319  0.25670  1.0000
  H   H30       1.0  0.35165  0.14964  0.24964  1.0000
  H   H31       1.0  0.34430  0.14260  0.21653  1.0000
  H   H32       1.0  0.01617  0.21989  0.48995  1.0000
  H   H33       1.0  0.32062  0.15665  0.21638  1.0000
  H   H34       1.0  0.47574  0.04194  0.27291  1.0000
  H   H35       1.0  0.48266  0.07368  0.30144  1.0000
  H   H36       1.0  0.45421  0.22195  0.15782  1.0000
  H   H37       1.0  0.14133  0.09845  0.45775  1.0000
  C   C33       1.0  0.34653  0.17499  0.21402  1.0000
  H   H38       1.0  0.45663  0.09258  0.18169  1.0000
  H   H39       1.0  0.31614  0.01152  0.27538  1.0000
  C   C34       1.0  0.28870  0.15948  0.24189  1.0000
  H   H40       1.0  0.47981  0.18974  0.35312  1.0000
  H   H41       1.0  0.17337  0.09927  0.48756  1.0000
  H   H42       1.0  0.32376  0.16402  0.29341  1.0000
  H   H43       1.0  0.44593  0.05712  0.20972  1.0000
  C   C35       1.0  0.15507  0.12705  0.47882  1.0000
  C   C36       1.0  0.48128  0.13779  0.31146  1.0000
  H   H44       1.0  0.13552  0.07501  0.43003  1.0000
  C   C37       1.0  0.33593  0.15619  0.22254  1.0000
  C   C38       1.0  0.13289  0.21645  0.33463  1.0000
  C   C39       1.0  0.34296  0.14417  0.31124  1.0000
  H   H45       1.0  0.24900  0.01707  0.35649  1.0000
  H   H46       1.0  0.33402  0.17061  0.25169  1.0000
  C   C40       1.0  0.15550  0.10055  0.42755  1.0000
  H   H47       1.0  0.34223  0.12434  0.27571  1.0000
  H   H48       1.0  0.14004  0.12115  0.48393  1.0000
  H   H49       1.0  0.35530  0.13235  0.30939  1.0000
  H   H50       1.0  0.29064  0.07823  0.24999  1.0000
  H   H51       1.0  0.26703  0.17942  0.25816  1.0000
  H   H52       1.0  0.33000  0.13756  0.32012  1.0000
  H   H53       1.0  0.20908  0.17445  0.45061  1.0000
  H   H54       1.0  0.16829  0.09482  0.45641  1.0000
  H   H55       1.0  0.10406  0.16092  0.44017  1.0000
  C   C41       1.0  0.46211  0.06095  0.21104  1.0000
  C   C42       1.0  0.46795  0.10639  0.26331  1.0000
  H   H56       1.0  0.29051  0.14354  0.27130  1.0000
  H   H57       1.0  0.20911  0.15603  0.43127  1.0000
  H   H58       1.0  0.46784  0.14784  0.27404  1.0000
  H   H59       1.0  0.48557  0.16344  0.24353  1.0000
  C   C43       1.0  0.32898  0.13520  0.27764  1.0000
  H   H60       1.0  0.02604  0.24064  0.36489  1.0000
  C   C44       1.0  0.14069  0.13899  0.44590  1.0000
  H   H61       1.0  0.27002  0.09392  0.47894  1.0000
  C   C45       1.0  0.46386  0.20799  0.16054  1.0000
  H   H62       1.0  0.16236  0.06806  0.43125  1.0000
  H   H63       1.0  0.37131  0.22233  0.03732  1.0000
  C   C46       1.0  0.46394  0.03448  0.26466  1.0000
  C   C47       1.0  0.17808  0.13301  0.44830  1.0000
  C   C48       1.0  0.33582  0.15494  0.24611  1.0000
  H   H64       1.0  0.23559  0.16574  0.48717  1.0000
  C   C49       1.0  0.32728  0.24340  0.05344  1.0000
  C   C50       1.0  0.30305  0.08789  0.24397  1.0000
  H   H65       1.0  0.21595  0.14829  0.45659  1.0000
  C   C51       1.0  0.37305  0.00205  0.23207  1.0000
  H   H66       1.0  0.14572  0.14395  0.43021  1.0000
  H   H67       1.0  0.45846  0.19604  0.15099  1.0000
  C   C52       1.0  0.18352  0.15474  0.45327  1.0000
  H   H68       1.0  0.45116  0.02167  0.29297  1.0000
  H   H69       1.0  0.35391  0.22027  0.00471  1.0000
  C   C53       1.0  0.30170  0.10809  0.25448  1.0000
  C   C54       1.0  0.28509  0.00263  0.37214  1.0000
  C   C55       1.0  0.47772  0.18293  0.32121  1.0000
  H   H70       1.0  0.45538  0.06378  0.25185  1.0000
  H   H71       1.0  0.14412  0.16819  0.46062  1.0000
  C   C56       1.0  0.36356  0.18111  0.05773  1.0000
  H   H72       1.0  0.28776  0.14706  0.23126  1.0000
  C   C57       1.0  0.15097  0.07854  0.42396  1.0000
  H   H73       1.0  0.35354  0.19427  0.06211  1.0000
  H   H74       1.0  0.34019  0.02091  0.26620  1.0000
  H   H75       1.0  0.33318  0.11358  0.24518  1.0000
  H   H76       1.0  0.37796  0.17981  0.08616  1.0000
  H   H77       1.0  0.33583  0.23307  0.04303  1.0000
  H   H78       1.0  0.27937  0.02288  0.33534  1.0000
  H   H79       1.0  0.31297  0.00858  0.34355  1.0000
  H   H80       1.0  0.16929  0.23330  0.31919  1.0000
  Fe  Fe11      1.0  0.06248  0.22763  0.40267  1.0000
  H   H81       1.0  0.46417  0.20751  0.33864  1.0000
  N   N2        1.0  0.29221  0.02327  0.36507  1.0000
  C   C58       1.0  0.31294  0.02081  0.35468  1.0000
  H   H82       1.0  0.48352  0.02722  0.20521  1.0000
  C   C59       1.0  0.27778  0.03177  0.34935  1.0000
  C   C60       1.0  0.29176  0.03752  0.38247  1.0000
  C   C61       1.0  0.31127  0.03794  0.39482  1.0000
  C   C62       1.0  0.32075  0.03997  0.34297  1.0000
  C   C63       1.0  0.25494  0.03255  0.35593  1.0000
  H   H83       1.0  0.26970  0.00389  0.37965  1.0000
  H   H84       1.0  0.47826  0.19687  0.05184  1.0000
  C   C64       1.0  0.30770  0.05055  0.41359  1.0000
  C   C65       1.0  0.34350  0.03784  0.33775  1.0000
  C   C66       1.0  0.24236  0.04530  0.34080  1.0000
  H   H85       1.0  0.18657  0.12248  0.48831  1.0000
  H   H86       1.0  0.32460  0.01570  0.36557  1.0000
  C   C67       1.0  0.33611  0.15249  0.29058  1.0000
  H   H87       1.0  0.30158  0.09030  0.22733  1.0000
  H   H88       1.0  0.11820  0.19798  0.35871  1.0000
  H   H89       1.0  0.28162  0.04756  0.34461  1.0000
  H   H90       1.0  0.28861  0.05351  0.37702  1.0000
  H   H91       1.0  0.27885  0.03413  0.39333  1.0000
  H   H92       1.0  0.32370  0.04491  0.38550  1.0000
  H   H93       1.0  0.33756  0.18895  0.21801  1.0000
  H   H94       1.0  0.31286  0.04237  0.32845  1.0000
  H   H95       1.0  0.31786  0.05367  0.35194  1.0000
  H   H96       1.0  0.25244  0.03905  0.37110  1.0000
  H   H97       1.0  0.15484  0.14281  0.48391  1.0000
  H   H98       1.0  0.11066  0.18355  0.45231  1.0000
  C   C68       1.0  0.12907  0.19608  0.34558  1.0000
  C   C69       1.0  0.04773  0.21249  0.34204  1.0000
  H   H99       1.0  0.19020  0.12218  0.45377  1.0000
  H   H100      1.0  0.36735  0.18273  0.04120  1.0000
  H   H101      1.0  0.30342  0.06648  0.40907  1.0000
  H   H102      1.0  0.29550  0.04416  0.42372  1.0000
  H   H103      1.0  0.32183  0.05052  0.42216  1.0000
  H   H104      1.0  0.34833  0.05127  0.32839  1.0000
  H   H105      1.0  0.35225  0.03697  0.35180  1.0000
  H   H106      1.0  0.04981  0.24175  0.44845  1.0000
  H   H107      1.0  0.22610  0.04543  0.34593  1.0000
  H   H108      1.0  0.24729  0.06118  0.33980  1.0000
  Fe  Fe12      1.0  0.40019  0.23471  0.07784  1.0000
  H   H109      1.0  0.46024  0.17406  0.24793  1.0000
  C   C70       1.0  0.41102  0.23141  0.00435  1.0000
  H   H110      1.0  0.12721  0.12972  0.44403  1.0000
  H   H111      1.0  0.45035  0.11222  0.19935  1.0000
  H   H112      1.0  0.18118  0.15756  0.46963  1.0000
  H   H113      1.0  0.31475  0.12557  0.22983  1.0000
  H   H114      1.0  0.29616  0.17247  0.23395  1.0000
  H   H115      1.0  0.46323  0.10852  0.35326  1.0000
  H   H116      1.0  0.47570  0.19202  0.30689  1.0000
  N   N3        1.0  0.47169  0.04794  0.22775  1.0000
  H   H117      1.0  0.09363  0.23250  0.46994  1.0000
  C   C71       1.0  0.24074  0.10132  0.49282  1.0000
  C   C72       1.0  0.11687  0.17030  0.44392  1.0000
  H   H118      1.0  0.47984  0.14044  0.34469  1.0000
  H   H119      1.0  0.34920  0.16011  0.28297  1.0000
  C   C73       1.0  0.26699  0.16666  0.24772  1.0000
  H   H120      1.0  0.23912  0.03418  0.46825  1.0000
  H   H121      1.0  0.17947  0.13243  0.43150  1.0000
  H   H122      1.0  0.03052  0.22362  0.45380  1.0000
  H   H123      1.0  0.31757  0.12696  0.28729  1.0000
  H   H124      1.0  0.25849  0.15406  0.25518  1.0000
  C   C74       1.0  0.44596  0.03073  0.27949  1.0000
  C   C75       1.0  0.25157  0.04333  0.47335  1.0000
  H   H125      1.0  0.44861  0.12332  0.33506  1.0000
  C   C76       1.0  0.15550  0.10455  0.45054  1.0000
  H   H126      1.0  0.34811  0.17455  0.19722  1.0000
  H   H127      1.0  0.28640  0.11516  0.25196  1.0000
  H   H128      1.0  0.48932  0.07106  0.24006  1.0000
  C   C77       1.0  0.38284  0.18062  0.06986  1.0000
  H   H129      1.0  0.34708  0.02410  0.32895  1.0000
  H   H130      1.0  0.14420  0.11038  0.41941  1.0000
  C   C78       1.0  0.20575  0.15856  0.44758  1.0000
  H   H131      1.0  0.30267  0.16680  0.26905  1.0000
  H   H132      1.0  0.46600  0.14502  0.30941  1.0000
  S   S23       1.0  0.41352  0.22934  0.04585  1.0000
  H   H133      1.0  0.33327  0.24136  0.06890  1.0000
  H   H134      1.0  0.26438  0.04221  0.46194  1.0000
  C   C79       1.0  0.13203  0.15803  0.45688  1.0000
  C   C80       1.0  0.30056  0.15273  0.26090  1.0000
  H   H135      1.0  0.24387  0.03883  0.32553  1.0000
  H   H136      1.0  0.15176  0.07606  0.40739  1.0000
  N   N4        1.0  0.41834  0.16222  0.07245  1.0000
  C   C81       1.0  0.42881  0.14214  0.06772  1.0000
  C   C82       1.0  0.41628  0.16389  0.09521  1.0000
  C   C83       1.0  0.39711  0.16215  0.06460  1.0000
  C   C84       1.0  0.42908  0.18009  0.06262  1.0000
  C   C85       1.0  0.45260  0.17815  0.05983  1.0000
  C   C86       1.0  0.42874  0.13637  0.04516  1.0000
  H   H137      1.0  0.38934  0.14827  0.07034  1.0000
  C   C87       1.0  0.43619  0.16373  0.10685  1.0000
  C   C88       1.0  0.43182  0.16377  0.12977  1.0000
  C   C89       1.0  0.46153  0.19868  0.05409  1.0000
  C   C90       1.0  0.44457  0.11948  0.04052  1.0000
  H   H138      1.0  0.46440  0.10185  0.32709  1.0000
  H   H139      1.0  0.42151  0.12967  0.07686  1.0000
  H   H140      1.0  0.44476  0.14149  0.07241  1.0000
  H   H141      1.0  0.40805  0.17824  0.09919  1.0000
  H   H142      1.0  0.40677  0.15158  0.10198  1.0000
  N   N5        1.0  0.32064  0.14148  0.25719  1.0000
  H   H143      1.0  0.39773  0.16165  0.04775  1.0000
  H   H144      1.0  0.42340  0.18388  0.04718  1.0000
  H   H145      1.0  0.42523  0.19387  0.07125  1.0000
  H   H146      1.0  0.45699  0.16779  0.04746  1.0000
  H   H147      1.0  0.46000  0.17206  0.07363  1.0000
  H   H148      1.0  0.41364  0.13079  0.04176  1.0000
  H   H149      1.0  0.43175  0.14958  0.03472  1.0000
  H   H150      1.0  0.39047  0.19506  0.06651  1.0000
  H   H151      1.0  0.35515  0.16706  0.06092  1.0000
  H   H152      1.0  0.44605  0.15015  0.10374  1.0000
  H   H153      1.0  0.44452  0.17763  0.10274  1.0000
  H   H154      1.0  0.42250  0.15080  0.13498  1.0000
  H   H155      1.0  0.44630  0.16257  0.13781  1.0000
  H   H156      1.0  0.42364  0.17812  0.13399  1.0000
  H   H157      1.0  0.45813  0.20951  0.06635  1.0000
  C   C91       1.0  0.33251  0.01186  0.27859  1.0000
  H   H158      1.0  0.45510  0.20511  0.03980  1.0000
  H   H159      1.0  0.36192  0.17559  0.22014  1.0000
  H   H160      1.0  0.44180  0.10584  0.05049  1.0000
  H   H161      1.0  0.46429  0.17366  0.32451  1.0000
  H   H162      1.0  0.45617  0.08857  0.22831  1.0000
  H   H163      1.0  0.25901  0.17197  0.23387  1.0000
  H   H164      1.0  0.31775  0.07973  0.24700  1.0000
  C   C92       1.0  0.36984  0.22355  0.00455  1.0000
  H   H165      1.0  0.14404  0.21360  0.32199  1.0000
  H   H166      1.0  0.24617  0.05945  0.47384  1.0000
  H   H167      1.0  0.29558  0.99704  0.40293  1.0000
  H   H168      1.0  0.17069  0.10322  0.42061  1.0000
  H   H169      1.0  0.04771  0.20847  0.35854  1.0000
  C   C93       1.0  0.48391  0.08423  0.28851  1.0000
  S   S24       1.0  0.08555  0.22615  0.37657  1.0000
  H   H170      1.0  0.43423  0.02227  0.27215  1.0000
  H   H171      1.0  0.17416  0.16591  0.44432  1.0000
  C   C94       1.0  0.31838  0.12234  0.24589  1.0000
  H   H172      1.0  0.12264  0.18563  0.33502  1.0000
  H   H173      1.0  0.33427  0.01948  0.29306  1.0000
  C   C95       1.0  0.47841  0.19792  0.33817  1.0000
  H   H174      1.0  0.48666  0.21721  0.13870  1.0000
  C   C96       1.0  0.46324  0.11475  0.33738  1.0000
  H   H175      1.0  0.12374  0.15339  0.47120  1.0000
  C   C97       1.0  0.46247  0.08421  0.21330  1.0000
  H   H176      1.0  0.26383  0.01943  0.49256  1.0000
  H   H177      1.0  0.31670  0.02262  0.39994  1.0000
  C   C98       1.0  0.17169  0.11546  0.49122  1.0000
  H   H178      1.0  0.44820  0.01176  0.23290  1.0000
  H   H179      1.0  0.46011  0.12462  0.04273  1.0000
  H   H180      1.0  0.04862  0.19823  0.33368  1.0000
  C   C99       1.0  0.02837  0.22475  0.33683  1.0000
  H   H181      1.0  0.47819  0.08955  0.21170  1.0000
  H   H182      1.0  0.47019  0.01946  0.26020  1.0000
  H   H183      1.0  0.46199  0.20319  0.17680  1.0000
  H   H184      1.0  0.48220  0.12505  0.30092  1.0000
  H   H185      1.0  0.46449  0.17208  0.28491  1.0000
  H   H186      1.0  0.05264  0.22630  0.48295  1.0000
  H   H187      1.0  0.11840  0.22207  0.32799  1.0000
  C   C100      1.0  0.47483  0.16270  0.27524  1.0000
  H   H188      1.0  0.49140  0.20798  0.33548  1.0000
  C   C101      1.0  0.48601  0.21235  0.15496  1.0000
  H   H189      1.0  0.48842  0.12349  0.24366  1.0000
  H   H190      1.0  0.21971  0.14472  0.49340  1.0000
  C   C102      1.0  0.47574  0.17272  0.25395  1.0000
  C   C103      1.0  0.26140  0.09575  0.49309  1.0000
  H   H191      1.0  0.49334  0.18021  0.15287  1.0000
  H   H192      1.0  0.49393  0.22262  0.01148  1.0000
  H   H193      1.0  0.49009  0.22504  0.16423  1.0000
  C   C104      1.0  0.48726  0.11226  0.25600  1.0000
  H   H194      1.0  0.42704  0.23425  0.00418  1.0000
  C   C105      1.0  0.09269  0.24243  0.48257  1.0000
  H   H195      1.0  0.48174  0.18813  0.25434  1.0000
  H   H196      1.0  0.48568  0.01764  0.23030  1.0000
  C   C106      1.0  0.04084  0.23846  0.48032  1.0000
  H   H197      1.0  0.12688  0.23643  0.35937  1.0000
  H   H198      1.0  0.17930  0.23579  0.34313  1.0000
  H   H199      1.0  0.20558  0.24039  0.30677  1.0000
  H   H200      1.0  0.44521  0.02305  0.20788  1.0000
  C   C107      1.0  0.45600  0.01465  0.21795  1.0000
  H   H201      1.0  0.46849  0.99598  0.19357  1.0000
  C   C108      1.0  0.46121  0.99406  0.20896  1.0000
  S   S25       1.0  0.40608  0.21736  0.91375  1.0000
  H   H202      1.0  0.12919  0.16987  0.66008  1.0000
  C   C109      1.0  0.18971  0.12910  0.56648  1.0000
  S   S26       1.0  0.36766  0.22453  0.96289  1.0000
  Fe  Fe13      1.0  0.38938  0.22744  0.88577  1.0000
  S   S27       1.0  0.38961  0.21032  0.85559  1.0000
  Fe  Fe14      1.0  0.25910  0.09425  0.58535  1.0000
  S   S28       1.0  0.22565  0.09330  0.59251  1.0000
  S   S29       1.0  0.27330  0.09320  0.55326  1.0000
  Fe  Fe15      1.0  0.27012  0.09288  0.63109  1.0000
  S   S30       1.0  0.23692  0.09189  0.64089  1.0000
  S   S31       1.0  0.29635  0.08582  0.65302  1.0000
  Fe  Fe16      1.0  0.23449  0.06934  0.61628  1.0000
  S   S32       1.0  0.21800  0.03972  0.62120  1.0000
  Fe  Fe17      1.0  0.23095  0.11602  0.61619  1.0000
  S   S33       1.0  0.21426  0.14736  0.61881  1.0000
  S   S34       1.0  0.26759  0.06907  0.60776  1.0000
  S   S35       1.0  0.26449  0.11820  0.60764  1.0000
  H   H203      1.0  0.46098  0.02188  0.78497  1.0000
  S   S36       1.0  0.08141  0.21443  0.59382  1.0000
  H   H204      1.0  0.48064  0.20294  0.99032  1.0000
  S   S37       1.0  0.02936  0.22397  0.62410  1.0000
  Fe  Fe18      1.0  0.10660  0.21865  0.61483  1.0000
  S   S38       1.0  0.12423  0.18838  0.62184  1.0000
  Fe  Fe19      1.0  0.39435  0.10957  0.78270  1.0000
  S   S39       1.0  0.39757  0.12893  0.75416  1.0000
  S   S40       1.0  0.39172  0.12293  0.81475  1.0000
  Fe  Fe20      1.0  0.39857  0.06987  0.75854  1.0000
  S   S41       1.0  0.40215  0.08776  0.72887  1.0000
  S   S42       1.0  0.40365  0.03652  0.75076  1.0000
  Fe  Fe21      1.0  0.42294  0.10687  0.74528  1.0000
  S   S43       1.0  0.45223  0.11912  0.73113  1.0000
  Fe  Fe22      1.0  0.37634  0.10784  0.74020  1.0000
  S   S44       1.0  0.35092  0.12216  0.72062  1.0000
  S   S45       1.0  0.42093  0.08824  0.77434  1.0000
  S   S46       1.0  0.37151  0.08932  0.76936  1.0000
  C   C110      1.0  0.47590  0.10656  0.73607  1.0000
  C   C111      1.0  0.47699  0.08820  0.74735  1.0000
  H   H205      1.0  0.26446  0.99585  0.58015  1.0000
  H   H206      1.0  0.46319  0.08125  0.75291  1.0000
  C   C112      1.0  0.40116  0.23066  0.98586  1.0000
  H   H207      1.0  0.21386  0.10791  0.51136  1.0000
  C   C113      1.0  0.39509  0.01214  0.75858  1.0000
  C   C114      1.0  0.38507  0.00817  0.77733  1.0000
  C   C115      1.0  0.39752  0.13310  0.68793  1.0000
  H   H208      1.0  0.38178  0.02038  0.78751  1.0000
  C   C116      1.0  0.14673  0.20127  0.67164  1.0000
  C   C117      1.0  0.41517  0.13501  0.65440  1.0000
  H   H209      1.0  0.25206  0.99850  0.54546  1.0000
  H   H210      1.0  0.44662  0.12077  0.80186  1.0000
  H   H211      1.0  0.47849  0.19211  0.83413  1.0000
  C   C118      1.0  0.18897  0.15824  0.61857  1.0000
  C   C119      1.0  0.17176  0.14656  0.62029  1.0000
  C   C120      1.0  0.15213  0.15606  0.62068  1.0000
  C   C121      1.0  0.14934  0.17731  0.61895  1.0000
  C   C122      1.0  0.16656  0.18896  0.61674  1.0000
  C   C123      1.0  0.18618  0.17950  0.61686  1.0000
  H   H212      1.0  0.17356  0.13024  0.62181  1.0000
  H   H213      1.0  0.13897  0.14684  0.62257  1.0000
  H   H214      1.0  0.16479  0.20530  0.61555  1.0000
  H   H215      1.0  0.19934  0.18876  0.61567  1.0000
  C   C124      1.0  0.31081  0.09630  0.67222  1.0000
  C   C125      1.0  0.30911  0.11678  0.67699  1.0000
  C   C126      1.0  0.32134  0.12431  0.69189  1.0000
  C   C127      1.0  0.33544  0.11157  0.70235  1.0000
  C   C128      1.0  0.33698  0.09107  0.69776  1.0000
  C   C129      1.0  0.32482  0.08356  0.68281  1.0000
  H   H216      1.0  0.29849  0.12683  0.66905  1.0000
  H   H217      1.0  0.31992  0.14019  0.69525  1.0000
  H   H218      1.0  0.34767  0.08098  0.70559  1.0000
  H   H219      1.0  0.32633  0.06771  0.67934  1.0000
  H   H220      1.0  0.40244  0.14638  0.65198  1.0000
  C   C130      1.0  0.22695  0.01644  0.61085  1.0000
  C   C131      1.0  0.24444  0.01520  0.59818  1.0000
  H   H221      1.0  0.15148  0.21764  0.70836  1.0000
  H   H222      1.0  0.25297  0.02859  0.59477  1.0000
  C   C132      1.0  0.27111  0.09319  0.51173  1.0000
  C   C133      1.0  0.26026  0.09602  0.53026  1.0000
  C   C134      1.0  0.23947  0.10097  0.53002  1.0000
  H   H223      1.0  0.28719  0.08927  0.51177  1.0000
  H   H224      1.0  0.23095  0.10296  0.54417  1.0000
  C   C135      1.0  0.39038  0.18577  0.84465  1.0000
  C   C136      1.0  0.39110  0.18453  0.82332  1.0000
  C   C137      1.0  0.39163  0.16562  0.81389  1.0000
  C   C138      1.0  0.39140  0.14747  0.82564  1.0000
  C   C139      1.0  0.39077  0.14871  0.84695  1.0000
  C   C140      1.0  0.39034  0.16762  0.85637  1.0000
  H   H225      1.0  0.39122  0.19837  0.81399  1.0000
  H   H226      1.0  0.39228  0.16512  0.79753  1.0000
  H   H227      1.0  0.39060  0.13489  0.85630  1.0000
  H   H228      1.0  0.38980  0.16813  0.87274  1.0000
  C   C141      1.0  0.18827  0.14697  0.67780  1.0000
  C   C142      1.0  0.44557  0.10128  0.67086  1.0000
  C   C143      1.0  0.26778  0.01603  0.64859  1.0000
  H   H229      1.0  0.11778  0.20031  0.70417  1.0000
  H   H230      1.0  0.26133  0.18950  0.57566  1.0000
  H   H231      1.0  0.16095  0.11639  0.55937  1.0000
  H   H232      1.0  0.15960  0.19551  0.72330  1.0000
  H   H233      1.0  0.00442  0.23453  0.54383  1.0000
  H   H234      1.0  0.42316  0.23524  0.83215  1.0000
  H   H235      1.0  0.47126  0.10655  0.68952  1.0000
  H   H236      1.0  0.25953  0.03699  0.55814  1.0000
  H   H237      1.0  0.16063  0.21576  0.54426  1.0000
  C   C144      1.0  0.25090  0.99660  0.58990  1.0000
  C   C145      1.0  0.26207  0.03774  0.54132  1.0000
  N   N6        1.0  0.41065  0.12132  0.67282  1.0000
  C   C146      1.0  0.39924  0.10293  0.66791  1.0000
  C   C147      1.0  0.42997  0.11453  0.68310  1.0000
  C   C148      1.0  0.37738  0.10740  0.66056  1.0000
  C   C149      1.0  0.24970  0.00526  0.52994  1.0000
  H   H238      1.0  0.09906  0.19244  0.67685  1.0000
  H   H239      1.0  0.15640  0.15917  0.70221  1.0000
  H   H240      1.0  0.39791  0.09248  0.68157  1.0000
  H   H241      1.0  0.40765  0.09385  0.65635  1.0000
  S   S47       1.0  0.08528  0.23580  0.63660  1.0000
  C   C150      1.0  0.45046  0.02029  0.77248  1.0000
  H   H242      1.0  0.18795  0.04673  0.55655  1.0000
  H   H243      1.0  0.38347  0.13938  0.68080  1.0000
  H   H244      1.0  0.37668  0.12038  0.64941  1.0000
  H   H245      1.0  0.36385  0.08715  0.82153  1.0000
  H   H246      1.0  0.15130  0.19548  0.65653  1.0000
  H   H247      1.0  0.44711  0.17062  0.88168  1.0000
  C   C151      1.0  0.03820  0.21728  0.52273  1.0000
  C   C152      1.0  0.16643  0.11615  0.51396  1.0000
  H   H248      1.0  0.29938  0.05738  0.53717  1.0000
  H   H249      1.0  0.35315  0.09257  0.64653  1.0000
  H   H250      1.0  0.42854  0.14417  0.65706  1.0000
  N   N7        1.0  0.46885  0.20501  0.86289  1.0000
  H   H251      1.0  0.26284  0.02614  0.63572  1.0000
  C   C153      1.0  0.46639  0.19646  0.88437  1.0000
  H   H252      1.0  0.41822  0.14537  0.70911  1.0000
  C   C154      1.0  0.46873  0.18839  0.84783  1.0000
  H   H253      1.0  0.45373  0.15076  0.83778  1.0000
  H   H254      1.0  0.19523  0.13966  0.66418  1.0000
  H   H255      1.0  0.35533  0.10178  0.84306  1.0000
  C   C155      1.0  0.44683  0.18500  0.88979  1.0000
  C   C156      1.0  0.44528  0.17934  0.91248  1.0000
  N   N8        1.0  0.02439  0.23515  0.51677  1.0000
  H   H256      1.0  0.00029  0.20104  0.52625  1.0000
  C   C157      1.0  0.39936  0.99600  0.74564  1.0000
  H   H257      1.0  0.47893  0.18532  0.88795  1.0000
  H   H258      1.0  0.46740  0.20878  0.89523  1.0000
  H   H259      1.0  0.09280  0.14758  0.66929  1.0000
  H   H260      1.0  0.46181  0.22202  0.98260  1.0000
  S   S48       1.0  0.09382  0.23541  0.54394  1.0000
  H   H261      1.0  0.38233  0.15615  0.71942  1.0000
  C   C158      1.0  0.21621  0.99876  0.61533  1.0000
  H   H262      1.0  0.02649  0.21167  0.55435  1.0000
  H   H263      1.0  0.07365  0.16789  0.66950  1.0000
  H   H264      1.0  0.20387  0.04482  0.57829  1.0000
  H   H265      1.0  0.36883  0.07587  0.66210  1.0000
  H   H266      1.0  0.43300  0.19419  0.88593  1.0000
  C   C159      1.0  0.36900  0.08899  0.65102  1.0000
  H   H267      1.0  0.45837  0.16927  0.91698  1.0000
  H   H268      1.0  0.44489  0.19317  0.92150  1.0000
  H   H269      1.0  0.43106  0.17128  0.91603  1.0000
  C   C160      1.0  0.00359  0.23409  0.52713  1.0000
  H   H270      1.0  0.49227  0.22032  0.84489  1.0000
  H   H271      1.0  0.12954  0.20049  0.74698  1.0000
  H   H272      1.0  0.34570  0.07701  0.83994  1.0000
  N   N9        1.0  0.32313  0.13170  0.79625  1.0000
  C   C161      1.0  0.33165  0.15142  0.78817  1.0000
  C   C162      1.0  0.30492  0.13570  0.81051  1.0000
  C   C163      1.0  0.33937  0.12057  0.80837  1.0000
  C   C164      1.0  0.31778  0.11828  0.77944  1.0000
  C   C165      1.0  0.30438  0.12799  0.76269  1.0000
  C   C166      1.0  0.35126  0.14968  0.77451  1.0000
  C   C167      1.0  0.33315  0.10048  0.81951  1.0000
  C   C168      1.0  0.29159  0.15528  0.80641  1.0000
  C   C169      1.0  0.27225  0.15551  0.81998  1.0000
  C   C170      1.0  0.29977  0.11242  0.74718  1.0000
  C   C171      1.0  0.35661  0.17029  0.76487  1.0000
  C   C172      1.0  0.35059  0.09109  0.83176  1.0000
  H   H273      1.0  0.33514  0.16091  0.80107  1.0000
  H   H274      1.0  0.32030  0.16043  0.77927  1.0000
  H   H275      1.0  0.29486  0.12255  0.81130  1.0000
  H   H276      1.0  0.30988  0.13714  0.82634  1.0000
  H   H277      1.0  0.34510  0.13064  0.81985  1.0000
  H   H278      1.0  0.35273  0.11645  0.79842  1.0000
  H   H279      1.0  0.33178  0.11188  0.77171  1.0000
  H   H280      1.0  0.30972  0.10486  0.78578  1.0000
  H   H281      1.0  0.31214  0.14058  0.75436  1.0000
  H   H282      1.0  0.28960  0.13356  0.76919  1.0000
  H   H283      1.0  0.36429  0.14423  0.78362  1.0000
  H   H284      1.0  0.34959  0.13916  0.76211  1.0000
  H   H285      1.0  0.32925  0.08917  0.80850  1.0000
  H   H286      1.0  0.31994  0.10294  0.83018  1.0000
  H   H287      1.0  0.30012  0.16880  0.80982  1.0000
  H   H288      1.0  0.28705  0.15702  0.79050  1.0000
  H   H289      1.0  0.27605  0.15446  0.83625  1.0000
  H   H290      1.0  0.26330  0.16988  0.81712  1.0000
  H   H291      1.0  0.26272  0.14268  0.81667  1.0000
  H   H292      1.0  0.31400  0.10515  0.74087  1.0000
  H   H293      1.0  0.29019  0.10045  0.75428  1.0000
  H   H294      1.0  0.29153  0.11997  0.73442  1.0000
  H   H295      1.0  0.37105  0.16873  0.75573  1.0000
  H   H296      1.0  0.34454  0.17610  0.75465  1.0000
  H   H297      1.0  0.35863  0.18135  0.77677  1.0000
  H   H298      1.0  0.17538  0.17162  0.66006  1.0000
  H   H299      1.0  0.16224  0.12403  0.58524  1.0000
  H   H300      1.0  0.19790  0.12145  0.55376  1.0000
  H   H301      1.0  0.19137  0.19977  0.57554  1.0000
  C   C173      1.0  0.17097  0.11704  0.57241  1.0000
  H   H302      1.0  0.28789  0.02662  0.52156  1.0000
  H   H303      1.0  0.46390  0.20943  0.94774  1.0000
  H   H304      1.0  0.40462  0.11922  0.62829  1.0000
  C   C174      1.0  0.44953  0.16401  0.82770  1.0000
  C   C175      1.0  0.45540  0.00060  0.76161  1.0000
  N   N10       1.0  0.20053  0.16439  0.55194  1.0000
  H   H305      1.0  0.15922  0.15050  0.66458  1.0000
  C   C176      1.0  0.12583  0.17073  0.67665  1.0000
  H   H306      1.0  0.49334  0.12942  0.71999  1.0000
  H   H307      1.0  0.19806  0.14531  0.52616  1.0000
  H   H308      1.0  0.04605  0.18042  0.54366  1.0000
  H   H309      1.0  0.03302  0.20316  0.51634  1.0000
  H   H310      1.0  0.22181  0.14281  0.53775  1.0000
  H   H311      1.0  0.22715  0.03253  0.50447  1.0000
  H   H312      1.0  0.47576  0.17413  0.85446  1.0000
  H   H313      1.0  0.41648  0.15294  0.61548  1.0000
  H   H314      1.0  0.17171  0.18031  0.69617  1.0000
  C   C177      1.0  0.21837  0.16802  0.51580  1.0000
  C   C178      1.0  0.00710  0.22967  0.61043  1.0000
  H   H315      1.0  0.42929  0.13213  0.60279  1.0000
  C   C179      1.0  0.22989  0.15557  0.49975  1.0000
  C   C180      1.0  0.20963  0.15416  0.53334  1.0000
  C   C181      1.0  0.38052  0.22655  0.98584  1.0000
  H   H316      1.0  0.17088  0.15185  0.55049  1.0000
  C   C182      1.0  0.45902  0.12540  0.79097  1.0000
  C   C183      1.0  0.14618  0.20458  0.71793  1.0000
  H   H317      1.0  0.17959  0.18328  0.53450  1.0000
  H   H318      1.0  0.19954  0.12826  0.57974  1.0000
  H   H319      1.0  0.22887  0.17905  0.52120  1.0000
  H   H320      1.0  0.36710  0.11129  0.67364  1.0000
  H   H321      1.0  0.17575  0.10134  0.57726  1.0000
  C   C184      1.0  0.18373  0.15157  0.56096  1.0000
  H   H322      1.0  0.12764  0.15478  0.68270  1.0000
  C   C185      1.0  0.16989  0.16034  0.67167  1.0000
  C   C186      1.0  0.19109  0.18496  0.54618  1.0000
  H   H323      1.0  0.22283  0.15035  0.57180  1.0000
  H   H324      1.0  0.16488  0.13205  0.51874  1.0000
  N   N11       1.0  0.14078  0.18400  0.68606  1.0000
  Fe  Fe23      1.0  0.06108  0.23368  0.61367  1.0000
  H   H325      1.0  0.39220  0.12288  0.70072  1.0000
  C   C187      1.0  0.17208  0.21763  0.55587  1.0000
  H   H326      1.0  0.43847  0.12778  0.68738  1.0000
  H   H327      1.0  0.17740  0.15780  0.57538  1.0000
  H   H328      1.0  0.20250  0.19507  0.53895  1.0000
  C   C188      1.0  0.46307  0.09363  0.68403  1.0000
  H   H329      1.0  0.48001  0.12747  0.81486  1.0000
  C   C189      1.0  0.21626  0.16568  0.56770  1.0000
  H   H330      1.0  0.28217  0.02167  0.65396  1.0000
  H   H331      1.0  0.16746  0.18891  0.57070  1.0000
  H   H332      1.0  0.38128  0.17237  0.69675  1.0000
  H   H333      1.0  0.45734  0.08439  0.69734  1.0000
  C   C190      1.0  0.24802  0.18036  0.58012  1.0000
  H   H334      1.0  0.20911  0.17122  0.58198  1.0000
  C   C191      1.0  0.18052  0.19699  0.56366  1.0000
  H   H335      1.0  0.24417  0.17153  0.54980  1.0000
  C   C192      1.0  0.28401  0.02882  0.53779  1.0000
  H   H336      1.0  0.09799  0.17249  0.69597  1.0000
  H   H337      1.0  0.41590  0.16040  0.68582  1.0000
  C   C193      1.0  0.23462  0.17875  0.56193  1.0000
  H   H338      1.0  0.04966  0.22546  0.55189  1.0000
  H   H339      1.0  0.19663  0.06928  0.56729  1.0000
  H   H340      1.0  0.25362  0.16507  0.58556  1.0000
  C   C194      1.0  0.15975  0.17108  0.69022  1.0000
  H   H341      1.0  0.44590  0.00082  0.74808  1.0000
  H   H342      1.0  0.23938  0.18779  0.59277  1.0000
  H   H343      1.0  0.42623  0.10610  0.69760  1.0000
  C   C195      1.0  0.09414  0.23432  0.50254  1.0000
  C   C196      1.0  0.29957  0.04262  0.54585  1.0000
  H   H344      1.0  0.22981  0.19434  0.55689  1.0000
  H   H345      1.0  0.45236  0.11041  0.65806  1.0000
  H   H346      1.0  0.21270  0.02489  0.53668  1.0000
  H   H347      1.0  0.40705  0.99890  0.73110  1.0000
  C   C197      1.0  0.09002  0.16411  0.66639  1.0000
  H   H348      1.0  0.23875  0.05445  0.51189  1.0000
  C   C198      1.0  0.13221  0.19134  0.70612  1.0000
  H   H349      1.0  0.19992  0.15616  0.68432  1.0000
  H   H350      1.0  0.17861  0.10810  0.52263  1.0000
  H   H351      1.0  0.47160  0.00086  0.75662  1.0000
  H   H352      1.0  0.45705  0.14191  0.78747  1.0000
  H   H353      1.0  0.15199  0.10853  0.51772  1.0000
  C   C199      1.0  0.46983  0.19991  0.96060  1.0000
  C   C200      1.0  0.21984  0.05276  0.54969  1.0000
  C   C201      1.0  0.42724  0.13969  0.61749  1.0000
  C   C202      1.0  0.44780  0.18334  0.83964  1.0000
  H   H354      1.0  0.23205  0.05995  0.55755  1.0000
  H   H355      1.0  0.45771  0.18972  0.96625  1.0000
  H   H356      1.0  0.26413  0.00201  0.52130  1.0000
  H   H357      1.0  0.43599  0.18127  0.85181  1.0000
  C   C203      1.0  0.22982  0.10369  0.51140  1.0000
  H   H358      1.0  0.24310  0.14706  0.50636  1.0000
  H   H359      1.0  0.43720  0.21509  0.85995  1.0000
  N   N12       1.0  0.24513  0.02779  0.53112  1.0000
  H   H360      1.0  0.42983  0.11158  0.63472  1.0000
  H   H361      1.0  0.44220  0.14500  0.62170  1.0000
  H   H362      1.0  0.49320  0.14279  0.78028  1.0000
  H   H363      1.0  0.29624  0.04540  0.56217  1.0000
  H   H364      1.0  0.21628  0.06217  0.53590  1.0000
  H   H365      1.0  0.37825  0.08485  0.63727  1.0000
  C   C204      1.0  0.40748  0.15112  0.69745  1.0000
  C   C205      1.0  0.39155  0.16496  0.70800  1.0000
  H   H366      1.0  0.16053  0.20838  0.67676  1.0000
  H   H367      1.0  0.18446  0.22698  0.54922  1.0000
  H   H368      1.0  0.16450  0.22581  0.56865  1.0000
  H   H369      1.0  0.46104  0.16551  0.81505  1.0000
  H   H370      1.0  0.43468  0.16124  0.82121  1.0000
  H   H371      1.0  0.05373  0.21919  0.51589  1.0000
  C   C206      1.0  0.04114  0.21317  0.54571  1.0000
  H   H372      1.0  0.45759  0.11722  0.77680  1.0000
  C   C207      1.0  0.10282  0.17621  0.67997  1.0000
  H   H373      1.0  0.26203  0.05417  0.53700  1.0000
  H   H374      1.0  0.18367  0.13487  0.68901  1.0000
  H   H375      1.0  0.25586  0.01698  0.66093  1.0000
  H   H376      1.0  0.43868  0.08778  0.66508  1.0000
  H   H377      1.0  0.09363  0.16797  0.65014  1.0000
  H   H378      1.0  0.31502  0.03541  0.54418  1.0000
  H   H379      1.0  0.05538  0.19081  0.56610  1.0000
  C   C208      1.0  0.24139  0.03782  0.51057  1.0000
  H   H380      1.0  0.12813  0.17811  0.71627  1.0000
  C   C209      1.0  0.47569  0.21324  0.97762  1.0000
  C   C210      1.0  0.05367  0.19351  0.54953  1.0000
  H   H381      1.0  0.06907  0.19460  0.54218  1.0000
  C   C211      1.0  0.22596  0.03062  0.54422  1.0000
  C   C212      1.0  0.20090  0.05336  0.56380  1.0000
  H   H382      1.0  0.20580  0.17663  0.50819  1.0000
  H   H383      1.0  0.40960  0.23291  0.97159  1.0000
  C   C213      1.0  0.48913  0.21496  0.86087  1.0000
  H   H384      1.0  0.22727  0.02149  0.55874  1.0000
  C   C214      1.0  0.41899  0.12474  0.63375  1.0000
  H   H385      1.0  0.39917  0.17688  0.71586  1.0000
  Fe  Fe24      1.0  0.38175  0.23418  0.93197  1.0000
  H   H386      1.0  0.46024  0.22458  0.82647  1.0000
  H   H387      1.0  0.28570  0.01388  0.54605  1.0000
  H   H388      1.0  0.47401  0.08405  0.67504  1.0000
  H   H389      1.0  0.43461  0.02065  0.77886  1.0000
  S   S49       1.0  0.45469  0.24307  0.91851  1.0000
  H   H390      1.0  0.44212  0.19573  0.82924  1.0000
  H   H391      1.0  0.45208  0.03344  0.76158  1.0000
  H   H392      1.0  0.09615  0.21811  0.50510  1.0000
  H   H393      1.0  0.20263  0.99956  0.62508  1.0000
  C   C215      1.0  0.45255  0.22138  0.85938  1.0000
  H   H394      1.0  0.27160  0.04455  0.49790  1.0000
  C   C216      1.0  0.25862  0.03545  0.49413  1.0000
  C   C217      1.0  0.27079  0.99427  0.64168  1.0000
  H   H395      1.0  0.48879  0.22883  0.86987  1.0000
  H   H396      1.0  0.11799  0.21239  0.65912  1.0000
  H   H397      1.0  0.48046  0.10345  0.80273  1.0000
  H   H398      1.0  0.23056  0.99862  0.50457  1.0000
  H   H399      1.0  0.45193  0.23219  0.87197  1.0000
  C   C218      1.0  0.47964  0.12015  0.80007  1.0000
  C   C219      1.0  0.45525  0.23419  0.83926  1.0000
  S   S50       1.0  0.36306  0.24176  0.90435  1.0000
  C   C220      1.0  0.49402  0.11526  0.72879  1.0000
  H   H400      1.0  0.28189  0.99462  0.62861  1.0000
  C   C221      1.0  0.13042  0.21830  0.66761  1.0000
  H   H401      1.0  0.12176  0.22297  0.73217  1.0000
  C   C222      1.0  0.49285  0.22747  0.97025  1.0000
  C   C223      1.0  0.13495  0.21301  0.73667  1.0000
  H   H402      1.0  0.14534  0.22213  0.74505  1.0000
  H   H403      1.0  0.48313  0.19052  0.95511  1.0000
  H   H404      1.0  0.48780  0.23500  0.95594  1.0000
  H   H405      1.0  0.14474  0.23008  0.63942  1.0000
  Fe  Fe25      1.0  0.09083  0.24320  0.57748  1.0000
  H   H406      1.0  0.12417  0.22487  0.68182  1.0000
  C   C224      1.0  0.02162  0.23479  0.49415  1.0000
  C   C225      1.0  0.13924  0.23561  0.65442  1.0000
  C   C226      1.0  0.00709  0.24340  0.59377  1.0000
  H   H407      1.0  0.15196  0.24232  0.66197  1.0000
  S   S51       1.0  0.40034  0.26600  0.08995  1.0000
  H   H408      1.0  0.11081  0.28157  0.29805  1.0000
  Fe  Fe26      1.0  0.37035  0.25886  0.10598  1.0000
  S   S52       1.0  0.34027  0.27760  0.10071  1.0000
  H   H409      1.0  0.14585  0.47306  0.21233  1.0000
  H   H410      1.0  0.04737  0.25323  0.48305  1.0000
  Fe  Fe27      1.0  0.06405  0.38301  0.23676  1.0000
  S   S53       1.0  0.06333  0.39548  0.26777  1.0000
  S   S54       1.0  0.03496  0.37038  0.22558  1.0000
  Fe  Fe28      1.0  0.10975  0.39072  0.22870  1.0000
  S   S55       1.0  0.11144  0.40344  0.25991  1.0000
  S   S56       1.0  0.13955  0.39525  0.20945  1.0000
  Fe  Fe29      1.0  0.09264  0.37736  0.27187  1.0000
  S   S57       1.0  0.09997  0.36286  0.30325  1.0000
  Fe  Fe30      1.0  0.08216  0.42035  0.25342  1.0000
  S   S58       1.0  0.07224  0.45348  0.25810  1.0000
  S   S59       1.0  0.09282  0.36341  0.24125  1.0000
  S   S60       1.0  0.08094  0.40896  0.22190  1.0000
  Fe  Fe31      1.0  0.26242  0.37828  0.10648  1.0000
  S   S61       1.0  0.23837  0.36226  0.09117  1.0000
  S   S62       1.0  0.29065  0.36138  0.11975  1.0000
  Fe  Fe32      1.0  0.23889  0.42017  0.10058  1.0000
  S   S63       1.0  0.21428  0.40587  0.08404  1.0000
  S   S64       1.0  0.22917  0.45304  0.10711  1.0000
  Fe  Fe33      1.0  0.21555  0.38181  0.10925  1.0000
  S   S65       1.0  0.18699  0.36993  0.12639  1.0000
  Fe  Fe34      1.0  0.23950  0.38817  0.06781  1.0000
  S   S66       1.0  0.24838  0.38185  0.03467  1.0000
  S   S67       1.0  0.23956  0.39625  0.12596  1.0000
  S   S68       1.0  0.26418  0.40397  0.08284  1.0000
  Fe  Fe35      1.0  0.08647  0.26009  0.37876  1.0000
  S   S69       1.0  0.08248  0.27656  0.34756  1.0000
  C   C227      1.0  0.13019  0.43512  0.30599  1.0000
  S   S70       1.0  0.08692  0.27408  0.45414  1.0000
  S   S71       1.0  0.11179  0.25720  0.40077  1.0000
  S   S72       1.0  0.06231  0.26137  0.40384  1.0000
  H   H411      1.0  0.09840  0.41138  0.30615  1.0000
  H   H412      1.0  0.20213  0.31433  0.16928  1.0000
  C   C228      1.0  0.08983  0.26332  0.47901  1.0000
  H   H413      1.0  0.99635  0.35940  0.21163  1.0000
  H   H414      1.0  0.41820  0.29475  0.04552  1.0000
  C   C229      1.0  0.23707  0.38860  0.01126  1.0000
  C   C230      1.0  0.21626  0.39312  0.00975  1.0000
  C   C231      1.0  0.07674  0.38959  0.34667  1.0000
  H   H415      1.0  0.20657  0.39346  0.02336  1.0000
  H   H416      1.0  0.19141  0.32308  0.12922  1.0000
  C   C232      1.0  0.24153  0.47624  0.10347  1.0000
  C   C233      1.0  0.41445  0.28711  0.03155  1.0000
  C   C234      1.0  0.26259  0.47713  0.10063  1.0000
  H   H417      1.0  0.10127  0.45079  0.30410  1.0000
  H   H418      1.0  0.27186  0.46325  0.10008  1.0000
  C   C235      1.0  0.09424  0.33901  0.31553  1.0000
  C   C236      1.0  0.10105  0.33452  0.33525  1.0000
  C   C237      1.0  0.09705  0.31585  0.34559  1.0000
  C   C238      1.0  0.08637  0.30122  0.33623  1.0000
  C   C239      1.0  0.07930  0.30581  0.31663  1.0000
  C   C240      1.0  0.08315  0.32455  0.30637  1.0000
  H   H419      1.0  0.10962  0.34554  0.34256  1.0000
  H   H420      1.0  0.10264  0.31263  0.36061  1.0000
  H   H421      1.0  0.07114  0.29463  0.30913  1.0000
  H   H422      1.0  0.07779  0.32768  0.29124  1.0000
  C   C241      1.0  0.15215  0.38820  0.18602  1.0000
  C   C242      1.0  0.14496  0.37345  0.17382  1.0000
  C   C243      1.0  0.15579  0.36815  0.15571  1.0000
  C   C244      1.0  0.17383  0.37763  0.14931  1.0000
  C   C245      1.0  0.18093  0.39252  0.16142  1.0000
  C   C246      1.0  0.17024  0.39764  0.17966  1.0000
  H   H423      1.0  0.13114  0.36599  0.17839  1.0000
  H   H424      1.0  0.15007  0.35664  0.14653  1.0000
  H   H425      1.0  0.19468  0.40007  0.15676  1.0000
  H   H426      1.0  0.17602  0.40905  0.18889  1.0000
  C   C247      1.0  0.01036  0.38247  0.22774  1.0000
  H   H427      1.0  0.39197  0.26875  0.04640  1.0000
  H   H428      1.0  0.31782  0.34092  0.06030  1.0000
  H   H429      1.0  0.01943  0.40796  0.24391  1.0000
  H   H430      1.0  0.35088  0.31167  0.00874  1.0000
  C   C248      1.0  0.08562  0.47569  0.26191  1.0000
  H   H431      1.0  0.06702  0.39479  0.31584  1.0000
  H   H432      1.0  0.26321  0.33833  0.02913  1.0000
  H   H433      1.0  0.34069  0.33539  0.02979  1.0000
  H   H434      1.0  0.30800  0.30032  0.16961  1.0000
  C   C249      1.0  0.32719  0.30137  0.10578  1.0000
  C   C250      1.0  0.30835  0.30597  0.09691  1.0000
  C   C251      1.0  0.29724  0.32436  0.10055  1.0000
  C   C252      1.0  0.30469  0.33849  0.11332  1.0000
  C   C253      1.0  0.32356  0.33393  0.12211  1.0000
  C   C254      1.0  0.33480  0.31564  0.11828  1.0000
  H   H435      1.0  0.30220  0.29514  0.08724  1.0000
  H   H436      1.0  0.28276  0.32747  0.09370  1.0000
  H   H437      1.0  0.32954  0.34462  0.13206  1.0000
  H   H438      1.0  0.34920  0.31249  0.12525  1.0000
  C   C255      1.0  0.15068  0.26609  0.35591  1.0000
  H   H439      1.0  0.14782  0.42830  0.24690  1.0000
  H   H440      1.0  0.13498  0.27047  0.36151  1.0000
  H   H441      1.0  0.39001  0.27163  0.01954  1.0000
  H   H442      1.0  0.33060  0.29576  0.01493  1.0000
  H   H443      1.0  0.01956  0.34404  0.27347  1.0000
  C   C256      1.0  0.16311  0.25931  0.37463  1.0000
  H   H444      1.0  0.28784  0.33185  0.16646  1.0000
  H   H445      1.0  0.26551  0.38486  0.99452  1.0000
  H   H446      1.0  0.06787  0.42653  0.29444  1.0000
  H   H447      1.0  0.03593  0.46526  0.29711  1.0000
  H   H448      1.0  0.41637  0.29770  0.01818  1.0000
  H   H449      1.0  0.04933  0.37546  0.35907  1.0000
  H   H450      1.0  0.17261  0.27112  0.40276  1.0000
  H   H451      1.0  0.07845  0.39781  0.36076  1.0000
  H   H452      1.0  0.08690  0.46579  0.36958  1.0000
  C   C257      1.0  0.06436  0.37095  0.35211  1.0000
  H   H453      1.0  0.08547  0.43195  0.35525  1.0000
  H   H454      1.0  0.36240  0.33422  0.04556  1.0000
  C   C258      1.0  0.25219  0.46575  0.04617  1.0000
  H   H455      1.0  0.20935  0.32055  0.21428  1.0000
  H   H456      1.0  0.03490  0.43916  0.32650  1.0000
  H   H457      1.0  0.13884  0.42480  0.31651  1.0000
  C   C259      1.0  0.14857  0.44372  0.23967  1.0000
  C   C260      1.0  0.33434  0.34351  0.06052  1.0000
  H   H458      1.0  0.23666  0.30327  0.17635  1.0000
  H   H459      1.0  0.33667  0.35982  0.05694  1.0000
  C   C261      1.0  0.02601  0.30574  0.37210  1.0000
  H   H460      1.0  0.01332  0.28512  0.28374  1.0000
  H   H461      1.0  0.14912  0.45487  0.25175  1.0000
  H   H462      1.0  0.11108  0.44818  0.32927  1.0000
  H   H463      1.0  0.38090  0.31024  0.02594  1.0000
  C   C262      1.0  0.46844  0.25758  0.11932  1.0000
  N   N13       1.0  0.14970  0.25076  0.33968  1.0000
  H   H464      1.0  0.26635  0.45609  0.04518  1.0000
  C   C263      1.0  0.12997  0.44814  0.22692  1.0000
  C   C264      1.0  0.07018  0.45927  0.34294  1.0000
  C   C265      1.0  0.12245  0.46112  0.18130  1.0000
  H   H465      1.0  0.00972  0.24634  0.48956  1.0000
  H   H466      1.0  0.22891  0.39729  0.18607  1.0000
  C   C266      1.0  0.14557  0.45658  0.17746  1.0000
  H   H467      1.0  0.01011  0.33882  0.24899  1.0000
  H   H468      1.0  0.02419  0.25054  0.45418  1.0000
  C   C267      1.0  0.02755  0.27736  0.28895  1.0000
  H   H469      1.0  0.13862  0.44923  0.30327  1.0000
  H   H470      1.0  0.17767  0.26681  0.30713  1.0000
  H   H471      1.0  0.15704  0.28042  0.34977  1.0000
  C   C268      1.0  0.14981  0.44607  0.15744  1.0000
  H   H472      1.0  0.26235  0.48723  0.02339  1.0000
  H   H473      1.0  0.12917  0.42781  0.29126  1.0000
  H   H474      1.0  0.18604  0.31406  0.20335  1.0000
  H   H475      1.0  0.29957  0.30320  0.14403  1.0000
  C   C269      1.0  0.20551  0.25310  0.31727  1.0000
  C   C270      1.0  0.07244  0.43579  0.34537  1.0000
  C   C271      1.0  0.10579  0.47504  0.26773  1.0000
  C   C272      1.0  0.02887  0.28577  0.36131  1.0000
  H   H476      1.0  0.25014  0.39382  0.16837  1.0000
  H   H477      1.0  0.20212  0.30577  0.11089  1.0000
  H   H478      1.0  0.22517  0.36018  0.18908  1.0000
  H   H479      1.0  0.09198  0.38398  0.34117  1.0000
  H   H480      1.0  0.10548  0.41247  0.33173  1.0000
  H   H481      1.0  0.03878  0.28842  0.34769  1.0000
  C   C273      1.0  0.00688  0.40075  0.23751  1.0000
  C   C274      1.0  0.02760  0.27590  0.31211  1.0000
  H   H482      1.0  0.00092  0.27348  0.37150  1.0000
  H   H483      1.0  0.07260  0.36085  0.36316  1.0000
  H   H484      1.0  0.42522  0.27388  0.02964  1.0000
  H   H485      1.0  0.06212  0.36229  0.33836  1.0000
  C   C275      1.0  0.06638  0.40334  0.33010  1.0000
  H   H486      1.0  0.03445  0.41969  0.30831  1.0000
  C   C276      1.0  0.10900  0.44029  0.31504  1.0000
  C   C277      1.0  0.04016  0.43488  0.31104  1.0000
  H   H487      1.0  0.15591  0.24658  0.38325  1.0000
  H   H488      1.0  0.06951  0.48585  0.36119  1.0000
  H   H489      1.0  0.21280  0.24777  0.33152  1.0000
  H   H490      1.0  0.04109  0.31112  0.37583  1.0000
  H   H491      1.0  0.05007  0.40472  0.33500  1.0000
  H   H492      1.0  0.06854  0.44998  0.30549  1.0000
  H   H493      1.0  0.05875  0.43106  0.35451  1.0000
  S   S73       1.0  0.44395  0.25984  0.13154  1.0000
  H   H494      1.0  0.11376  0.46060  0.27018  1.0000
  N   N14       1.0  0.07485  0.42410  0.32614  1.0000
  C   C278      1.0  0.49065  0.25140  0.08964  1.0000
  H   H495      1.0  0.01896  0.31834  0.26550  1.0000
  C   C279      1.0  0.47107  0.25224  0.09906  1.0000
  H   H496      1.0  0.15252  0.28747  0.31560  1.0000
  H   H497      1.0  0.14897  0.28226  0.39414  1.0000
  H   H498      1.0  0.12556  0.30385  0.29456  1.0000
  C   C280      1.0  0.01077  0.33334  0.26510  1.0000
  H   H499      1.0  0.28736  0.28573  0.16188  1.0000
  H   H500      1.0  0.16269  0.44422  0.22995  1.0000
  H   H501      1.0  0.24616  0.46495  0.06211  1.0000
  H   H502      1.0  0.28123  0.34585  0.99677  1.0000
  H   H503      1.0  0.20412  0.33808  0.18063  1.0000
  H   H504      1.0  0.11555  0.44597  0.18257  1.0000
  C   C281      1.0  0.26639  0.32604  0.01831  1.0000
  C   C282      1.0  0.12996  0.46981  0.21695  1.0000
  C   C283      1.0  0.03040  0.44977  0.29564  1.0000
  H   H505      1.0  0.21462  0.26536  0.31000  1.0000
  Fe  Fe36      1.0  0.08744  0.25554  0.42575  1.0000
  C   C284      1.0  0.13622  0.25900  0.32300  1.0000
  C   C285      1.0  0.20508  0.46988  0.15931  1.0000
  H   H506      1.0  0.03708  0.27492  0.37161  1.0000
  C   C286      1.0  0.07170  0.46915  0.36331  1.0000
  H   H507      1.0  0.20676  0.33239  0.10778  1.0000
  C   C287      1.0  0.05806  0.46261  0.19989  1.0000
  H   H508      1.0  0.23677  0.31237  0.12070  1.0000
  C   C288      1.0  0.16438  0.27662  0.38912  1.0000
  H   H509      1.0  0.37254  0.28526  0.99494  1.0000
  H   H510      1.0  0.16635  0.44252  0.15530  1.0000
  H   H511      1.0  0.28055  0.31760  0.02273  1.0000
  C   C289      1.0  0.17051  0.24432  0.33128  1.0000
  C   C290      1.0  0.25668  0.48757  0.03938  1.0000
  H   H512      1.0  0.24036  0.32346  0.19226  1.0000
  H   H513      1.0  0.05980  0.46363  0.37433  1.0000
  C   C291      1.0  0.18382  0.26121  0.32181  1.0000
  C   C292      1.0  0.13695  0.28199  0.31722  1.0000
  H   H514      1.0  0.12967  0.43656  0.21534  1.0000
  H   H515      1.0  0.13517  0.28024  0.28444  1.0000
  C   C293      1.0  0.02657  0.24478  0.34833  1.0000
  H   H516      1.0  0.49243  0.24778  0.07383  1.0000
  H   H517      1.0  0.21624  0.45709  0.16201  1.0000
  H   H518      1.0  0.19228  0.46844  0.17063  1.0000
  H   H519      1.0  0.19943  0.46867  0.14378  1.0000
  H   H520      1.0  0.25169  0.38376  0.19412  1.0000
  N   N15       1.0  0.11606  0.47347  0.19946  1.0000
  H   H521      1.0  0.99855  0.28971  0.34953  1.0000
  H   H522      1.0  0.01845  0.31747  0.36216  1.0000
  H   H523      1.0  0.09486  0.45106  0.21081  1.0000
  C   C294      1.0  0.21535  0.48997  0.16122  1.0000
  H   H524      1.0  0.20755  0.29629  0.20275  1.0000
  H   H525      1.0  0.32216  0.26678  0.03063  1.0000
  H   H526      1.0  0.08183  0.46577  0.33237  1.0000
  N   N16       1.0  0.35481  0.29307  0.03614  1.0000
  C   C295      1.0  0.35115  0.27196  0.04478  1.0000
  C   C296      1.0  0.37708  0.29759  0.03691  1.0000
  C   C297      1.0  0.34294  0.30772  0.04958  1.0000
  H   H527      1.0  0.17271  0.28933  0.38166  1.0000
  H   H528      1.0  0.27405  0.31395  0.18252  1.0000
  C   C298      1.0  0.32880  0.26543  0.04580  1.0000
  C   C299      1.0  0.39277  0.27981  0.03334  1.0000
  C   C300      1.0  0.09697  0.42097  0.31972  1.0000
  C   C301      1.0  0.12648  0.28715  0.29734  1.0000
  H   H529      1.0  0.35692  0.27028  0.06043  1.0000
  H   H530      1.0  0.35999  0.26037  0.03616  1.0000
  H   H531      1.0  0.38049  0.30295  0.05219  1.0000
  H   H532      1.0  0.34667  0.30444  0.06573  1.0000
  H   H533      1.0  0.32634  0.30584  0.04877  1.0000
  H   H534      1.0  0.11623  0.44637  0.23699  1.0000
  C   C302      1.0  0.06370  0.43428  0.30870  1.0000
  H   H535      1.0  0.22167  0.30310  0.14208  1.0000
  H   H536      1.0  0.31937  0.27470  0.05651  1.0000
  H   H537      1.0  0.12581  0.48058  0.22914  1.0000
  H   H538      1.0  0.12889  0.29079  0.32928  1.0000
  H   H539      1.0  0.02739  0.29165  0.31733  1.0000
  C   C303      1.0  0.07771  0.47214  0.19196  1.0000
  C   C304      1.0  0.34743  0.29623  0.01485  1.0000
  H   H540      1.0  0.05515  0.46392  0.33695  1.0000
  H   H541      1.0  0.24094  0.45951  0.03629  1.0000
  H   H542      1.0  0.22119  0.37060  0.16367  1.0000
  H   H543      1.0  0.22871  0.48990  0.15038  1.0000
  H   H544      1.0  0.33966  0.33981  0.07605  1.0000
  H   H545      1.0  0.03393  0.44482  0.27997  1.0000
  H   H546      1.0  0.04566  0.46678  0.18944  1.0000
  H   H547      1.0  0.14186  0.43156  0.15756  1.0000
  H   H548      1.0  0.04119  0.25231  0.34560  1.0000
  C   C305      1.0  0.34618  0.33061  0.04497  1.0000
  N   N17       1.0  0.24282  0.33186  0.16023  1.0000
  C   C306      1.0  0.22880  0.33549  0.14286  1.0000
  C   C307      1.0  0.24953  0.35202  0.16690  1.0000
  C   C308      1.0  0.26150  0.32024  0.15221  1.0000
  C   C309      1.0  0.23330  0.31980  0.17788  1.0000
  C   C310      1.0  0.20982  0.32211  0.18121  1.0000
  C   C311      1.0  0.22391  0.31631  0.13143  1.0000
  C   C312      1.0  0.27943  0.31760  0.16671  1.0000
  C   C313      1.0  0.23266  0.36680  0.17518  1.0000
  C   C314      1.0  0.24146  0.38660  0.18127  1.0000
  C   C315      1.0  0.20286  0.31262  0.20168  1.0000
  C   C316      1.0  0.20488  0.31965  0.11910  1.0000
  C   C317      1.0  0.29446  0.30067  0.16013  1.0000
  H   H549      1.0  0.23551  0.34635  0.13143  1.0000
  H   H550      1.0  0.21432  0.34316  0.14784  1.0000
  H   H551      1.0  0.26048  0.34985  0.17924  1.0000
  H   H552      1.0  0.25786  0.36001  0.15408  1.0000
  H   H553      1.0  0.26749  0.32768  0.13785  1.0000
  H   H554      1.0  0.25757  0.30477  0.14809  1.0000
  H   H555      1.0  0.07437  0.48871  0.19027  1.0000
  H   H556      1.0  0.09059  0.47533  0.22109  1.0000
  C   C318      1.0  0.00819  0.27719  0.35636  1.0000
  H   H557      1.0  0.08174  0.46614  0.17681  1.0000
  H   H558      1.0  0.99680  0.28408  0.44224  1.0000
  H   H559      1.0  0.25351  0.31572  0.01958  1.0000
  H   H560      1.0  0.13925  0.25035  0.30900  1.0000
  H   H561      1.0  0.05999  0.44584  0.20082  1.0000
  C   C319      1.0  0.09505  0.46758  0.20687  1.0000
  S   S74       1.0  0.38519  0.24572  0.13439  1.0000
  H   H562      1.0  0.22090  0.49038  0.17679  1.0000
  H   H563      1.0  0.05354  0.46806  0.21519  1.0000
  H   H564      1.0  0.99821  0.27620  0.46859  1.0000
  H   H565      1.0  0.18478  0.27399  0.33201  1.0000
  H   H566      1.0  0.17888  0.25448  0.37009  1.0000
  H   H567      1.0  0.15169  0.44622  0.18958  1.0000
  H   H568      1.0  0.08670  0.29221  0.49305  1.0000
  H   H569      1.0  0.01365  0.45029  0.29820  1.0000
  C   C320      1.0  0.35657  0.28158  0.99885  1.0000
  H   H570      1.0  0.13119  0.49255  0.27527  1.0000
  H   H571      1.0  0.11638  0.46851  0.16721  1.0000
  H   H572      1.0  0.11995  0.25677  0.32749  1.0000
  H   H573      1.0  0.02902  0.26202  0.28266  1.0000
  H   H574      1.0  0.14480  0.45596  0.14443  1.0000
  H   H575      1.0  0.48380  0.26605  0.14569  1.0000
  Fe  Fe37      1.0  0.41516  0.25056  0.11696  1.0000
  H   H576      1.0  0.04062  0.28617  0.28295  1.0000
  H   H577      1.0  0.15431  0.47048  0.17702  1.0000
  H   H578      1.0  0.99561  0.27572  0.31788  1.0000
  C   C321      1.0  0.48568  0.26163  0.13011  1.0000
  H   H579      1.0  0.01921  0.25288  0.40824  1.0000
  H   H580      1.0  0.35596  0.26553  0.00415  1.0000
  H   H581      1.0  0.00622  0.25183  0.31179  1.0000
  C   C322      1.0  0.00869  0.26511  0.32106  1.0000
  H   H582      1.0  0.01681  0.30362  0.38645  1.0000
  N   N18       1.0  0.00867  0.25886  0.34332  1.0000
  H   H583      1.0  0.45795  0.24925  0.09051  1.0000
  H   H584      1.0  0.04200  0.26789  0.31631  1.0000
  H   H585      1.0  0.26887  0.49251  0.04897  1.0000
  H   H586      1.0  0.46988  0.24763  0.00137  1.0000
  C   C323      1.0  0.26869  0.33525  0.99675  1.0000
  C   C324      1.0  0.11565  0.49318  0.27057  1.0000
  H   H587      1.0  0.48593  0.26825  0.00151  1.0000
  C   C325      1.0  0.00609  0.24401  0.40643  1.0000
  H   H588      1.0  0.45423  0.29000  0.99430  1.0000
  C   C326      1.0  0.02034  0.47470  0.74161  1.0000
  H   H589      1.0  0.33901  0.38247  0.82363  1.0000
  Fe  Fe38      1.0  0.38007  0.27060  0.90229  1.0000
  S   S75       1.0  0.36597  0.30324  0.89971  1.0000
  S   S76       1.0  0.39777  0.26330  0.93045  1.0000
  S   S77       1.0  0.40542  0.25710  0.88207  1.0000
  Fe  Fe39      1.0  0.25841  0.37388  0.89293  1.0000
  S   S78       1.0  0.22423  0.37296  0.89735  1.0000
  S   S79       1.0  0.27564  0.34274  0.89232  1.0000
  Fe  Fe40      1.0  0.25625  0.42064  0.88989  1.0000
  S   S80       1.0  0.22253  0.42273  0.89456  1.0000
  S   S81       1.0  0.27649  0.44701  0.88166  1.0000
  Fe  Fe41      1.0  0.22760  0.39814  0.91884  1.0000
  S   S82       1.0  0.20899  0.39890  0.94863  1.0000
  Fe  Fe42      1.0  0.22158  0.39748  0.87269  1.0000
  S   S83       1.0  0.20154  0.40252  0.84481  1.0000
  S   S84       1.0  0.26165  0.39781  0.91576  1.0000
  S   S85       1.0  0.25553  0.39663  0.86664  1.0000
  Fe  Fe43      1.0  0.10425  0.39010  0.77253  1.0000
  S   S86       1.0  0.12171  0.38940  0.74258  1.0000
  S   S87       1.0  0.11875  0.38159  0.80318  1.0000
  Fe  Fe44      1.0  0.06353  0.40002  0.75122  1.0000
  S   S88       1.0  0.07916  0.39991  0.72031  1.0000
  S   S89       1.0  0.03037  0.41130  0.74955  1.0000
  Fe  Fe45      1.0  0.09624  0.37157  0.73110  1.0000
  S   S90       1.0  0.09898  0.33980  0.71735  1.0000
  Fe  Fe46      1.0  0.10278  0.41775  0.73467  1.0000
  S   S91       1.0  0.11572  0.44555  0.71812  1.0000
  S   S92       1.0  0.07943  0.37092  0.76165  1.0000
  S   S93       1.0  0.08654  0.41924  0.76496  1.0000
  Fe  Fe47      1.0  0.09383  0.26406  0.61850  1.0000
  S   S94       1.0  0.09872  0.29530  0.63202  1.0000
  H   H590      1.0  0.12731  0.24771  0.65182  1.0000
  C   C327      1.0  0.47926  0.26557  0.89126  1.0000
  S   S95       1.0  0.06858  0.26242  0.59622  1.0000
  H   H591      1.0  0.46700  0.24551  0.84091  1.0000
  C   C328      1.0  0.30213  0.36388  0.83388  1.0000
  H   H592      1.0  0.02525  0.37538  0.71873  1.0000
  H   H593      1.0  0.30421  0.47589  0.86756  1.0000
  C   C329      1.0  0.09044  0.26789  0.51566  1.0000
  H   H594      1.0  0.08983  0.27784  0.52828  1.0000
  C   C330      1.0  0.09819  0.32794  0.69337  1.0000
  C   C331      1.0  0.09625  0.30677  0.69314  1.0000
  C   C332      1.0  0.09608  0.29655  0.67469  1.0000
  C   C333      1.0  0.09817  0.30730  0.65602  1.0000
  C   C334      1.0  0.10002  0.32848  0.65628  1.0000
  C   C335      1.0  0.09984  0.33874  0.67472  1.0000
  H   H595      1.0  0.09495  0.29815  0.70739  1.0000
  H   H596      1.0  0.09462  0.28032  0.67490  1.0000
  H   H597      1.0  0.10169  0.33705  0.64203  1.0000
  H   H598      1.0  0.10146  0.35496  0.67446  1.0000
  C   C336      1.0  0.00749  0.39838  0.75448  1.0000
  C   C337      1.0  0.00680  0.38006  0.76584  1.0000
  H   H599      1.0  0.02478  0.31396  0.67879  1.0000
  H   H600      1.0  0.02057  0.37327  0.77193  1.0000
  H   H601      1.0  0.20250  0.44363  0.93743  1.0000
  C   C338      1.0  0.11082  0.47210  0.72053  1.0000
  H   H602      1.0  0.36864  0.35792  0.81618  1.0000
  H   H603      1.0  0.10661  0.47240  0.75309  1.0000
  C   C339      1.0  0.12365  0.42784  0.92929  1.0000
  N   N19       1.0  0.04246  0.47973  0.74137  1.0000
  C   C340      1.0  0.17831  0.39649  0.83370  1.0000
  C   C341      1.0  0.16506  0.38242  0.84264  1.0000
  C   C342      1.0  0.14685  0.37833  0.83325  1.0000
  C   C343      1.0  0.14156  0.38815  0.81472  1.0000
  C   C344      1.0  0.15480  0.40225  0.80578  1.0000
  C   C345      1.0  0.17303  0.40628  0.81516  1.0000
  H   H604      1.0  0.16893  0.37447  0.85666  1.0000
  H   H605      1.0  0.13685  0.36732  0.84030  1.0000
  H   H606      1.0  0.15103  0.41002  0.79160  1.0000
  H   H607      1.0  0.18307  0.41722  0.80802  1.0000
  H   H608      1.0  0.28416  0.36532  0.96988  1.0000
  C   C346      1.0  0.22023  0.39569  0.97263  1.0000
  C   C347      1.0  0.24109  0.39167  0.97421  1.0000
  C   C348      1.0  0.03947  0.32100  0.67488  1.0000
  H   H609      1.0  0.25080  0.39116  0.96066  1.0000
  H   H610      1.0  0.03797  0.44754  0.71479  1.0000
  C   C349      1.0  0.27554  0.47378  0.88406  1.0000
  C   C350      1.0  0.04429  0.31841  0.65226  1.0000
  H   H611      1.0  0.01418  0.48186  0.70933  1.0000
  H   H612      1.0  0.24701  0.47706  0.90101  1.0000
  C   C351      1.0  0.34046  0.31349  0.89868  1.0000
  C   C352      1.0  0.32430  0.30213  0.89311  1.0000
  C   C353      1.0  0.30467  0.31135  0.89127  1.0000
  C   C354      1.0  0.30076  0.33194  0.89525  1.0000
  C   C355      1.0  0.31678  0.34312  0.90142  1.0000
  C   C356      1.0  0.33650  0.33406  0.90284  1.0000
  H   H613      1.0  0.32702  0.28634  0.88977  1.0000
  H   H614      1.0  0.29246  0.30244  0.88653  1.0000
  H   H615      1.0  0.31398  0.35873  0.90513  1.0000
  H   H616      1.0  0.34881  0.34301  0.90728  1.0000
  C   C357      1.0  0.34259  0.38264  0.83995  1.0000
  H   H617      1.0  0.03088  0.35227  0.66790  1.0000
  H   H618      1.0  0.43803  0.25420  0.81886  1.0000
  H   H619      1.0  0.46392  0.25725  0.96326  1.0000
  H   H620      1.0  0.11923  0.41188  0.93152  1.0000
  H   H621      1.0  0.29373  0.27885  0.91976  1.0000
  H   H622      1.0  0.06381  0.32870  0.75006  1.0000
  H   H623      1.0  0.04504  0.30948  0.75068  1.0000
  H   H624      1.0  0.18714  0.44936  0.85700  1.0000
  H   H625      1.0  0.01558  0.27878  0.65305  1.0000
  H   H626      1.0  0.18372  0.30170  0.73239  1.0000
  H   H627      1.0  0.20649  0.31612  0.72904  1.0000
  H   H628      1.0  0.03716  0.31907  0.71446  1.0000
  H   H629      1.0  0.30144  0.39009  0.89155  1.0000
  C   C358      1.0  0.30930  0.37134  0.85426  1.0000
  H   H630      1.0  0.35822  0.36160  0.86176  1.0000
  H   H631      1.0  0.19635  0.35042  0.83193  1.0000
  H   H632      1.0  0.31513  0.35884  0.82390  1.0000
  H   H633      1.0  0.32766  0.43128  0.85846  1.0000
  H   H634      1.0  0.28370  0.34060  0.82271  1.0000
  C   C359      1.0  0.32207  0.40597  0.90875  1.0000
  H   H635      1.0  0.03777  0.41164  0.70182  1.0000
  H   H636      1.0  0.10845  0.33861  0.78543  1.0000
  C   C360      1.0  0.04329  0.28046  0.54668  1.0000
  H   H637      1.0  0.14608  0.39384  0.92249  1.0000
  H   H638      1.0  0.01189  0.38177  0.68060  1.0000
  H   H639      1.0  0.23849  0.46836  0.82699  1.0000
  H   H640      1.0  0.18731  0.31825  0.71029  1.0000
  H   H641      1.0  0.27541  0.31120  0.93015  1.0000
  H   H642      1.0  0.19266  0.31873  0.79936  1.0000
  C   C361      1.0  0.31333  0.36953  0.95537  1.0000
  H   H643      1.0  0.21389  0.48439  0.86394  1.0000
  H   H644      1.0  0.03679  0.35510  0.74265  1.0000
  C   C362      1.0  0.04747  0.32573  0.75298  1.0000
  H   H645      1.0  0.34310  0.40305  0.87305  1.0000
  C   C363      1.0  0.28834  0.34598  0.83747  1.0000
  H   H646      1.0  0.27444  0.35058  0.84648  1.0000
  H   H647      1.0  0.16465  0.40749  0.75144  1.0000
  H   H648      1.0  0.19066  0.40816  0.74208  1.0000
  H   H649      1.0  0.04340  0.32900  0.76904  1.0000
  H   H650      1.0  0.05193  0.45881  0.81030  1.0000
  H   H651      1.0  0.05661  0.33684  0.71429  1.0000
  C   C364      1.0  0.03430  0.33922  0.73897  1.0000
  H   H652      1.0  0.31052  0.40405  0.82684  1.0000
  H   H653      1.0  0.11746  0.31234  0.78555  1.0000
  H   H654      1.0  0.29808  0.40963  0.85026  1.0000
  N   N20       1.0  0.27507  0.32542  0.95915  1.0000
  C   C365      1.0  0.25652  0.33789  0.95278  1.0000
  C   C366      1.0  0.29412  0.33707  0.95460  1.0000
  C   C367      1.0  0.27648  0.30675  0.94659  1.0000
  C   C368      1.0  0.02636  0.38580  0.68710  1.0000
  H   H655      1.0  0.05821  0.32639  0.64728  1.0000
  C   C369      1.0  0.23601  0.32723  0.95531  1.0000
  C   C370      1.0  0.29600  0.29296  0.94887  1.0000
  H   H656      1.0  0.07346  0.45725  0.79264  1.0000
  H   H657      1.0  0.32160  0.36455  0.96915  1.0000
  H   H658      1.0  0.25427  0.34376  0.99354  1.0000
  C   C371      1.0  0.21806  0.34234  0.95262  1.0000
  H   H659      1.0  0.25840  0.34295  0.93650  1.0000
  H   H660      1.0  0.25475  0.35208  0.96115  1.0000
  C   C372      1.0  0.03282  0.37047  0.70433  1.0000
  H   H661      1.0  0.29989  0.33466  0.93878  1.0000
  H   H662      1.0  0.26346  0.29694  0.95039  1.0000
  H   H663      1.0  0.16690  0.46595  0.84767  1.0000
  H   H664      1.0  0.15960  0.45771  0.92499  1.0000
  C   C373      1.0  0.17066  0.45054  0.85412  1.0000
  H   H665      1.0  0.05328  0.43955  0.79175  1.0000
  H   H666      1.0  0.23512  0.31569  0.94366  1.0000
  H   H667      1.0  0.34527  0.29951  0.97279  1.0000
  C   C374      1.0  0.29188  0.48419  0.87522  1.0000
  C   C375      1.0  0.04552  0.46996  0.77974  1.0000
  C   C376      1.0  0.21990  0.48661  0.84806  1.0000
  H   H668      1.0  0.15758  0.41464  0.87262  1.0000
  H   H669      1.0  0.99689  0.35768  0.72989  1.0000
  H   H670      1.0  0.30985  0.26513  0.93738  1.0000
  C   C377      1.0  0.29543  0.27432  0.93600  1.0000
  H   H671      1.0  0.16513  0.41941  0.93566  1.0000
  H   H672      1.0  0.04348  0.29229  0.53423  1.0000
  H   H673      1.0  0.34354  0.34917  0.84401  1.0000
  H   H674      1.0  0.21949  0.35086  0.93782  1.0000
  H   H675      1.0  0.03147  0.32447  0.64314  1.0000
  H   H676      1.0  0.09662  0.43796  0.94648  1.0000
  H   H677      1.0  0.29329  0.37607  0.82570  1.0000
  H   H678      1.0  0.05307  0.46047  0.68194  1.0000
  H   H679      1.0  0.06930  0.46759  0.75616  1.0000
  C   C378      1.0  0.35349  0.36203  0.84582  1.0000
  C   C379      1.0  0.45012  0.27892  0.98310  1.0000
  C   C380      1.0  0.13439  0.43151  0.90818  1.0000
  C   C381      1.0  0.03991  0.33533  0.71645  1.0000
  H   H680      1.0  0.18474  0.41839  0.91697  1.0000
  C   C382      1.0  0.17381  0.44854  0.92227  1.0000
  C   C383      1.0  0.23287  0.46761  0.84307  1.0000
  N   N21       1.0  0.32389  0.38833  0.85273  1.0000
  H   H681      1.0  0.15459  0.35981  0.89032  1.0000
  H   H682      1.0  0.32970  0.39231  0.91582  1.0000
  H   H683      1.0  0.33655  0.37840  0.88136  1.0000
  H   H684      1.0  0.31062  0.44084  0.81630  1.0000
  C   C384      1.0  0.31340  0.40676  0.84297  1.0000
  C   C385      1.0  0.03886  0.34367  0.68026  1.0000
  H   H685      1.0  0.04844  0.48562  0.78394  1.0000
  H   H686      1.0  0.38356  0.37032  0.83413  1.0000
  H   H687      1.0  0.01322  0.27049  0.54273  1.0000
  H   H688      1.0  0.46566  0.27404  0.88680  1.0000
  C   C386      1.0  0.18750  0.45163  0.93993  1.0000
  C   C387      1.0  0.00677  0.34416  0.70073  1.0000
  H   H689      1.0  0.13549  0.44814  0.90600  1.0000
  C   C388      1.0  0.16971  0.42587  0.92039  1.0000
  Fe  Fe48      1.0  0.42128  0.24723  0.91055  1.0000
  H   H690      1.0  0.13183  0.34630  0.75599  1.0000
  H   H691      1.0  0.20416  0.32400  0.83409  1.0000
  H   H692      1.0  0.12384  0.42710  0.89648  1.0000
  C   C389      1.0  0.16523  0.36206  0.90257  1.0000
  N   N22       1.0  0.02912  0.34857  0.70073  1.0000
  C   C390      1.0  0.31347  0.40111  0.88846  1.0000
  C   C391      1.0  0.08877  0.27600  0.49565  1.0000
  H   H693      1.0  0.01256  0.47917  0.75609  1.0000
  H   H694      1.0  0.20367  0.33419  0.95316  1.0000
  C   C392      1.0  0.05252  0.46620  0.75739  1.0000
  H   H695      1.0  0.10434  0.32343  0.76407  1.0000
  H   H696      1.0  0.04698  0.30208  0.64926  1.0000
  H   H697      1.0  0.29792  0.44663  0.84033  1.0000
  H   H698      1.0  0.17320  0.39269  0.73002  1.0000
  H   H699      1.0  0.30983  0.30113  0.94393  1.0000
  H   H700      1.0  0.32135  0.45828  0.83279  1.0000
  H   H701      1.0  0.35254  0.27355  0.96779  1.0000
  C   C393      1.0  0.05319  0.47556  0.72126  1.0000
  C   C394      1.0  0.31294  0.44411  0.83239  1.0000
  H   H702      1.0  0.14108  0.32017  0.75635  1.0000
  H   H703      1.0  0.31589  0.35809  0.86294  1.0000
  C   C395      1.0  0.29240  0.36046  0.95594  1.0000
  H   H704      1.0  0.07822  0.45740  0.69195  1.0000
  H   H705      1.0  0.02912  0.26715  0.51009  1.0000
  C   C396      1.0  0.48090  0.25635  0.99164  1.0000
  C   C397      1.0  0.33035  0.39251  0.87377  1.0000
  H   H706      1.0  0.33991  0.42503  0.83456  1.0000
  H   H707      1.0  0.30661  0.33113  0.96434  1.0000
  H   H708      1.0  0.37997  0.34348  0.83686  1.0000
  H   H709      1.0  0.17240  0.32802  0.81620  1.0000
  H   H710      1.0  0.29534  0.37589  0.86316  1.0000
  H   H711      1.0  0.18043  0.44582  0.95448  1.0000
  H   H712      1.0  0.21725  0.35323  0.96502  1.0000
  H   H713      1.0  0.04928  0.37239  0.70647  1.0000
  C   C398      1.0  0.06260  0.45169  0.69296  1.0000
  H   H714      1.0  0.35410  0.39438  0.84072  1.0000
  H   H715      1.0  0.16093  0.45905  0.88402  1.0000
  H   H716      1.0  0.19173  0.39964  0.98946  1.0000
  H   H717      1.0  0.21681  0.34047  0.81567  1.0000
  C   C399      1.0  0.32501  0.42670  0.84285  1.0000
  H   H718      1.0  0.19662  0.37200  0.75257  1.0000
  H   H719      1.0  0.18809  0.38713  0.77355  1.0000
  H   H720      1.0  0.00633  0.29356  0.63129  1.0000
  H   H721      1.0  0.29757  0.28740  0.96481  1.0000
  H   H722      1.0  0.10765  0.45741  0.93017  1.0000
  H   H723      1.0  0.06302  0.44345  0.72458  1.0000
  H   H724      1.0  0.33312  0.41817  0.90659  1.0000
  H   H725      1.0  0.13354  0.43152  0.94170  1.0000
  H   H726      1.0  0.01832  0.33554  0.74264  1.0000
  H   H727      1.0  0.30630  0.41526  0.88219  1.0000
  C   C400      1.0  0.46909  0.26769  0.97451  1.0000
  H   H728      1.0  0.30954  0.41133  0.91921  1.0000
  C   C401      1.0  0.11188  0.48426  0.70270  1.0000
  H   H729      1.0  0.29639  0.33323  0.84571  1.0000
  N   N23       1.0  0.17040  0.34643  0.77442  1.0000
  C   C402      1.0  0.16528  0.36663  0.76397  1.0000
  C   C403      1.0  0.15093  0.33690  0.78194  1.0000
  C   C404      1.0  0.18236  0.35045  0.79280  1.0000
  C   C405      1.0  0.18295  0.33229  0.76099  1.0000
  C   C406      1.0  0.17917  0.33391  0.73787  1.0000
  C   C407      1.0  0.18338  0.38055  0.75933  1.0000
  C   C408      1.0  0.18658  0.33209  0.80762  1.0000
  C   C409      1.0  0.13532  0.33278  0.76585  1.0000
  C   C410      1.0  0.11520  0.32637  0.77594  1.0000
  C   C411      1.0  0.18988  0.31638  0.72681  1.0000
  C   C412      1.0  0.17756  0.39826  0.74482  1.0000
  C   C413      1.0  0.20192  0.33711  0.82324  1.0000
  H   H730      1.0  0.15386  0.37535  0.77336  1.0000
  H   H731      1.0  0.15779  0.36471  0.74953  1.0000
  H   H732      1.0  0.15415  0.32193  0.78969  1.0000
  H   H733      1.0  0.14314  0.34648  0.79363  1.0000
  H   H734      1.0  0.17445  0.36248  0.80182  1.0000
  H   H735      1.0  0.19741  0.35645  0.78806  1.0000
  H   H736      1.0  0.19946  0.33466  0.76228  1.0000
  H   H737      1.0  0.18090  0.31628  0.76632  1.0000
  H   H738      1.0  0.18519  0.34818  0.73106  1.0000
  H   H739      1.0  0.16287  0.33392  0.73459  1.0000
  H   H740      1.0  0.06353  0.43559  0.68876  1.0000
  C   C414      1.0  0.05348  0.45337  0.71452  1.0000
  H   H741      1.0  0.05157  0.31253  0.68335  1.0000
  C   C415      1.0  0.37256  0.35831  0.83236  1.0000
  H   H742      1.0  0.03827  0.28762  0.56106  1.0000
  H   H743      1.0  0.09349  0.43779  0.91949  1.0000
  C   C416      1.0  0.15813  0.44675  0.87378  1.0000
  C   C417      1.0  0.47788  0.24971  0.90589  1.0000
  H   H744      1.0  0.01877  0.45799  0.74135  1.0000
  H   H745      1.0  0.14185  0.44795  0.86999  1.0000
  H   H746      1.0  0.47873  0.27917  0.96670  1.0000
  H   H747      1.0  0.22370  0.45395  0.84554  1.0000
  H   H748      1.0  0.16723  0.43936  0.84278  1.0000
  C   C418      1.0  0.34512  0.28370  0.97916  1.0000
  C   C419      1.0  0.00847  0.27804  0.63815  1.0000
  H   H749      1.0  0.26218  0.30677  0.98383  1.0000
  H   H750      1.0  0.05485  0.34863  0.67914  1.0000
  H   H751      1.0  0.06925  0.47991  0.72163  1.0000
  H   H752      1.0  0.28410  0.36710  0.94277  1.0000
  N   N24       1.0  0.15482  0.42075  0.90481  1.0000
  C   C420      1.0  0.03393  0.25487  0.52117  1.0000
  C   C421      1.0  0.16323  0.42540  0.88347  1.0000
  H   H753      1.0  0.18195  0.45436  0.90836  1.0000
  H   H754      1.0  0.17919  0.35243  0.89974  1.0000
  H   H755      1.0  0.18002  0.42290  0.88272  1.0000
  H   H756      1.0  0.28264  0.26475  0.94121  1.0000
  H   H757      1.0  0.19004  0.46802  0.94118  1.0000
  H   H758      1.0  0.32241  0.36482  0.94171  1.0000
  C   C422      1.0  0.25970  0.48492  0.89404  1.0000
  H   H759      1.0  0.05890  0.27387  0.54853  1.0000
  H   H760      1.0  0.24603  0.46594  0.85304  1.0000
  C   C423      1.0  0.27361  0.31860  0.98128  1.0000
  H   H761      1.0  0.01086  0.40844  0.70590  1.0000
  H   H762      1.0  0.04982  0.45000  0.75500  1.0000
  C   C424      1.0  0.10700  0.48155  0.73913  1.0000
  C   C425      1.0  0.05680  0.45548  0.79444  1.0000
  H   H763      1.0  0.11502  0.47729  0.68830  1.0000
  H   H764      1.0  0.15813  0.35711  0.91740  1.0000
  C   C426      1.0  0.24940  0.38807  0.99340  1.0000
  H   H765      1.0  0.02097  0.25063  0.58903  1.0000
  H   H766      1.0  0.13972  0.39407  0.89648  1.0000
  C   C427      1.0  0.10418  0.44110  0.93140  1.0000
  C   C428      1.0  0.09292  0.24694  0.51921  1.0000
  H   H767      1.0  0.00100  0.34603  0.68511  1.0000
  H   H768      1.0  0.01900  0.26924  0.62797  1.0000
  H   H769      1.0  0.03826  0.38580  0.67468  1.0000
  C   C429      1.0  0.17078  0.38424  0.90287  1.0000
  H   H770      1.0  0.31160  0.38633  0.95493  1.0000
  C   C430      1.0  0.15165  0.39824  0.90688  1.0000
  H   H771      1.0  0.17868  0.38819  0.88819  1.0000
  H   H772      1.0  0.18165  0.38539  0.91512  1.0000
  C   C431      1.0  0.02377  0.40732  0.69461  1.0000
  H   H773      1.0  0.02910  0.46741  0.78228  1.0000
  C   C432      1.0  0.20789  0.39655  0.99049  1.0000
  H   H774      1.0  0.05072  0.25332  0.51902  1.0000
  C   C433      1.0  0.02896  0.26379  0.54226  1.0000
  H   H775      1.0  0.28815  0.31104  0.98593  1.0000
  H   H776      1.0  0.32923  0.27913  0.98190  1.0000
  H   H777      1.0  0.03009  0.25220  0.55468  1.0000
  H   H778      1.0  0.43117  0.25690  0.84527  1.0000
  C   C434      1.0  0.43565  0.24579  0.83361  1.0000
  H   H779      1.0  0.00448  0.32798  0.70527  1.0000
  H   H780      1.0  0.04671  0.48521  0.70880  1.0000
  S   S96       1.0  0.11690  0.24698  0.59805  1.0000
  H   H781      1.0  0.20698  0.48770  0.83778  1.0000
  H   H782      1.0  0.44220  0.28726  0.97057  1.0000
  C   C435      1.0  0.00743  0.48474  0.72463  1.0000
  H   H783      1.0  0.23403  0.31976  0.97055  1.0000
  H   H784      1.0  0.02068  0.41815  0.68170  1.0000
  H   H785      1.0  0.43946  0.26806  0.99049  1.0000
  C   C436      1.0  0.05474  0.64394  0.31212  1.0000
  H   H786      1.0  0.29386  0.53042  0.06008  1.0000
  Fe  Fe49      1.0  0.37107  0.72419  0.10730  1.0000
  S   S97       1.0  0.34177  0.70882  0.11877  1.0000
  S   S98       1.0  0.39761  0.71069  0.08940  1.0000
  H   H787      1.0  0.01558  0.54121  0.25137  1.0000
  Fe  Fe50      1.0  0.10233  0.61247  0.26662  1.0000
  S   S99       1.0  0.08364  0.61661  0.23870  1.0000
  S   S100      1.0  0.10833  0.64369  0.27947  1.0000
  Fe  Fe51      1.0  0.10506  0.56576  0.26127  1.0000
  S   S101      1.0  0.08668  0.56784  0.23348  1.0000
  S   S102      1.0  0.11843  0.53467  0.27118  1.0000
  Fe  Fe52      1.0  0.10614  0.59423  0.22403  1.0000
  S   S103      1.0  0.12010  0.59820  0.19154  1.0000
  Fe  Fe53      1.0  0.06628  0.58990  0.25087  1.0000
  S   S104      1.0  0.03252  0.58600  0.25908  1.0000
  S   S105      1.0  0.12544  0.59125  0.25114  1.0000
  S   S106      1.0  0.08401  0.58657  0.27941  1.0000
  Fe  Fe54      1.0  0.26539  0.61479  0.09683  1.0000
  S   S107      1.0  0.23184  0.62344  0.09801  1.0000
  S   S108      1.0  0.29122  0.63604  0.08646  1.0000
  Fe  Fe55      1.0  0.25616  0.56878  0.09998  1.0000
  S   S109      1.0  0.22247  0.57465  0.10082  1.0000
  S   S110      1.0  0.27209  0.53761  0.09924  1.0000
  Fe  Fe56      1.0  0.22909  0.59838  0.07613  1.0000
  S   S111      1.0  0.20986  0.60191  0.04834  1.0000
  Fe  Fe57      1.0  0.22809  0.59884  0.12278  1.0000
  S   S112      1.0  0.21192  0.59938  0.15462  1.0000
  S   S113      1.0  0.26220  0.59074  0.07389  1.0000
  S   S114      1.0  0.26213  0.59183  0.12296  1.0000
  S   S115      1.0  0.09587  0.71207  0.40726  1.0000
  C   C437      1.0  0.11478  0.49588  0.19395  1.0000
  Fe  Fe58      1.0  0.11642  0.71674  0.37968  1.0000
  S   S116      1.0  0.12329  0.68692  0.36297  1.0000
  H   H788      1.0  0.02840  0.65974  0.32461  1.0000
  H   H789      1.0  0.49246  0.66022  0.07430  1.0000
  C   C438      1.0  0.11646  0.73025  0.47902  1.0000
  C   C439      1.0  0.39612  0.74261  0.01605  1.0000
  C   C440      1.0  0.01104  0.69421  0.34080  1.0000
  C   C441      1.0  0.23882  0.51331  0.10232  1.0000
  C   C442      1.0  0.25991  0.51421  0.10024  1.0000
  C   C443      1.0  0.17567  0.54553  0.14307  1.0000
  H   H790      1.0  0.22960  0.52716  0.10290  1.0000
  H   H791      1.0  0.21828  0.54963  0.03100  1.0000
  C   C444      1.0  0.23174  0.59599  0.01119  1.0000
  C   C445      1.0  0.21295  0.59921  0.02169  1.0000
  C   C446      1.0  0.19530  0.60084  0.01066  1.0000
  H   H792      1.0  0.24544  0.59439  0.01963  1.0000
  H   H793      1.0  0.18073  0.60330  0.01850  1.0000
  C   C447      1.0  0.14580  0.59779  0.18164  1.0000
  C   C448      1.0  0.14954  0.60109  0.16061  1.0000
  C   C449      1.0  0.16954  0.60138  0.15204  1.0000
  C   C450      1.0  0.18622  0.59837  0.16439  1.0000
  C   C451      1.0  0.18251  0.59490  0.18542  1.0000
  C   C452      1.0  0.16250  0.59451  0.19398  1.0000
  H   H794      1.0  0.13682  0.60368  0.15086  1.0000
  H   H795      1.0  0.17201  0.60431  0.13591  1.0000
  H   H796      1.0  0.19524  0.59259  0.19519  1.0000
  H   H797      1.0  0.15999  0.59174  0.21013  1.0000
  C   C453      1.0  0.11150  0.65531  0.30315  1.0000
  C   C454      1.0  0.11210  0.67660  0.30341  1.0000
  C   C455      1.0  0.11520  0.68656  0.32153  1.0000
  C   C456      1.0  0.11785  0.67538  0.33979  1.0000
  C   C457      1.0  0.11718  0.65410  0.33953  1.0000
  C   C458      1.0  0.11389  0.64414  0.32144  1.0000
  H   H798      1.0  0.11041  0.68547  0.28940  1.0000
  H   H799      1.0  0.11616  0.70285  0.32126  1.0000
  H   H800      1.0  0.11943  0.64520  0.35344  1.0000
  H   H801      1.0  0.11361  0.62779  0.32161  1.0000
  C   C459      1.0  0.16826  0.55569  0.12339  1.0000
  H   H802      1.0  0.00001  0.68191  0.34130  1.0000
  H   H803      1.0  0.06125  0.74326  0.31139  1.0000
  H   H804      1.0  0.27037  0.56290  0.16034  1.0000
  H   H805      1.0  0.02178  0.60981  0.22198  1.0000
  H   H806      1.0  0.23057  0.51172  0.00422  1.0000
  C   C460      1.0  0.10556  0.51216  0.26734  1.0000
  C   C461      1.0  0.08544  0.51277  0.26136  1.0000
  C   C462      1.0  0.23937  0.54251  0.99809  1.0000
  H   H807      1.0  0.07742  0.52724  0.25900  1.0000
  C   C463      1.0  0.32815  0.68835  0.10955  1.0000
  C   C464      1.0  0.33315  0.67958  0.09094  1.0000
  C   C465      1.0  0.32171  0.66366  0.08424  1.0000
  C   C466      1.0  0.30518  0.65608  0.09603  1.0000
  C   C467      1.0  0.30017  0.66485  0.11462  1.0000
  C   C468      1.0  0.31152  0.68087  0.12125  1.0000
  H   H808      1.0  0.34581  0.68509  0.08169  1.0000
  H   H809      1.0  0.32581  0.65706  0.06986  1.0000
  H   H810      1.0  0.28753  0.65933  0.12389  1.0000
  H   H811      1.0  0.30742  0.68746  0.13564  1.0000
  C   C469      1.0  0.40597  0.73747  0.99756  1.0000
  H   H812      1.0  0.48062  0.72678  0.03067  1.0000
  H   H813      1.0  0.05009  0.65768  0.37683  1.0000
  H   H814      1.0  0.15752  0.69197  0.29098  1.0000
  H   H815      1.0  0.07485  0.71839  0.45948  1.0000
  N   N25       1.0  0.15946  0.65281  0.23247  1.0000
  C   C470      1.0  0.16833  0.66899  0.24451  1.0000
  C   C471      1.0  0.17189  0.65033  0.21293  1.0000
  C   C472      1.0  0.13840  0.66040  0.22684  1.0000
  C   C473      1.0  0.15794  0.63283  0.24431  1.0000
  C   C474      1.0  0.17476  0.62723  0.25965  1.0000
  C   C475      1.0  0.12682  0.64686  0.21297  1.0000
  C   C476      1.0  0.19440  0.64313  0.21468  1.0000
  C   C477      1.0  0.20576  0.64478  0.19405  1.0000
  C   C478      1.0  0.17306  0.60556  0.26829  1.0000
  C   C479      1.0  0.10539  0.65569  0.20955  1.0000
  H   H816      1.0  0.17080  0.68284  0.23466  1.0000
  H   H817      1.0  0.18363  0.66421  0.24969  1.0000
  H   H818      1.0  0.16541  0.63879  0.20357  1.0000
  H   H819      1.0  0.17133  0.66481  0.20364  1.0000
  H   H820      1.0  0.13897  0.67578  0.21928  1.0000
  H   H821      1.0  0.12838  0.66207  0.24071  1.0000
  H   H822      1.0  0.14334  0.63240  0.25338  1.0000
  H   H823      1.0  0.15735  0.62025  0.23368  1.0000
  H   H824      1.0  0.17337  0.63731  0.27270  1.0000
  H   H825      1.0  0.19019  0.62865  0.25277  1.0000
  H   H826      1.0  0.12562  0.63138  0.21994  1.0000
  H   H827      1.0  0.13436  0.64578  0.19771  1.0000
  H   H828      1.0  0.20255  0.65215  0.22525  1.0000
  H   H829      1.0  0.19527  0.62690  0.21974  1.0000
  H   H830      1.0  0.19810  0.63630  0.18257  1.0000
  H   H831      1.0  0.20660  0.66088  0.18869  1.0000
  H   H832      1.0  0.22147  0.63824  0.19531  1.0000
  H   H833      1.0  0.17414  0.59460  0.25594  1.0000
  H   H834      1.0  0.15843  0.60395  0.27704  1.0000
  H   H835      1.0  0.10600  0.67065  0.20131  1.0000
  H   H836      1.0  0.09717  0.64530  0.20027  1.0000
  H   H837      1.0  0.09680  0.65750  0.22423  1.0000
  H   H838      1.0  0.12611  0.53545  0.20019  1.0000
  H   H839      1.0  0.20583  0.51032  0.19938  1.0000
  C   C480      1.0  0.07269  0.71849  0.33123  1.0000
  S   S117      1.0  0.44638  0.70961  0.12280  1.0000
  C   C481      1.0  0.48756  0.70306  0.12395  1.0000
  C   C482      1.0  0.34474  0.73720  0.17902  1.0000
  H   H840      1.0  0.10469  0.49904  0.18101  1.0000
  H   H841      1.0  0.25582  0.52966  0.05892  1.0000
  C   C483      1.0  0.47023  0.68657  0.03083  1.0000
  H   H842      1.0  0.19282  0.56302  0.05465  1.0000
  H   H843      1.0  0.04495  0.64836  0.34300  1.0000
  H   H844      1.0  0.02159  0.64204  0.25387  1.0000
  H   H845      1.0  0.18610  0.50592  0.16491  1.0000
  C   C484      1.0  0.33963  0.70885  0.01422  1.0000
  H   H846      1.0  0.20785  0.52831  0.23118  1.0000
  H   H847      1.0  0.48532  0.69056  0.02394  1.0000
  C   C485      1.0  0.15523  0.67573  0.26336  1.0000
  H   H848      1.0  0.28807  0.49662  0.09736  1.0000
  H   H849      1.0  0.20485  0.53845  0.12760  1.0000
  C   C486      1.0  0.45504  0.67864  0.06536  1.0000
  H   H850      1.0  0.18557  0.60186  0.27875  1.0000
  H   H851      1.0  0.26833  0.53817  0.17251  1.0000
  H   H852      1.0  0.07852  0.64520  0.39714  1.0000
  H   H853      1.0  0.46137  0.66283  0.06506  1.0000
  C   C487      1.0  0.29220  0.54086  0.04657  1.0000
  H   H854      1.0  0.30797  0.59704  0.01376  1.0000
  C   C488      1.0  0.07768  0.66128  0.39159  1.0000
  C   C489      1.0  0.25481  0.53452  0.04263  1.0000
  N   N26       1.0  0.46827  0.69276  0.05265  1.0000
  C   C490      1.0  0.05498  0.67770  0.32914  1.0000
  H   H855      1.0  0.05541  0.65225  0.29714  1.0000
  C   C491      1.0  0.19922  0.54339  0.14282  1.0000
  H   H856      1.0  0.10768  0.50425  0.20697  1.0000
  H   H857      1.0  0.20816  0.51995  0.06680  1.0000
  H   H858      1.0  0.07694  0.70921  0.31800  1.0000
  C   C492      1.0  0.24168  0.52198  0.01025  1.0000
  C   C493      1.0  0.45429  0.69599  0.01601  1.0000
  H   H859      1.0  0.28142  0.51744  0.02896  1.0000
  H   H860      1.0  0.00128  0.67372  0.43340  1.0000
  H   H861      1.0  0.07174  0.67468  0.32784  1.0000
  C   C494      1.0  0.04702  0.72091  0.48961  1.0000
  H   H862      1.0  0.02581  0.69701  0.36969  1.0000
  H   H863      1.0  0.00987  0.66517  0.45800  1.0000
  H   H864      1.0  0.43251  0.66988  0.04424  1.0000
  C   C495      1.0  0.43285  0.67718  0.05904  1.0000
  H   H865      1.0  0.02569  0.67243  0.36100  1.0000
  C   C496      1.0  0.45980  0.71416  0.05467  1.0000
  C   C497      1.0  0.99921  0.71370  0.34655  1.0000
  H   H866      1.0  0.45656  0.71737  0.07093  1.0000
  N   N27       1.0  0.26918  0.64991  0.02031  1.0000
  H   H867      1.0  0.03644  0.53674  0.20920  1.0000
  C   C498      1.0  0.28300  0.66207  0.03242  1.0000
  C   C499      1.0  0.28033  0.63016  0.01525  1.0000
  C   C500      1.0  0.25011  0.64484  0.03260  1.0000
  C   C501      1.0  0.23586  0.66290  0.03881  1.0000
  H   H868      1.0  0.14582  0.53634  0.18062  1.0000
  C   C502      1.0  0.29141  0.61876  0.03294  1.0000
  C   C503      1.0  0.27991  0.68548  0.03135  1.0000
  C   C504      1.0  0.29158  0.69505  0.04781  1.0000
  C   C505      1.0  0.21533  0.65573  0.04715  1.0000
  H   H869      1.0  0.20435  0.55904  0.14398  1.0000
  C   C506      1.0  0.29780  0.59708  0.02759  1.0000
  H   H870      1.0  0.17132  0.54546  0.11063  1.0000
  H   H871      1.0  0.28427  0.58821  0.02506  1.0000
  H   H872      1.0  0.28215  0.65681  0.04869  1.0000
  H   H873      1.0  0.29915  0.65936  0.02728  1.0000
  H   H874      1.0  0.01673  0.69569  0.32479  1.0000
  H   H875      1.0  0.27002  0.54096  0.14509  1.0000
  H   H876      1.0  0.02863  0.68917  0.47859  1.0000
  H   H877      1.0  0.25388  0.63650  0.04703  1.0000
  H   H878      1.0  0.20741  0.64795  0.03533  1.0000
  H   H879      1.0  0.24272  0.67102  0.05106  1.0000
  H   H880      1.0  0.37644  0.72665  0.17560  1.0000
  H   H881      1.0  0.01137  0.70965  0.47358  1.0000
  H   H882      1.0  0.28170  0.61808  0.04691  1.0000
  H   H883      1.0  0.30535  0.62654  0.03650  1.0000
  H   H884      1.0  0.28574  0.69158  0.01637  1.0000
  H   H885      1.0  0.26381  0.69059  0.03319  1.0000
  H   H886      1.0  0.28995  0.71182  0.04624  1.0000
  H   H887      1.0  0.28553  0.69020  0.06313  1.0000
  H   H888      1.0  0.30798  0.69055  0.04656  1.0000
  H   H889      1.0  0.20561  0.66891  0.05201  1.0000
  C   C507      1.0  0.02583  0.70228  0.46780  1.0000
  H   H890      1.0  0.21732  0.64514  0.06046  1.0000
  H   H891      1.0  0.07043  0.63923  0.31628  1.0000
  C   C508      1.0  0.07551  0.49465  0.25884  1.0000
  H   H892      1.0  0.16851  0.53067  0.14509  1.0000
  C   C509      1.0  0.08751  0.67858  0.45326  1.0000
  Fe  Fe59      1.0  0.39791  0.74056  0.07179  1.0000
  H   H893      1.0  0.23711  0.56063  0.14552  1.0000
  H   H894      1.0  0.11998  0.53335  0.17391  1.0000
  H   H895      1.0  0.46994  0.66978  0.03022  1.0000
  C   C510      1.0  0.27655  0.53309  0.03267  1.0000
  H   H896      1.0  0.14044  0.50091  0.17248  1.0000
  S   S118      1.0  0.13824  0.73375  0.39775  1.0000
  Fe  Fe60      1.0  0.41784  0.72541  0.11057  1.0000
  C   C511      1.0  0.26446  0.66096  0.00046  1.0000
  H   H897      1.0  0.44482  0.71621  0.04783  1.0000
  C   C512      1.0  0.02098  0.74336  0.39666  1.0000
  N   N28       1.0  0.23862  0.52303  0.03299  1.0000
  C   C513      1.0  0.06206  0.70820  0.45782  1.0000
  N   N29       1.0  0.20803  0.52942  0.15918  1.0000
  H   H898      1.0  0.15163  0.55904  0.12485  1.0000
  H   H899      1.0  0.29206  0.63266  0.00287  1.0000
  H   H900      1.0  0.42105  0.73043  0.99760  1.0000
  C   C514      1.0  0.20110  0.53618  0.21772  1.0000
  H   H901      1.0  0.05989  0.49536  0.25437  1.0000
  H   H902      1.0  0.48592  0.73344  0.05582  1.0000
  H   H903      1.0  0.20612  0.52624  0.02913  1.0000
  C   C515      1.0  0.48903  0.69152  0.06166  1.0000
  H   H904      1.0  0.14673  0.50316  0.19872  1.0000
  H   H905      1.0  0.10030  0.68894  0.45288  1.0000
  H   H906      1.0  0.06049  0.70762  0.44112  1.0000
  H   H907      1.0  0.45474  0.68291  0.08158  1.0000
  H   H908      1.0  0.04051  0.71765  0.32978  1.0000
  H   H909      1.0  0.99611  0.56143  0.22598  1.0000
  H   H910      1.0  0.01624  0.51917  0.23634  1.0000
  H   H911      1.0  0.27720  0.54247  0.01835  1.0000
  H   H912      1.0  0.43582  0.72787  0.16627  1.0000
  C   C516      1.0  0.13141  0.52918  0.18543  1.0000
  C   C517      1.0  0.47352  0.73100  0.04548  1.0000
  H   H913      1.0  0.07482  0.68803  0.48186  1.0000
  Fe  Fe61      1.0  0.11576  0.73139  0.42431  1.0000
  H   H914      1.0  0.05764  0.67578  0.46627  1.0000
  H   H915      1.0  0.17590  0.57016  0.11999  1.0000
  H   H916      1.0  0.36010  0.70909  0.18909  1.0000
  H   H917      1.0  0.00945  0.72645  0.34775  1.0000
  H   H918      1.0  0.22270  0.54232  0.06841  1.0000
  C   C518      1.0  0.19124  0.54768  0.06183  1.0000
  H   H919      1.0  0.46488  0.74150  0.09644  1.0000
  H   H920      1.0  0.23825  0.51900  0.16784  1.0000
  H   H921      1.0  0.09339  0.66618  0.38829  1.0000
  H   H922      1.0  0.28758  0.55622  0.05171  1.0000
  H   H923      1.0  0.17010  0.55516  0.15571  1.0000
  C   C519      1.0  0.06414  0.68559  0.36411  1.0000
  H   H924      1.0  0.03496  0.68656  0.43962  1.0000
  H   H925      1.0  0.23591  0.52409  0.14158  1.0000
  H   H926      1.0  0.34607  0.72211  0.02103  1.0000
  C   C520      1.0  0.04455  0.65714  0.32841  1.0000
  H   H927      1.0  0.06052  0.69566  0.37702  1.0000
  H   H928      1.0  0.07993  0.68878  0.35908  1.0000
  H   H929      1.0  0.35890  0.71241  0.16194  1.0000
  H   H930      1.0  0.17419  0.70057  0.27033  1.0000
  C   C521      1.0  0.06525  0.66338  0.37254  1.0000
  H   H931      1.0  0.07050  0.67058  0.40375  1.0000
  C   C522      1.0  0.02827  0.68823  0.35564  1.0000
  C   C523      1.0  0.42085  0.66398  0.07443  1.0000
  H   H932      1.0  0.42099  0.67018  0.08981  1.0000
  H   H933      1.0  0.40483  0.66363  0.06995  1.0000
  H   H934      1.0  0.42740  0.64822  0.07504  1.0000
  H   H935      1.0  0.25057  0.55103  0.04283  1.0000
  H   H936      1.0  0.17992  0.67688  0.28419  1.0000
  C   C524      1.0  0.21112  0.53509  0.05973  1.0000
  N   N30       1.0  0.04281  0.71685  0.46790  1.0000
  H   H937      1.0  0.20264  0.55371  0.18004  1.0000
  H   H938      1.0  0.14252  0.68616  0.25850  1.0000
  H   H939      1.0  0.32283  0.71094  0.01495  1.0000
  H   H940      1.0  0.42488  0.69224  0.05795  1.0000
  N   N31       1.0  0.04971  0.69051  0.34723  1.0000
  C   C525      1.0  0.47184  0.71563  0.11615  1.0000
  C   C526      1.0  0.00920  0.59515  0.24905  1.0000
  C   C527      1.0  0.05187  0.71262  0.34106  1.0000
  H   H941      1.0  0.23274  0.67360  0.02587  1.0000
  S   S119      1.0  0.04559  0.73147  0.39844  1.0000
  C   C528      1.0  0.23089  0.52966  0.15671  1.0000
  H   H942      1.0  0.07282  0.65350  0.36104  1.0000
  C   C529      1.0  0.36107  0.72035  0.17617  1.0000
  H   H943      1.0  0.26969  0.61943  0.00931  1.0000
  S   S120      1.0  0.12675  0.72144  0.45565  1.0000
  C   C530      1.0  0.21821  0.53367  0.03712  1.0000
  C   C531      1.0  0.03490  0.54293  0.22459  1.0000
  H   H944      1.0  0.08489  0.71650  0.34224  1.0000
  H   H945      1.0  0.43852  0.69486  0.02214  1.0000
  C   C532      1.0  0.16757  0.68699  0.27804  1.0000
  H   H946      1.0  0.34424  0.69506  0.02337  1.0000
  H   H947      1.0  0.21338  0.49384  0.10614  1.0000
  H   H948      1.0  0.05114  0.68614  0.31475  1.0000
  C   C533      1.0  0.13484  0.50615  0.18751  1.0000
  H   H949      1.0  0.14854  0.66262  0.27179  1.0000
  H   H950      1.0  0.18708  0.54943  0.07811  1.0000
  H   H951      1.0  0.02243  0.65303  0.27829  1.0000
  H   H952      1.0  0.17881  0.54014  0.05463  1.0000
  C   C534      1.0  0.02135  0.69415  0.44679  1.0000
  C   C535      1.0  0.24062  0.55039  0.15873  1.0000
  C   C536      1.0  0.03630  0.73602  0.45631  1.0000
  H   H953      1.0  0.24110  0.63411  0.02453  1.0000
  H   H954      1.0  0.04867  0.72228  0.35439  1.0000
  H   H955      1.0  0.25674  0.51504  0.00600  1.0000
  H   H956      1.0  0.30719  0.54158  0.03837  1.0000
  C   C537      1.0  0.00801  0.60626  0.23061  1.0000
  H   H957      1.0  0.30610  0.58961  0.04035  1.0000
  H   H958      1.0  0.01607  0.70671  0.43639  1.0000
  H   H959      1.0  0.04609  0.63006  0.31068  1.0000
  H   H960      1.0  0.25682  0.67595  0.00289  1.0000
  C   C538      1.0  0.01545  0.53594  0.23563  1.0000
  H   H961      1.0  0.20480  0.55242  0.21766  1.0000
  H   H962      1.0  0.03489  0.55973  0.22322  1.0000
  C   C539      1.0  0.47681  0.73172  0.10261  1.0000
  S   S121      1.0  0.40899  0.73742  0.03882  1.0000
  C   C540      1.0  0.06962  0.68701  0.46616  1.0000
  H   H963      1.0  0.09289  0.66368  0.45983  1.0000
  S   S122      1.0  0.39140  0.73609  0.13062  1.0000
  H   H964      1.0  0.00620  0.71492  0.40076  1.0000
  C   C541      1.0  0.20968  0.52649  0.19838  1.0000
  H   H965      1.0  0.45679  0.71232  0.01283  1.0000
  H   H966      1.0  0.03526  0.73304  0.43998  1.0000
  C   C542      1.0  0.00475  0.67868  0.44871  1.0000
  C   C543      1.0  0.27173  0.49606  0.09911  1.0000
  H   H967      1.0  0.04826  0.53749  0.23328  1.0000
  H   H968      1.0  0.48393  0.69057  0.13440  1.0000
  H   H969      1.0  0.23524  0.55784  0.17279  1.0000
  H   H970      1.0  0.08295  0.67649  0.43752  1.0000
  C   C544      1.0  0.01332  0.65231  0.26459  1.0000
  C   C545      1.0  0.20045  0.53713  0.17942  1.0000
  C   C546      1.0  0.00399  0.73114  0.39851  1.0000
  H   H971      1.0  0.23490  0.50199  0.05889  1.0000
  Fe  Fe62      1.0  0.07887  0.74074  0.39747  1.0000
  H   H972      1.0  0.45284  0.66933  0.99780  1.0000
  C   C547      1.0  0.45582  0.68571  0.99566  1.0000
  C   C548      1.0  0.26374  0.54785  0.15920  1.0000
  H   H973      1.0  0.24713  0.55461  0.00547  1.0000
  H   H974      1.0  0.02065  0.74122  0.46114  1.0000
  C   C549      1.0  0.23757  0.50175  0.04218  1.0000
  H   H975      1.0  0.01179  0.66761  0.25708  1.0000
  C   C550      1.0  0.07213  0.74069  0.32373  1.0000
  H   H976      1.0  0.48806  0.69705  0.07740  1.0000
  H   H977      1.0  0.18375  0.53564  0.18135  1.0000
  H   H978      1.0  0.22640  0.52767  0.19813  1.0000
  H   H979      1.0  0.32989  0.72990  0.18044  1.0000
  C   C551      1.0  0.20065  0.50832  0.15617  1.0000
  H   H980      1.0  0.06080  0.72988  0.49034  1.0000
  H   H981      1.0  0.18434  0.53495  0.21911  1.0000
  H   H982      1.0  0.22305  0.54722  0.99715  1.0000
  H   H983      1.0  0.19703  0.50648  0.14000  1.0000
  H   H984      1.0  0.99900  0.54183  0.20833  1.0000
  C   C552      1.0  0.22970  0.49442  0.10415  1.0000
  C   C553      1.0  0.99630  0.54464  0.22474  1.0000
  H   H985      1.0  0.99510  0.62852  0.27665  1.0000
  H   H986      1.0  0.22438  0.49414  0.03623  1.0000
  S   S123      1.0  0.39913  0.72422  0.91667  1.0000
  S   S124      1.0  0.12293  0.73479  0.58913  1.0000
  Fe  Fe63      1.0  0.37867  0.72143  0.89020  1.0000
  S   S125      1.0  0.36726  0.68976  0.88383  1.0000
  C   C554      1.0  0.25602  0.71276  0.81520  1.0000
  H   H987      1.0  0.06374  0.63370  0.70497  1.0000
  Fe  Fe64      1.0  0.26506  0.61814  0.89774  1.0000
  S   S126      1.0  0.23084  0.62185  0.90109  1.0000
  S   S127      1.0  0.28075  0.64871  0.89961  1.0000
  Fe  Fe65      1.0  0.26166  0.57165  0.89475  1.0000
  S   S128      1.0  0.22779  0.57275  0.89837  1.0000
  S   S129      1.0  0.28031  0.54313  0.88669  1.0000
  Fe  Fe66      1.0  0.22843  0.59964  0.87627  1.0000
  S   S130      1.0  0.21225  0.60396  0.84577  1.0000
  Fe  Fe67      1.0  0.23304  0.59475  0.92290  1.0000
  S   S131      1.0  0.21339  0.59427  0.95211  1.0000
  S   S132      1.0  0.26252  0.59770  0.87156  1.0000
  S   S133      1.0  0.26705  0.59188  0.92074  1.0000
  S   S134      1.0  0.07446  0.72929  0.59609  1.0000
  C   C555      1.0  0.34752  0.70734  0.99221  1.0000
  H   H988      1.0  0.16654  0.66124  0.84700  1.0000
  C   C556      1.0  0.06542  0.71983  0.66444  1.0000
  Fe  Fe68      1.0  0.10224  0.72158  0.61418  1.0000
  S   S135      1.0  0.10215  0.68891  0.62813  1.0000
  Fe  Fe69      1.0  0.09993  0.57066  0.73838  1.0000
  S   S136      1.0  0.08447  0.57477  0.76903  1.0000
  S   S137      1.0  0.10253  0.54199  0.71999  1.0000
  Fe  Fe70      1.0  0.10795  0.61638  0.73215  1.0000
  S   S138      1.0  0.09384  0.62268  0.76296  1.0000
  S   S139      1.0  0.11975  0.64444  0.71428  1.0000
  Fe  Fe71      1.0  0.11099  0.59459  0.77463  1.0000
  S   S140      1.0  0.12615  0.59149  0.80580  1.0000
  Fe  Fe72      1.0  0.06892  0.60263  0.75460  1.0000
  S   S141      1.0  0.03683  0.61750  0.75398  1.0000
  S   S142      1.0  0.12684  0.58940  0.74425  1.0000
  S   S143      1.0  0.08274  0.59724  0.72356  1.0000
  H   H989      1.0  0.11926  0.71944  0.53010  1.0000
  C   C557      1.0  0.01284  0.60609  0.75594  1.0000
  C   C558      1.0  0.01025  0.58700  0.76536  1.0000
  H   H990      1.0  0.27724  0.56072  0.81768  1.0000
  H   H991      1.0  0.02328  0.57838  0.77103  1.0000
  H   H992      1.0  0.05082  0.70650  0.49817  1.0000
  C   C559      1.0  0.10549  0.51502  0.72150  1.0000
  H   H993      1.0  0.22977  0.58058  0.67419  1.0000
  H   H994      1.0  0.99619  0.67989  0.64131  1.0000
  H   H995      1.0  0.10988  0.51431  0.68908  1.0000
  C   C560      1.0  0.10616  0.67755  0.65274  1.0000
  C   C561      1.0  0.09866  0.65821  0.65750  1.0000
  C   C562      1.0  0.10206  0.64816  0.67645  1.0000
  C   C563      1.0  0.11352  0.65707  0.69077  1.0000
  C   C564      1.0  0.12105  0.67639  0.68603  1.0000
  C   C565      1.0  0.11723  0.68666  0.66727  1.0000
  H   H996      1.0  0.09020  0.65092  0.64636  1.0000
  H   H997      1.0  0.09614  0.63334  0.67978  1.0000
  H   H998      1.0  0.13000  0.68347  0.69692  1.0000
  H   H999      1.0  0.12327  0.70143  0.66384  1.0000
  C   C566      1.0  0.23259  0.50590  0.84601  1.0000
  H   H1000     1.0  0.07823  0.68962  0.69158  1.0000
  C   C567      1.0  0.11443  0.72698  0.51616  1.0000
  C   C568      1.0  0.01635  0.67042  0.72407  1.0000
  C   C569      1.0  0.18802  0.60063  0.83515  1.0000
  C   C570      1.0  0.17136  0.59334  0.84662  1.0000
  C   C571      1.0  0.15272  0.59067  0.83736  1.0000
  C   C572      1.0  0.15025  0.59531  0.81652  1.0000
  C   C573      1.0  0.16689  0.60274  0.80509  1.0000
  C   C574      1.0  0.18558  0.60531  0.81432  1.0000
  H   H1001     1.0  0.17278  0.58983  0.86265  1.0000
  H   H1002     1.0  0.14001  0.58503  0.84647  1.0000
  H   H1003     1.0  0.16537  0.60644  0.78910  1.0000
  H   H1004     1.0  0.19827  0.61095  0.80521  1.0000
  C   C575      1.0  0.27720  0.51654  0.88622  1.0000
  C   C576      1.0  0.29270  0.50523  0.87629  1.0000
  C   C577      1.0  0.06186  0.69412  0.69397  1.0000
  H   H1005     1.0  0.30564  0.51282  0.86943  1.0000
  H   H1006     1.0  0.18213  0.60039  0.98150  1.0000
  H   H1007     1.0  0.00042  0.69315  0.74251  1.0000
  H   H1008     1.0  0.29251  0.63819  0.95929  1.0000
  H   H1009     1.0  0.02879  0.62663  0.67703  1.0000
  H   H1010     1.0  0.26220  0.66494  0.95813  1.0000
  C   C578      1.0  0.03634  0.73730  0.52268  1.0000
  C   C579      1.0  0.34307  0.67860  0.88832  1.0000
  C   C580      1.0  0.32572  0.68981  0.89484  1.0000
  C   C581      1.0  0.30698  0.68036  0.89829  1.0000
  C   C582      1.0  0.30506  0.65961  0.89498  1.0000
  C   C583      1.0  0.32240  0.64836  0.88844  1.0000
  C   C584      1.0  0.34122  0.65780  0.88518  1.0000
  H   H1011     1.0  0.32672  0.70584  0.89695  1.0000
  H   H1012     1.0  0.29383  0.68930  0.90344  1.0000
  H   H1013     1.0  0.32135  0.63240  0.88586  1.0000
  H   H1014     1.0  0.35444  0.64890  0.88007  1.0000
  H   H1015     1.0  0.27121  0.71803  0.81004  1.0000
  C   C585      1.0  0.25851  0.69390  0.82919  1.0000
  C   C586      1.0  0.47731  0.72569  0.88465  1.0000
  H   H1016     1.0  0.02114  0.69058  0.69844  1.0000
  H   H1017     1.0  0.00563  0.50128  0.72669  1.0000
  C   C587      1.0  0.25625  0.65554  0.85236  1.0000
  C   C588      1.0  0.25938  0.64245  0.83341  1.0000
  C   C589      1.0  0.28153  0.63505  0.83044  1.0000
  H   H1018     1.0  0.25601  0.64473  0.86574  1.0000
  H   H1019     1.0  0.27012  0.66414  0.85397  1.0000
  H   H1020     1.0  0.21965  0.64334  0.86204  1.0000
  H   H1021     1.0  0.22047  0.64903  0.83553  1.0000
  H   H1022     1.0  0.24999  0.62888  0.83536  1.0000
  H   H1023     1.0  0.25471  0.65085  0.81937  1.0000
  H   H1024     1.0  0.28688  0.62683  0.84437  1.0000
  H   H1025     1.0  0.28301  0.62460  0.81769  1.0000
  H   H1026     1.0  0.29137  0.64805  0.82687  1.0000
  H   H1027     1.0  0.26763  0.68241  0.82060  1.0000
  H   H1028     1.0  0.34642  0.65321  0.95622  1.0000
  H   H1029     1.0  0.03277  0.50649  0.75779  1.0000
  H   H1030     1.0  0.18120  0.63929  0.85586  1.0000
  C   C590      1.0  0.33928  0.68850  0.98252  1.0000
  H   H1031     1.0  0.10175  0.51027  0.75393  1.0000
  H   H1032     1.0  0.24704  0.59255  0.98156  1.0000
  H   H1033     1.0  0.19337  0.53872  0.78919  1.0000
  N   N32       1.0  0.23739  0.66926  0.85288  1.0000
  H   H1034     1.0  0.25445  0.57461  0.82591  1.0000
  H   H1035     1.0  0.21151  0.57007  0.69230  1.0000
  H   H1036     1.0  0.05894  0.54072  0.74683  1.0000
  H   H1037     1.0  0.27195  0.56386  0.84432  1.0000
  H   H1038     1.0  0.05632  0.68948  0.66169  1.0000
  H   H1039     1.0  0.02108  0.72290  0.64228  1.0000
  C   C591      1.0  0.03000  0.68530  0.71172  1.0000
  H   H1040     1.0  0.17344  0.54497  0.80792  1.0000
  C   C592      1.0  0.18162  0.65317  0.84580  1.0000
  H   H1041     1.0  0.44545  0.73969  0.85364  1.0000
  C   C593      1.0  0.26056  0.50634  0.89516  1.0000
  H   H1042     1.0  0.31823  0.62906  0.95399  1.0000
  H   H1043     1.0  0.03726  0.63634  0.71177  1.0000
  H   H1044     1.0  0.19732  0.68098  0.84245  1.0000
  N   N33       1.0  0.34514  0.68567  0.96042  1.0000
  C   C594      1.0  0.07929  0.67589  0.75587  1.0000
  C   C595      1.0  0.33614  0.66670  0.95305  1.0000
  H   H1045     1.0  0.25806  0.63500  0.98184  1.0000
  C   C596      1.0  0.33913  0.70395  0.94723  1.0000
  H   H1046     1.0  0.16473  0.65031  0.72276  1.0000
  H   H1047     1.0  0.15410  0.73845  0.54933  1.0000
  C   C597      1.0  0.37723  0.67710  0.93770  1.0000
  C   C598      1.0  0.31519  0.66066  0.96247  1.0000
  C   C599      1.0  0.30742  0.64231  0.95229  1.0000
  C   C600      1.0  0.05401  0.70149  0.67291  1.0000
  H   H1048     1.0  0.20990  0.56558  0.66554  1.0000
  C   C601      1.0  0.36801  0.68292  0.95880  1.0000
  H   H1049     1.0  0.45506  0.73190  0.82916  1.0000
  H   H1050     1.0  0.24228  0.50452  0.83190  1.0000
  H   H1051     1.0  0.33496  0.66773  0.93621  1.0000
  H   H1052     1.0  0.48210  0.72827  0.97832  1.0000
  C   C602      1.0  0.21463  0.59642  0.97882  1.0000
  H   H1053     1.0  0.01174  0.65837  0.71422  1.0000
  H   H1054     1.0  0.34810  0.71711  0.95078  1.0000
  H   H1055     1.0  0.34324  0.70131  0.93104  1.0000
  H   H1056     1.0  0.05570  0.62403  0.67029  1.0000
  H   H1057     1.0  0.30763  0.69961  0.93992  1.0000
  H   H1058     1.0  0.17161  0.53153  0.88910  1.0000
  H   H1059     1.0  0.07042  0.66394  0.76404  1.0000
  H   H1060     1.0  0.37463  0.68969  0.92644  1.0000
  H   H1061     1.0  0.37055  0.66342  0.93200  1.0000
  H   H1062     1.0  0.19131  0.64337  0.71797  1.0000
  H   H1063     1.0  0.30361  0.67318  0.96106  1.0000
  H   H1064     1.0  0.02321  0.74319  0.53205  1.0000
  H   H1065     1.0  0.31010  0.71191  0.96363  1.0000
  H   H1066     1.0  0.09403  0.66912  0.75014  1.0000
  H   H1067     1.0  0.30543  0.64581  0.93591  1.0000
  H   H1068     1.0  0.40772  0.68612  0.94406  1.0000
  H   H1069     1.0  0.26467  0.53758  0.97625  1.0000
  N   N34       1.0  0.05071  0.67705  0.70486  1.0000
  C   C603      1.0  0.99685  0.68121  0.73200  1.0000
  H   H1070     1.0  0.06198  0.66007  0.67907  1.0000
  H   H1071     1.0  0.21604  0.52404  0.87828  1.0000
  H   H1072     1.0  0.34253  0.72149  0.98391  1.0000
  H   H1073     1.0  0.40643  0.66986  0.92296  1.0000
  C   C604      1.0  0.04589  0.53915  0.73695  1.0000
  C   C605      1.0  0.04413  0.62329  0.68298  1.0000
  N   N35       1.0  0.16254  0.60932  0.67565  1.0000
  C   C606      1.0  0.17736  0.59140  0.67746  1.0000
  C   C607      1.0  0.14165  0.60240  0.68201  1.0000
  C   C608      1.0  0.16328  0.61754  0.65396  1.0000
  C   C609      1.0  0.16788  0.62600  0.68919  1.0000
  C   C610      1.0  0.17044  0.61979  0.71191  1.0000
  H   H1074     1.0  0.08200  0.71620  0.66322  1.0000
  C   C611      1.0  0.14650  0.63377  0.64839  1.0000
  C   C612      1.0  0.13279  0.58651  0.66854  1.0000
  C   C613      1.0  0.11098  0.58213  0.67542  1.0000
  H   H1075     1.0  0.20317  0.60257  0.65857  1.0000
  C   C614      1.0  0.14929  0.64166  0.62642  1.0000
  H   H1076     1.0  0.17419  0.58003  0.66616  1.0000
  H   H1077     1.0  0.17527  0.58328  0.69249  1.0000
  H   H1078     1.0  0.14161  0.59544  0.69763  1.0000
  H   H1079     1.0  0.13068  0.61555  0.68299  1.0000
  H   H1080     1.0  0.16270  0.60507  0.64320  1.0000
  H   H1081     1.0  0.17804  0.62463  0.65030  1.0000
  H   H1082     1.0  0.18192  0.63336  0.68336  1.0000
  H   H1083     1.0  0.15594  0.63836  0.68888  1.0000
  H   H1084     1.0  0.18232  0.60760  0.71394  1.0000
  H   H1085     1.0  0.15601  0.61445  0.71894  1.0000
  H   H1086     1.0  0.24526  0.55565  0.96784  1.0000
  H   H1087     1.0  0.03053  0.69809  0.63434  1.0000
  H   H1088     1.0  0.14680  0.64698  0.65815  1.0000
  H   H1089     1.0  0.13124  0.62739  0.65002  1.0000
  H   H1090     1.0  0.13262  0.59173  0.65238  1.0000
  H   H1091     1.0  0.14179  0.57196  0.66966  1.0000
  H   H1092     1.0  0.10099  0.59600  0.67385  1.0000
  H   H1093     1.0  0.10511  0.57029  0.66601  1.0000
  H   H1094     1.0  0.11038  0.57646  0.69148  1.0000
  H   H1095     1.0  0.03324  0.51703  0.71876  1.0000
  H   H1096     1.0  0.08244  0.68758  0.76679  1.0000
  C   C615      1.0  0.21358  0.57686  0.67671  1.0000
  H   H1097     1.0  0.16407  0.64901  0.62400  1.0000
  H   H1098     1.0  0.14851  0.62913  0.61582  1.0000
  H   H1099     1.0  0.13699  0.65314  0.62292  1.0000
  C   C616      1.0  0.31293  0.73133  0.93719  1.0000
  C   C617      1.0  0.00068  0.70754  0.62346  1.0000
  H   H1100     1.0  0.18646  0.56476  0.79397  1.0000
  C   C618      1.0  0.24804  0.54100  0.97635  1.0000
  H   H1101     1.0  0.26003  0.70972  0.90480  1.0000
  H   H1102     1.0  0.05615  0.65676  0.73116  1.0000
  H   H1103     1.0  0.24971  0.70734  0.86978  1.0000
  H   H1104     1.0  0.06035  0.51551  0.71978  1.0000
  S   S144      1.0  0.39846  0.74127  0.86900  1.0000
  H   H1105     1.0  0.24754  0.70934  0.80164  1.0000
  C   C619      1.0  0.06318  0.66963  0.72259  1.0000
  H   H1106     1.0  0.05300  0.69221  0.74493  1.0000
  H   H1107     1.0  0.02407  0.66341  0.73738  1.0000
  N   N36       1.0  0.22074  0.52601  0.84569  1.0000
  C   C620      1.0  0.23581  0.54246  0.84688  1.0000
  C   C621      1.0  0.20687  0.52634  0.86446  1.0000
  H   H1108     1.0  0.07661  0.69782  0.73142  1.0000
  C   C622      1.0  0.20867  0.52783  0.82664  1.0000
  C   C623      1.0  0.20409  0.54952  0.81755  1.0000
  C   C624      1.0  0.25369  0.54176  0.83086  1.0000
  H   H1109     1.0  0.46450  0.71620  0.88336  1.0000
  C   C625      1.0  0.19283  0.54549  0.86703  1.0000
  C   C626      1.0  0.18136  0.54483  0.88763  1.0000
  C   C627      1.0  0.18840  0.54937  0.80116  1.0000
  C   C628      1.0  0.26494  0.56151  0.82964  1.0000
  C   C629      1.0  0.04887  0.66028  0.69016  1.0000
  H   H1110     1.0  0.24273  0.54169  0.86205  1.0000
  H   H1111     1.0  0.22826  0.55776  0.84585  1.0000
  H   H1112     1.0  0.03768  0.70604  0.67385  1.0000
  H   H1113     1.0  0.00694  0.59786  0.81828  1.0000
  C   C630      1.0  0.25094  0.64977  0.98616  1.0000
  H   H1114     1.0  0.07819  0.66340  0.71689  1.0000
  H   H1115     1.0  0.21660  0.51943  0.81414  1.0000
  C   C631      1.0  0.40014  0.67286  0.93847  1.0000
  H   H1116     1.0  0.21806  0.55594  0.81047  1.0000
  H   H1117     1.0  0.19825  0.56006  0.82911  1.0000
  H   H1118     1.0  0.26488  0.52942  0.83515  1.0000
  H   H1119     1.0  0.24837  0.53884  0.81559  1.0000
  C   C632      1.0  0.10900  0.50535  0.70315  1.0000
  H   H1120     1.0  0.17152  0.55879  0.88911  1.0000
  H   H1121     1.0  0.20141  0.55955  0.86597  1.0000
  H   H1122     1.0  0.18121  0.54632  0.85530  1.0000
  H   H1123     1.0  0.24055  0.52902  0.96842  1.0000
  H   H1124     1.0  0.03150  0.54271  0.74565  1.0000
  C   C633      1.0  0.21945  0.65615  0.85054  1.0000
  H   H1125     1.0  0.26687  0.68649  0.87690  1.0000
  H   H1126     1.0  0.23437  0.66592  0.88555  1.0000
  C   C634      1.0  0.23500  0.67829  0.87354  1.0000
  H   H1127     1.0  0.25089  0.68494  0.91149  1.0000
  H   H1128     1.0  0.19416  0.67076  0.86812  1.0000
  C   C635      1.0  0.24860  0.69863  0.90135  1.0000
  H   H1129     1.0  0.22045  0.68723  0.87509  1.0000
  C   C636      1.0  0.02939  0.73147  0.50199  1.0000
  H   H1130     1.0  0.17777  0.63305  0.74008  1.0000
  H   H1131     1.0  0.04735  0.55035  0.72402  1.0000
  C   C637      1.0  0.17647  0.63778  0.72383  1.0000
  H   H1132     1.0  0.18443  0.64873  0.82985  1.0000
  C   C638      1.0  0.04600  0.51775  0.72898  1.0000
  C   C639      1.0  0.19808  0.66692  0.85220  1.0000
  C   C640      1.0  0.25128  0.69305  0.87912  1.0000
  H   H1133     1.0  0.03135  0.69906  0.72062  1.0000
  C   C641      1.0  0.04861  0.63819  0.69913  1.0000
  H   H1134     1.0  0.23095  0.68008  0.82222  1.0000
  H   H1135     1.0  0.23322  0.70555  0.90449  1.0000
  H   H1136     1.0  0.04458  0.60764  0.68982  1.0000
  H   H1137     1.0  0.03525  0.66317  0.68087  1.0000
  C   C642      1.0  0.02195  0.71221  0.62970  1.0000
  C   C643      1.0  0.06737  0.68554  0.73836  1.0000
  H   H1138     1.0  0.24855  0.51487  0.90303  1.0000
  H   H1139     1.0  0.22736  0.69866  0.84067  1.0000
  C   C644      1.0  0.23753  0.68560  0.83616  1.0000
  H   H1140     1.0  0.37535  0.69712  0.96244  1.0000
  H   H1141     1.0  0.23793  0.65378  0.95654  1.0000
  H   H1142     1.0  0.04340  0.72402  0.53100  1.0000
  H   H1143     1.0  0.20491  0.60699  0.68514  1.0000
  H   H1144     1.0  0.03042  0.71946  0.61667  1.0000
  H   H1145     1.0  0.37332  0.67109  0.97014  1.0000
  H   H1146     1.0  0.00244  0.69858  0.60958  1.0000
  H   H1147     1.0  0.06141  0.70771  0.70340  1.0000
  H   H1148     1.0  0.24332  0.50503  0.85861  1.0000
  C   C645      1.0  0.04499  0.50155  0.74670  1.0000
  C   C646      1.0  0.39648  0.74147  0.97900  1.0000
  H   H1149     1.0  0.01665  0.72113  0.50464  1.0000
  C   C647      1.0  0.24753  0.66222  0.96646  1.0000
  H   H1150     1.0  0.26758  0.69791  0.84203  1.0000
  C   C648      1.0  0.31636  0.71061  0.94791  1.0000
  H   H1151     1.0  0.40353  0.65937  0.94852  1.0000
  H   H1152     1.0  0.05954  0.50296  0.75448  1.0000
  H   H1153     1.0  0.19394  0.52033  0.82931  1.0000
  C   C649      1.0  0.10439  0.50302  0.73963  1.0000
  C   C650      1.0  0.20012  0.59611  0.67412  1.0000
  H   H1154     1.0  0.19634  0.51366  0.86479  1.0000
  H   H1155     1.0  0.44431  0.69276  0.98546  1.0000
  H   H1156     1.0  0.19212  0.54407  0.90018  1.0000
  H   H1157     1.0  0.24782  0.72520  0.82338  1.0000
  H   H1158     1.0  0.32085  0.74313  0.94498  1.0000
  H   H1159     1.0  0.29646  0.73554  0.93740  1.0000
  H   H1160     1.0  0.31654  0.65631  0.97881  1.0000
  C   C651      1.0  0.12295  0.72093  0.49731  1.0000
  H   H1161     1.0  0.36434  0.70654  0.99236  1.0000
  H   H1162     1.0  0.13442  0.70875  0.49687  1.0000
  H   H1163     1.0  0.31864  0.73109  0.92116  1.0000
  H   H1164     1.0  0.48175  0.72440  0.95132  1.0000
  C   C652      1.0  0.47850  0.73544  0.96335  1.0000
  C   C653      1.0  0.09921  0.74232  0.51680  1.0000
  H   H1165     1.0  0.32258  0.68962  0.98504  1.0000
  C   C654      1.0  0.23263  0.59492  0.98967  1.0000
  H   H1166     1.0  0.44717  0.72648  0.96628  1.0000
  H   H1167     1.0  0.06026  0.72428  0.64901  1.0000
  H   H1168     1.0  0.47111  0.68750  0.98829  1.0000
  H   H1169     1.0  0.42926  0.74180  0.83208  1.0000
  C   C655      1.0  0.99566  0.61714  0.74884  1.0000
  H   H1170     1.0  0.34444  0.67488  0.99173  1.0000
  H   H1171     1.0  0.40420  0.73750  0.96487  1.0000
  H   H1172     1.0  0.06256  0.73297  0.67426  1.0000
  C   C656      1.0  0.19611  0.59925  0.98958  1.0000
  H   H1173     1.0  0.99748  0.63188  0.74149  1.0000
  H   H1174     1.0  0.23962  0.67698  0.96966  1.0000
  C   C657      1.0  0.45566  0.74053  0.96358  1.0000
  H   H1175     1.0  0.27888  0.66436  0.99190  1.0000
  C   C658      1.0  0.44500  0.74321  0.83706  1.0000
  H   H1176     1.0  0.23580  0.64708  0.99349  1.0000
  S   S145      1.0  0.41943  0.75446  0.09237  1.0000
  H   H1177     1.0  0.32402  0.81707  0.35850  1.0000
  C   C659      1.0  0.10181  0.74610  0.47975  1.0000
  H   H1178     1.0  0.29338  0.79009  0.17917  1.0000
  Fe  Fe73      1.0  0.39195  0.76475  0.11131  1.0000
  S   S146      1.0  0.39114  0.79681  0.12405  1.0000
  Fe  Fe74      1.0  0.38655  0.91064  0.23563  1.0000
  S   S147      1.0  0.40588  0.90894  0.26265  1.0000
  S   S148      1.0  0.36949  0.94081  0.22857  1.0000
  Fe  Fe75      1.0  0.39283  0.86437  0.22864  1.0000
  S   S149      1.0  0.41194  0.86046  0.25640  1.0000
  S   S150      1.0  0.38851  0.83427  0.21271  1.0000
  Fe  Fe76      1.0  0.38834  0.88120  0.27204  1.0000
  S   S151      1.0  0.37570  0.87964  0.30524  1.0000
  Fe  Fe77      1.0  0.42728  0.88861  0.24452  1.0000
  S   S152      1.0  0.46079  0.89455  0.23660  1.0000
  S   S153      1.0  0.36843  0.88331  0.24528  1.0000
  S   S154      1.0  0.40882  0.89202  0.21641  1.0000
  N   N37       1.0  0.21237  0.85682  0.47948  1.0000
  H   H1179     1.0  0.34976  0.79627  0.10532  1.0000
  Fe  Fe78      1.0  0.11972  0.76206  0.38947  1.0000
  S   S155      1.0  0.13506  0.79155  0.37825  1.0000
  H   H1180     1.0  0.41703  0.74826  0.16370  1.0000
  S   S156      1.0  0.09762  0.75999  0.41669  1.0000
  Fe  Fe79      1.0  0.25980  0.89410  0.42116  1.0000
  S   S157      1.0  0.22606  0.89810  0.41818  1.0000
  S   S158      1.0  0.27271  0.90422  0.45057  1.0000
  Fe  Fe80      1.0  0.26732  0.88402  0.37589  1.0000
  S   S159      1.0  0.23366  0.88741  0.37061  1.0000
  S   S160      1.0  0.28562  0.87589  0.34647  1.0000
  Fe  Fe81      1.0  0.23410  0.91535  0.38908  1.0000
  S   S161      1.0  0.21914  0.94529  0.37810  1.0000
  Fe  Fe82      1.0  0.22845  0.86972  0.40014  1.0000
  S   S162      1.0  0.20854  0.84238  0.40905  1.0000
  S   S163      1.0  0.26771  0.91293  0.39271  1.0000
  S   S164      1.0  0.26220  0.86471  0.40475  1.0000
  H   H1181     1.0  0.25148  0.82002  0.39538  1.0000
  C   C660      1.0  0.27038  0.89347  0.47562  1.0000
  H   H1182     1.0  0.29225  0.79941  0.35618  1.0000
  C   C661      1.0  0.37188  0.93266  0.30273  1.0000
  H   H1183     1.0  0.28026  0.86336  0.46769  1.0000
  C   C662      1.0  0.23595  0.96865  0.40646  1.0000
  C   C663      1.0  0.22449  0.96840  0.38915  1.0000
  C   C664      1.0  0.49142  0.77357  0.13297  1.0000
  H   H1184     1.0  0.24157  0.95453  0.41345  1.0000
  H   H1185     1.0  0.47152  0.98482  0.21890  1.0000
  C   C665      1.0  0.15553  0.80544  0.38720  1.0000
  C   C666      1.0  0.16529  0.80001  0.40521  1.0000
  C   C667      1.0  0.18121  0.81162  0.41167  1.0000
  C   C668      1.0  0.18780  0.82880  0.40027  1.0000
  C   C669      1.0  0.17808  0.83423  0.38227  1.0000
  C   C670      1.0  0.16210  0.82267  0.37585  1.0000
  H   H1186     1.0  0.16052  0.78687  0.41418  1.0000
  H   H1187     1.0  0.18853  0.80715  0.42561  1.0000
  H   H1188     1.0  0.18274  0.84742  0.37334  1.0000
  H   H1189     1.0  0.15468  0.82717  0.36196  1.0000
  H   H1190     1.0  0.22469  0.91727  0.46178  1.0000
  H   H1191     1.0  0.29762  0.91878  0.32944  1.0000
  C   C671      1.0  0.29150  0.81414  0.36367  1.0000
  H   H1192     1.0  0.32384  0.80772  0.21382  1.0000
  H   H1193     1.0  0.20812  0.98685  0.36708  1.0000
  H   H1194     1.0  0.31030  0.84046  0.36388  1.0000
  H   H1195     1.0  0.48015  0.78680  0.16113  1.0000
  C   C672      1.0  0.35032  0.87955  0.31609  1.0000
  C   C673      1.0  0.33367  0.87457  0.30507  1.0000
  C   C674      1.0  0.31409  0.87374  0.31459  1.0000
  C   C675      1.0  0.31069  0.87808  0.33521  1.0000
  C   C676      1.0  0.32725  0.88352  0.34613  1.0000
  C   C677      1.0  0.34689  0.88409  0.33667  1.0000
  H   H1196     1.0  0.33595  0.87094  0.28929  1.0000
  H   H1197     1.0  0.30148  0.86954  0.30590  1.0000
  H   H1198     1.0  0.32502  0.88686  0.36198  1.0000
  H   H1199     1.0  0.35959  0.88787  0.34544  1.0000
  C   C678      1.0  0.39901  0.96764  0.23747  1.0000
  C   C679      1.0  0.37888  0.96511  0.23255  1.0000
  C   C680      1.0  0.32294  0.91504  0.25944  1.0000
  H   H1200     1.0  0.40919  0.95449  0.23937  1.0000
  H   H1201     1.0  0.35038  0.98065  0.22606  1.0000
  H   H1202     1.0  0.15747  0.80689  0.47388  1.0000
  H   H1203     1.0  0.08745  0.74478  0.31772  1.0000
  H   H1204     1.0  0.20764  0.86044  0.34664  1.0000
  H   H1205     1.0  0.16414  0.83735  0.44501  1.0000
  H   H1206     1.0  0.47177  0.87462  0.27569  1.0000
  C   C681      1.0  0.39054  0.80686  0.14890  1.0000
  C   C682      1.0  0.39071  0.82800  0.15082  1.0000
  C   C683      1.0  0.39042  0.83669  0.17008  1.0000
  C   C684      1.0  0.38987  0.82434  0.18782  1.0000
  C   C685      1.0  0.38980  0.80318  0.18588  1.0000
  C   C686      1.0  0.39011  0.79450  0.16663  1.0000
  H   H1207     1.0  0.39101  0.83781  0.13728  1.0000
  H   H1208     1.0  0.39037  0.85297  0.17120  1.0000
  H   H1209     1.0  0.38940  0.79342  0.19944  1.0000
  H   H1210     1.0  0.39009  0.77824  0.16556  1.0000
  H   H1211     1.0  0.44661  0.78907  0.07647  1.0000
  C   C687      1.0  0.36592  0.98242  0.23006  1.0000
  H   H1212     1.0  0.05156  0.75885  0.47316  1.0000
  H   H1213     1.0  0.20231  0.83792  0.33347  1.0000
  C   C688      1.0  0.33635  0.81289  0.20336  1.0000
  H   H1214     1.0  0.21397  0.85896  0.31994  1.0000
  H   H1215     1.0  0.46812  0.80406  0.06934  1.0000
  H   H1216     1.0  0.35110  0.80742  0.20952  1.0000
  H   H1217     1.0  0.47101  0.84869  0.23487  1.0000
  H   H1218     1.0  0.39596  0.94240  0.32137  1.0000
  H   H1219     1.0  0.47230  0.76332  0.03807  1.0000
  H   H1220     1.0  0.16711  0.86349  0.43677  1.0000
  H   H1221     1.0  0.26567  0.82293  0.44175  1.0000
  C   C689      1.0  0.46092  0.80226  0.10171  1.0000
  C   C690      1.0  0.46881  0.93939  0.27975  1.0000
  C   C691      1.0  0.32935  0.94545  0.31693  1.0000
  H   H1222     1.0  0.32827  0.77526  0.19538  1.0000
  H   H1223     1.0  0.24229  0.84586  0.48828  1.0000
  C   C692      1.0  0.48421  0.88846  0.24812  1.0000
  H   H1224     1.0  0.29335  0.81136  0.38020  1.0000
  H   H1225     1.0  0.23515  0.77874  0.38508  1.0000
  H   H1226     1.0  0.02687  0.77719  0.45008  1.0000
  C   C693      1.0  0.30606  0.94928  0.31999  1.0000
  H   H1227     1.0  0.31807  0.95335  0.27318  1.0000
  H   H1228     1.0  0.45845  0.82453  0.13348  1.0000
  H   H1229     1.0  0.06761  0.75077  0.33634  1.0000
  H   H1230     1.0  0.48810  0.93152  0.25434  1.0000
  H   H1231     1.0  0.45101  0.81627  0.10067  1.0000
  H   H1232     1.0  0.03070  0.77391  0.39202  1.0000
  H   H1233     1.0  0.32389  0.80623  0.10844  1.0000
  H   H1234     1.0  0.40147  0.91889  0.30910  1.0000
  H   H1235     1.0  0.32669  0.79985  0.14534  1.0000
  H   H1236     1.0  0.30090  0.96019  0.40184  1.0000
  C   C694      1.0  0.01783  0.76430  0.39362  1.0000
  H   H1237     1.0  0.29474  0.79285  0.15177  1.0000
  H   H1238     1.0  0.26017  0.78581  0.16472  1.0000
  C   C695      1.0  0.16225  0.85328  0.44971  1.0000
  C   C696      1.0  0.29814  0.99045  0.38777  1.0000
  H   H1239     1.0  0.34377  0.94796  0.26615  1.0000
  H   H1240     1.0  0.23962  0.83136  0.32674  1.0000
  C   C697      1.0  0.25139  0.80694  0.38523  1.0000
  H   H1241     1.0  0.21867  0.80090  0.38852  1.0000
  H   H1242     1.0  0.44283  0.84905  0.18114  1.0000
  C   C698      1.0  0.33225  0.97726  0.29703  1.0000
  H   H1243     1.0  0.19855  0.83518  0.46084  1.0000
  H   H1244     1.0  0.23035  0.83604  0.44521  1.0000
  H   H1245     1.0  0.32024  0.89856  0.26084  1.0000
  H   H1246     1.0  0.48619  0.80443  0.14122  1.0000
  C   C699      1.0  0.49284  0.84069  0.21041  1.0000
  C   C700      1.0  0.24106  0.84005  0.45671  1.0000
  H   H1247     1.0  0.46968  0.94347  0.29583  1.0000
  N   N38       1.0  0.45618  0.79226  0.13988  1.0000
  C   C701      1.0  0.45205  0.78745  0.11832  1.0000
  C   C702      1.0  0.44357  0.77898  0.15415  1.0000
  C   C703      1.0  0.44884  0.81397  0.14281  1.0000
  H   H1248     1.0  0.23213  0.88077  0.48589  1.0000
  H   H1249     1.0  0.46002  0.95144  0.27129  1.0000
  H   H1250     1.0  0.33597  0.82972  0.20274  1.0000
  C   C704      1.0  0.44839  0.82132  0.16486  1.0000
  H   H1251     1.0  0.35145  0.78894  0.14314  1.0000
  C   C705      1.0  0.39430  0.93433  0.30716  1.0000
  H   H1252     1.0  0.47176  0.82224  0.22878  1.0000
  H   H1253     1.0  0.34025  0.98360  0.26474  1.0000
  C   C706      1.0  0.44518  0.84434  0.16524  1.0000
  H   H1254     1.0  0.43536  0.78752  0.11624  1.0000
  H   H1255     1.0  0.45751  0.77188  0.11485  1.0000
  H   H1256     1.0  0.44569  0.78259  0.17020  1.0000
  H   H1257     1.0  0.42720  0.78204  0.15132  1.0000
  H   H1258     1.0  0.43315  0.81654  0.13724  1.0000
  C   C707      1.0  0.37664  0.75175  0.01587  1.0000
  H   H1259     1.0  0.36109  0.75726  0.15782  1.0000
  H   H1260     1.0  0.30713  0.75549  0.17870  1.0000
  H   H1261     1.0  0.22563  0.82646  0.48320  1.0000
  H   H1262     1.0  0.33543  0.98425  0.31160  1.0000
  H   H1263     1.0  0.26945  0.82685  0.46817  1.0000
  H   H1264     1.0  0.16898  0.84624  0.48077  1.0000
  C   C708      1.0  0.14233  0.80012  0.47536  1.0000
  H   H1265     1.0  0.43551  0.81468  0.17385  1.0000
  H   H1266     1.0  0.09718  0.75375  0.46583  1.0000
  C   C709      1.0  0.29300  0.78193  0.16486  1.0000
  H   H1267     1.0  0.30281  0.96473  0.32563  1.0000
  C   C710      1.0  0.32787  0.92267  0.28013  1.0000
  H   H1268     1.0  0.14243  0.78703  0.46531  1.0000
  C   C711      1.0  0.20397  0.89553  0.47620  1.0000
  C   C712      1.0  0.24029  0.98720  0.41473  1.0000
  H   H1269     1.0  0.31556  0.97915  0.29530  1.0000
  H   H1270     1.0  0.19435  0.89486  0.49033  1.0000
  H   H1271     1.0  0.49388  0.82948  0.19836  1.0000
  C   C713      1.0  0.47845  0.78995  0.14456  1.0000
  H   H1272     1.0  0.35208  0.76287  0.99727  1.0000
  H   H1273     1.0  0.27046  0.76538  0.14970  1.0000
  H   H1274     1.0  0.45861  0.85197  0.15832  1.0000
  C   C714      1.0  0.23350  0.79363  0.39228  1.0000
  N   N39       1.0  0.33131  0.77148  0.16283  1.0000
  H   H1275     1.0  0.23105  0.80381  0.42332  1.0000
  N   N40       1.0  0.25198  0.81451  0.36331  1.0000
  C   C715      1.0  0.23424  0.82932  0.36015  1.0000
  C   C716      1.0  0.27117  0.82609  0.35963  1.0000
  C   C717      1.0  0.25241  0.79713  0.34909  1.0000
  C   C718      1.0  0.23158  0.78982  0.34269  1.0000
  C   C719      1.0  0.23432  0.84112  0.33930  1.0000
  C   C720      1.0  0.23415  0.76996  0.33165  1.0000
  C   C721      1.0  0.21323  0.85012  0.33460  1.0000
  H   H1276     1.0  0.23373  0.84093  0.37193  1.0000
  H   H1277     1.0  0.21957  0.82183  0.36244  1.0000
  H   H1278     1.0  0.27065  0.83972  0.36902  1.0000
  H   H1279     1.0  0.27240  0.83197  0.34360  1.0000
  H   H1280     1.0  0.26093  0.80112  0.33465  1.0000
  H   H1281     1.0  0.26108  0.78385  0.35581  1.0000
  H   H1282     1.0  0.22429  0.80118  0.33218  1.0000
  H   H1283     1.0  0.22078  0.78740  0.35571  1.0000
  H   H1284     1.0  0.24478  0.85386  0.33947  1.0000
  H   H1285     1.0  0.26512  0.79733  0.38862  1.0000
  H   H1286     1.0  0.31351  0.77303  0.12360  1.0000
  H   H1287     1.0  0.30893  0.82968  0.33925  1.0000
  C   C722      1.0  0.30974  0.82610  0.35580  1.0000
  C   C723      1.0  0.22002  0.87783  0.47540  1.0000
  C   C724      1.0  0.17468  0.85653  0.46827  1.0000
  C   C725      1.0  0.36714  0.75575  0.99731  1.0000
  C   C726      1.0  0.23321  0.78943  0.41524  1.0000
  H   H1288     1.0  0.22037  0.77968  0.41980  1.0000
  H   H1289     1.0  0.40241  0.94247  0.29440  1.0000
  S   S165      1.0  0.09921  0.74519  0.36942  1.0000
  C   C727      1.0  0.33222  0.94559  0.27872  1.0000
  H   H1290     1.0  0.30509  0.93379  0.34995  1.0000
  H   H1291     1.0  0.31889  0.81071  0.17696  1.0000
  H   H1292     1.0  0.45076  0.75021  0.03022  1.0000
  H   H1293     1.0  0.24757  0.78152  0.41986  1.0000
  H   H1294     1.0  0.33579  0.91739  0.24833  1.0000
  C   C728      1.0  0.27528  0.87300  0.47991  1.0000
  H   H1295     1.0  0.46057  0.92509  0.27932  1.0000
  H   H1296     1.0  0.47634  0.80675  0.10525  1.0000
  H   H1297     1.0  0.31454  0.99022  0.38359  1.0000
  H   H1298     1.0  0.22258  0.91778  0.48918  1.0000
  N   N41       1.0  0.33876  0.95502  0.29780  1.0000
  C   C729      1.0  0.26507  0.90608  0.49183  1.0000
  H   H1299     1.0  0.29534  0.96066  0.37532  1.0000
  H   H1300     1.0  0.45983  0.84106  0.21220  1.0000
  H   H1301     1.0  0.13056  0.81146  0.47015  1.0000
  H   H1302     1.0  0.05259  0.78524  0.44615  1.0000
  H   H1303     1.0  0.47216  0.77915  0.08094  1.0000
  H   H1304     1.0  0.14590  0.85662  0.45334  1.0000
  H   H1305     1.0  0.06579  0.74997  0.45115  1.0000
  H   H1306     1.0  0.20183  0.85934  0.44878  1.0000
  H   H1307     1.0  0.44587  0.75049  0.13787  1.0000
  H   H1308     1.0  0.32987  0.78581  0.09165  1.0000
  C   C730      1.0  0.27193  0.77330  0.16406  1.0000
  H   H1309     1.0  0.34572  0.81230  0.17189  1.0000
  C   C731      1.0  0.36160  0.95387  0.29905  1.0000
  H   H1310     1.0  0.25166  0.80853  0.46098  1.0000
  C   C732      1.0  0.46200  0.79298  0.08086  1.0000
  H   H1311     1.0  0.33649  0.95105  0.33053  1.0000
  C   C733      1.0  0.25798  0.82355  0.45702  1.0000
  C   C734      1.0  0.19759  0.85172  0.46365  1.0000
  C   C735      1.0  0.23033  0.84189  0.47802  1.0000
  H   H1312     1.0  0.46273  0.81695  0.17243  1.0000
  H   H1313     1.0  0.46319  0.75162  0.15839  1.0000
  C   C736      1.0  0.33677  0.78176  0.18188  1.0000
  H   H1314     1.0  0.22749  0.87920  0.46007  1.0000
  C   C737      1.0  0.48549  0.87890  0.26736  1.0000
  H   H1315     1.0  0.30910  0.92307  0.25365  1.0000
  H   H1316     1.0  0.35310  0.77868  0.18507  1.0000
  C   C738      1.0  0.29689  0.93418  0.33557  1.0000
  H   H1317     1.0  0.45323  0.75527  0.05669  1.0000
  H   H1318     1.0  0.99562  0.78906  0.39009  1.0000
  H   H1319     1.0  0.30679  0.75455  0.15207  1.0000
  H   H1320     1.0  0.43149  0.84944  0.15687  1.0000
  C   C739      1.0  0.05040  0.75407  0.45736  1.0000
  H   H1321     1.0  0.24804  0.85442  0.45155  1.0000
  H   H1322     1.0  0.33250  0.92881  0.31778  1.0000
  H   H1323     1.0  0.49341  0.96708  0.25972  1.0000
  C   C740      1.0  0.04246  0.77241  0.44477  1.0000
  C   C741      1.0  0.33517  0.78510  0.14424  1.0000
  H   H1324     1.0  0.27577  0.96737  0.39398  1.0000
  H   H1325     1.0  0.34095  0.91344  0.28576  1.0000
  H   H1326     1.0  0.31459  0.91968  0.29050  1.0000
  C   C742      1.0  0.33396  0.80521  0.18210  1.0000
  C   C743      1.0  0.33356  0.79227  0.10626  1.0000
  H   H1327     1.0  0.17169  0.87232  0.47282  1.0000
  H   H1328     1.0  0.24435  0.77180  0.31795  1.0000
  H   H1329     1.0  0.21913  0.76540  0.32682  1.0000
  H   H1330     1.0  0.29822  0.94812  0.30555  1.0000
  H   H1331     1.0  0.36489  0.92415  0.31582  1.0000
  H   H1332     1.0  0.26912  0.76252  0.17714  1.0000
  C   C744      1.0  0.99790  0.77285  0.39250  1.0000
  H   H1333     1.0  0.36896  0.95990  0.28469  1.0000
  H   H1334     1.0  0.28067  0.93849  0.33892  1.0000
  H   H1335     1.0  0.37119  0.92381  0.28892  1.0000
  H   H1336     1.0  0.36623  0.96363  0.31130  1.0000
  C   C745      1.0  0.44772  0.75584  0.15331  1.0000
  C   C746      1.0  0.46169  0.75117  0.04246  1.0000
  H   H1337     1.0  0.36895  0.75584  0.02998  1.0000
  H   H1338     1.0  0.24049  0.75772  0.34186  1.0000
  C   C747      1.0  0.47270  0.83797  0.22233  1.0000
  H   H1339     1.0  0.04237  0.76876  0.42851  1.0000
  H   H1340     1.0  0.48409  0.75887  0.13325  1.0000
  C   C748      1.0  0.32975  0.77670  0.12363  1.0000
  C   C749      1.0  0.30972  0.76482  0.16450  1.0000
  C   C750      1.0  0.29214  0.96836  0.38979  1.0000
  C   C751      1.0  0.34213  0.99041  0.27958  1.0000
  H   H1341     1.0  0.20232  0.92844  0.47414  1.0000
  C   C752      1.0  0.21407  0.91596  0.47525  1.0000
  H   H1342     1.0  0.33909  0.76289  0.12015  1.0000
  H   H1343     1.0  0.24931  0.98717  0.42805  1.0000
  H   H1344     1.0  0.19427  0.89529  0.46288  1.0000
  H   H1345     1.0  0.44705  0.98576  0.20766  1.0000
  H   H1346     1.0  0.35858  0.99191  0.28181  1.0000
  C   C753      1.0  0.43296  0.74445  0.16763  1.0000
  H   H1347     1.0  0.34745  0.74436  0.19350  1.0000
  H   H1348     1.0  0.49225  0.85621  0.20327  1.0000
  C   C754      1.0  0.21716  0.98692  0.38038  1.0000
  C   C755      1.0  0.34511  0.75277  0.16072  1.0000
  H   H1349     1.0  0.42203  0.98896  0.24204  1.0000
  C   C756      1.0  0.40626  0.98727  0.23899  1.0000
  S   S166      1.0  0.37027  0.75371  0.08865  1.0000
  H   H1350     1.0  0.28349  0.99309  0.35879  1.0000
  H   H1351     1.0  0.26182  0.92205  0.48874  1.0000
  H   H1352     1.0  0.43504  0.74829  0.18362  1.0000
  C   C757      1.0  0.49006  0.93627  0.27003  1.0000
  H   H1353     1.0  0.49390  0.77844  0.11682  1.0000
  H   H1354     1.0  0.34125  0.74411  0.14742  1.0000
  C   C758      1.0  0.41615  0.90250  0.65584  1.0000
  H   H1355     1.0  0.39753  0.86475  0.59289  1.0000
  Fe  Fe83      1.0  0.37833  0.76742  0.87956  1.0000
  S   S167      1.0  0.36797  0.79638  0.86154  1.0000
  H   H1356     1.0  0.19919  0.84120  0.54142  1.0000
  S   S168      1.0  0.39699  0.77283  0.90637  1.0000
  Fe  Fe84      1.0  0.07285  0.75835  0.61211  1.0000
  S   S169      1.0  0.04149  0.76818  0.62509  1.0000
  Fe  Fe85      1.0  0.11922  0.76452  0.60520  1.0000
  S   S170      1.0  0.14940  0.78160  0.60453  1.0000
  S   S171      1.0  0.09161  0.77502  0.58811  1.0000
  H   H1357     1.0  0.27978  0.96695  0.61247  1.0000
  Fe  Fe86      1.0  0.26062  0.88727  0.61611  1.0000
  S   S172      1.0  0.23155  0.90650  0.61815  1.0000
  S   S173      1.0  0.27492  0.87779  0.64669  1.0000
  Fe  Fe87      1.0  0.25619  0.88329  0.56957  1.0000
  S   S174      1.0  0.22721  0.90220  0.56935  1.0000
  S   S175      1.0  0.26776  0.86683  0.54139  1.0000
  Fe  Fe88      1.0  0.24319  0.92270  0.58961  1.0000
  S   S176      1.0  0.24831  0.95634  0.58219  1.0000
  Fe  Fe89      1.0  0.21835  0.88384  0.59779  1.0000
  S   S177      1.0  0.18661  0.87048  0.60354  1.0000
  S   S178      1.0  0.27291  0.90436  0.58839  1.0000
  S   S179      1.0  0.24671  0.86409  0.59712  1.0000
  Fe  Fe90      1.0  0.41793  0.89860  0.73407  1.0000
  S   S180      1.0  0.40995  0.89728  0.76735  1.0000
  S   S181      1.0  0.44947  0.90456  0.72022  1.0000
  Fe  Fe91      1.0  0.37278  0.89593  0.72194  1.0000
  S   S182      1.0  0.36196  0.89421  0.75496  1.0000
  S   S183      1.0  0.35548  0.89985  0.69191  1.0000
  Fe  Fe92      1.0  0.38394  0.91906  0.75934  1.0000
  S   S184      1.0  0.37689  0.94716  0.77789  1.0000
  Fe  Fe93      1.0  0.38904  0.87252  0.76050  1.0000
  S   S185      1.0  0.39259  0.84064  0.77598  1.0000
  S   S186      1.0  0.39323  0.92181  0.72648  1.0000
  S   S187      1.0  0.39857  0.87285  0.72706  1.0000
  C   C759      1.0  0.38373  0.97213  0.76998  1.0000
  C   C760      1.0  0.39353  0.97620  0.75118  1.0000
  C   C761      1.0  0.29556  0.95246  0.63872  1.0000
  H   H1358     1.0  0.39664  0.96408  0.74087  1.0000
  H   H1359     1.0  0.06778  0.80159  0.54526  1.0000
  C   C762      1.0  0.47279  0.89634  0.73086  1.0000
  H   H1360     1.0  0.49223  0.93140  0.77847  1.0000
  C   C763      1.0  0.47360  0.88305  0.74786  1.0000
  H   H1361     1.0  0.46006  0.85105  0.78858  1.0000
  H   H1362     1.0  0.45966  0.87770  0.75499  1.0000
  C   C764      1.0  0.29751  0.88410  0.65888  1.0000
  C   C765      1.0  0.31271  0.89544  0.64905  1.0000
  C   C766      1.0  0.33026  0.89997  0.65938  1.0000
  C   C767      1.0  0.33303  0.89320  0.67967  1.0000
  C   C768      1.0  0.31789  0.88172  0.68945  1.0000
  C   C769      1.0  0.30030  0.87727  0.67914  1.0000
  H   H1363     1.0  0.31101  0.90061  0.63343  1.0000
  H   H1364     1.0  0.34181  0.90882  0.65156  1.0000
  H   H1365     1.0  0.31966  0.87640  0.70502  1.0000
  H   H1366     1.0  0.28872  0.86852  0.68699  1.0000
  C   C770      1.0  0.24004  0.97897  0.59419  1.0000
  H   H1367     1.0  0.43383  0.85555  0.67396  1.0000
  C   C771      1.0  0.42048  0.87006  0.63920  1.0000
  H   H1368     1.0  0.21403  0.96676  0.61023  1.0000
  H   H1369     1.0  0.07105  0.79022  0.52090  1.0000
  C   C772      1.0  0.26874  0.87765  0.51628  1.0000
  C   C773      1.0  0.26386  0.89816  0.51202  1.0000
  H   H1370     1.0  0.45296  0.96589  0.69716  1.0000
  H   H1371     1.0  0.25955  0.90799  0.52430  1.0000
  C   C774      1.0  0.20290  0.85437  0.50064  1.0000
  C   C775      1.0  0.15925  0.80657  0.60405  1.0000
  C   C776      1.0  0.14730  0.82382  0.60899  1.0000
  C   C777      1.0  0.15600  0.84304  0.60899  1.0000
  C   C778      1.0  0.17669  0.84556  0.60366  1.0000
  C   C779      1.0  0.18859  0.82838  0.59842  1.0000
  C   C780      1.0  0.17999  0.80907  0.59884  1.0000
  H   H1372     1.0  0.13138  0.82231  0.61314  1.0000
  H   H1373     1.0  0.14655  0.85614  0.61304  1.0000
  H   H1374     1.0  0.20443  0.82996  0.59409  1.0000
  H   H1375     1.0  0.18947  0.79594  0.59497  1.0000
  H   H1376     1.0  0.22376  0.92914  0.65815  1.0000
  H   H1377     1.0  0.41198  0.94617  0.68419  1.0000
  C   C781      1.0  0.15806  0.75458  0.54988  1.0000
  C   C782      1.0  0.01902  0.76380  0.61214  1.0000
  H   H1378     1.0  0.38320  0.88166  0.65959  1.0000
  H   H1379     1.0  0.38899  0.86785  0.62917  1.0000
  C   C783      1.0  0.37540  0.80841  0.83778  1.0000
  C   C784      1.0  0.38567  0.79792  0.82220  1.0000
  C   C785      1.0  0.39085  0.80807  0.80355  1.0000
  C   C786      1.0  0.38584  0.82885  0.80008  1.0000
  C   C787      1.0  0.37569  0.83936  0.81570  1.0000
  C   C788      1.0  0.37045  0.82919  0.83434  1.0000
  H   H1380     1.0  0.38912  0.78186  0.82434  1.0000
  H   H1381     1.0  0.39850  0.79969  0.79155  1.0000
  H   H1382     1.0  0.37164  0.85529  0.81335  1.0000
  H   H1383     1.0  0.36239  0.83748  0.84616  1.0000
  H   H1384     1.0  0.25415  0.95674  0.63585  1.0000
  H   H1385     1.0  0.39357  0.88019  0.68378  1.0000
  C   C789      1.0  0.20516  0.85659  0.53892  1.0000
  H   H1386     1.0  0.26990  0.98328  0.67309  1.0000
  H   H1387     1.0  0.22989  0.84758  0.51907  1.0000
  N   N42       1.0  0.44625  0.80208  0.84177  1.0000
  C   C790      1.0  0.43004  0.81579  0.85140  1.0000
  C   C791      1.0  0.44894  0.80840  0.81960  1.0000
  C   C792      1.0  0.43861  0.78079  0.84280  1.0000
  C   C793      1.0  0.46618  0.80185  0.85236  1.0000
  H   H1388     1.0  0.05982  0.81541  0.52263  1.0000
  C   C794      1.0  0.42211  0.80883  0.87286  1.0000
  H   H1389     1.0  0.12277  0.78569  0.49761  1.0000
  C   C795      1.0  0.45571  0.83025  0.81461  1.0000
  C   C796      1.0  0.45452  0.83559  0.79191  1.0000
  H   H1390     1.0  0.43166  0.97290  0.71376  1.0000
  C   C797      1.0  0.40984  0.82581  0.88333  1.0000
  C   C798      1.0  0.49252  0.87629  0.75534  1.0000
  H   H1391     1.0  0.41660  0.81736  0.84170  1.0000
  H   H1392     1.0  0.43513  0.83145  0.85230  1.0000
  H   H1393     1.0  0.46058  0.79846  0.81189  1.0000
  H   H1394     1.0  0.43447  0.80647  0.81181  1.0000
  H   H1395     1.0  0.42322  0.78063  0.83650  1.0000
  H   H1396     1.0  0.43674  0.77517  0.85887  1.0000
  H   H1397     1.0  0.46644  0.79003  0.86494  1.0000
  H   H1398     1.0  0.47156  0.85298  0.67706  1.0000
  H   H1399     1.0  0.46200  0.82429  0.87595  1.0000
  H   H1400     1.0  0.31639  0.96284  0.60182  1.0000
  H   H1401     1.0  0.41185  0.79614  0.87151  1.0000
  H   H1402     1.0  0.43469  0.80349  0.88264  1.0000
  C   C799      1.0  0.47179  0.82172  0.86215  1.0000
  S   S188      1.0  0.36414  0.75550  0.95598  1.0000
  H   H1403     1.0  0.44601  0.84171  0.82259  1.0000
  H   H1404     1.0  0.47175  0.83157  0.81865  1.0000
  C   C800      1.0  0.13764  0.79289  0.49730  1.0000
  H   H1405     1.0  0.03436  0.75187  0.58556  1.0000
  H   H1406     1.0  0.42352  0.85345  0.64151  1.0000
  H   H1407     1.0  0.09549  0.81639  0.50942  1.0000
  H   H1408     1.0  0.45120  0.75107  0.97582  1.0000
  H   H1409     1.0  0.29436  0.98539  0.66168  1.0000
  H   H1410     1.0  0.40367  0.82005  0.89827  1.0000
  H   H1411     1.0  0.41954  0.83872  0.88582  1.0000
  H   H1412     1.0  0.39684  0.83115  0.87402  1.0000
  C   C801      1.0  0.31260  0.93930  0.70158  1.0000
  H   H1413     1.0  0.45179  0.76688  0.81523  1.0000
  H   H1414     1.0  0.24308  0.96387  0.53462  1.0000
  C   C802      1.0  0.30604  0.95008  0.60133  1.0000
  H   H1415     1.0  0.46416  0.97871  0.72938  1.0000
  H   H1416     1.0  0.16147  0.83525  0.53494  1.0000
  H   H1417     1.0  0.42771  0.87601  0.68966  1.0000
  C   C803      1.0  0.37063  0.84755  0.67967  1.0000
  H   H1418     1.0  0.40173  0.88966  0.61879  1.0000
  H   H1419     1.0  0.36843  0.85411  0.69487  1.0000
  H   H1420     1.0  0.26080  0.93337  0.64830  1.0000
  H   H1421     1.0  0.43855  0.83540  0.78717  1.0000
  C   C804      1.0  0.24194  0.95410  0.66636  1.0000
  H   H1422     1.0  0.35903  0.85452  0.66950  1.0000
  C   C805      1.0  0.39571  0.87419  0.66836  1.0000
  H   H1423     1.0  0.31966  0.94240  0.66968  1.0000
  N   N43       1.0  0.41613  0.87980  0.65928  1.0000
  C   C806      1.0  0.25947  0.95004  0.65049  1.0000
  H   H1424     1.0  0.09157  0.82826  0.53351  1.0000
  H   H1425     1.0  0.47890  0.79725  0.84171  1.0000
  H   H1426     1.0  0.23929  0.97060  0.66832  1.0000
  H   H1427     1.0  0.12857  0.82359  0.50515  1.0000
  H   H1428     1.0  0.40292  0.84368  0.68145  1.0000
  H   H1429     1.0  0.45866  0.87940  0.65318  1.0000
  H   H1430     1.0  0.39362  0.84367  0.65618  1.0000
  H   H1431     1.0  0.43466  0.87583  0.63183  1.0000
  N   N44       1.0  0.27994  0.95763  0.65535  1.0000
  H   H1432     1.0  0.46398  0.82472  0.78286  1.0000
  C   C807      1.0  0.22272  0.98010  0.60708  1.0000
  C   C808      1.0  0.43225  0.87238  0.67373  1.0000
  H   H1433     1.0  0.21772  0.95304  0.64495  1.0000
  N   N45       1.0  0.45847  0.96144  0.76890  1.0000
  C   C809      1.0  0.14942  0.85490  0.55784  1.0000
  H   H1434     1.0  0.42355  0.95890  0.79797  1.0000
  C   C810      1.0  0.45288  0.94608  0.78561  1.0000
  C   C811      1.0  0.44876  0.95586  0.74967  1.0000
  H   H1435     1.0  0.47273  0.95304  0.72582  1.0000
  H   H1436     1.0  0.46980  0.83516  0.85181  1.0000
  C   C812      1.0  0.42991  0.94474  0.79135  1.0000
  C   C813      1.0  0.27901  0.98007  0.65894  1.0000
  H   H1437     1.0  0.49298  0.86574  0.76827  1.0000
  C   C814      1.0  0.44479  0.96199  0.71174  1.0000
  H   H1438     1.0  0.16141  0.75775  0.56578  1.0000
  C   C815      1.0  0.42618  0.92775  0.80731  1.0000
  H   H1439     1.0  0.12232  0.83818  0.53616  1.0000
  C   C816      1.0  0.01981  0.75547  0.59296  1.0000
  H   H1440     1.0  0.37189  0.98530  0.79759  1.0000
  H   H1441     1.0  0.17182  0.75698  0.53996  1.0000
  H   H1442     1.0  0.46085  0.94906  0.79970  1.0000
  H   H1443     1.0  0.45798  0.93055  0.78122  1.0000
  H   H1444     1.0  0.44791  0.93910  0.74893  1.0000
  H   H1445     1.0  0.43269  0.96157  0.74986  1.0000
  H   H1446     1.0  0.15352  0.81568  0.51125  1.0000
  H   H1447     1.0  0.48443  0.93170  0.75270  1.0000
  H   H1448     1.0  0.30869  0.96247  0.63908  1.0000
  H   H1449     1.0  0.99908  0.77518  0.63611  1.0000
  H   H1450     1.0  0.42130  0.94165  0.77781  1.0000
  S   S189      1.0  0.08645  0.74938  0.53971  1.0000
  H   H1451     1.0  0.45595  0.98468  0.79103  1.0000
  C   C817      1.0  0.45914  0.96300  0.72924  1.0000
  H   H1452     1.0  0.25597  0.98957  0.63665  1.0000
  C   C818      1.0  0.49103  0.90306  0.72167  1.0000
  C   C819      1.0  0.09249  0.81359  0.52594  1.0000
  H   H1453     1.0  0.16074  0.79326  0.53874  1.0000
  H   H1454     1.0  0.19754  0.83867  0.50314  1.0000
  C   C820      1.0  0.00175  0.75182  0.58326  1.0000
  H   H1455     1.0  0.14431  0.79331  0.56074  1.0000
  H   H1456     1.0  0.42408  0.86747  0.59705  1.0000
  H   H1457     1.0  0.43335  0.93099  0.82169  1.0000
  H   H1458     1.0  0.40957  0.92660  0.81040  1.0000
  H   H1459     1.0  0.43233  0.91297  0.80187  1.0000
  N   N46       1.0  0.23142  0.83038  0.66093  1.0000
  C   C821      1.0  0.23779  0.82970  0.63872  1.0000
  C   C822      1.0  0.22338  0.85144  0.66601  1.0000
  C   C823      1.0  0.25029  0.82581  0.67287  1.0000
  C   C824      1.0  0.21615  0.81468  0.66710  1.0000
  C   C825      1.0  0.19633  0.81544  0.65523  1.0000
  C   C826      1.0  0.24570  0.80877  0.63118  1.0000
  C   C827      1.0  0.24814  0.82888  0.69608  1.0000
  C   C828      1.0  0.21060  0.86338  0.64998  1.0000
  C   C829      1.0  0.20063  0.88263  0.65858  1.0000
  C   C830      1.0  0.18465  0.79609  0.65906  1.0000
  C   C831      1.0  0.25200  0.81009  0.60864  1.0000
  C   C832      1.0  0.26818  0.82357  0.70628  1.0000
  H   H1460     1.0  0.24985  0.84077  0.63519  1.0000
  H   H1461     1.0  0.22519  0.83465  0.62882  1.0000
  H   H1462     1.0  0.21426  0.85090  0.68059  1.0000
  H   H1463     1.0  0.23624  0.86141  0.66844  1.0000
  H   H1464     1.0  0.26286  0.83545  0.66683  1.0000
  H   H1465     1.0  0.25586  0.80986  0.67112  1.0000
  H   H1466     1.0  0.22334  0.79919  0.66620  1.0000
  H   H1467     1.0  0.21122  0.81600  0.68329  1.0000
  H   H1468     1.0  0.19925  0.81718  0.63866  1.0000
  H   H1469     1.0  0.18617  0.82817  0.66038  1.0000
  H   H1470     1.0  0.25922  0.80301  0.63938  1.0000
  H   H1471     1.0  0.23370  0.79751  0.63314  1.0000
  H   H1472     1.0  0.23649  0.81908  0.70337  1.0000
  H   H1473     1.0  0.24392  0.84488  0.69936  1.0000
  H   H1474     1.0  0.22061  0.86799  0.63686  1.0000
  H   H1475     1.0  0.19853  0.85441  0.64420  1.0000
  H   H1476     1.0  0.19222  0.89116  0.64649  1.0000
  H   H1477     1.0  0.18969  0.87881  0.67125  1.0000
  H   H1478     1.0  0.21230  0.89249  0.66405  1.0000
  H   H1479     1.0  0.19372  0.78278  0.65344  1.0000
  H   H1480     1.0  0.18079  0.79364  0.67548  1.0000
  H   H1481     1.0  0.17031  0.79739  0.65072  1.0000
  H   H1482     1.0  0.23899  0.81548  0.59942  1.0000
  H   H1483     1.0  0.26464  0.82058  0.60590  1.0000
  H   H1484     1.0  0.25728  0.79489  0.60357  1.0000
  H   H1485     1.0  0.28038  0.83323  0.69976  1.0000
  H   H1486     1.0  0.26639  0.82617  0.72278  1.0000
  H   H1487     1.0  0.27279  0.80739  0.70429  1.0000
  C   C833      1.0  0.37701  0.75068  0.97881  1.0000
  H   H1488     1.0  0.30886  0.92308  0.70192  1.0000
  C   C834      1.0  0.46956  0.86881  0.68199  1.0000
  H   H1489     1.0  0.43905  0.94653  0.71095  1.0000
  H   H1490     1.0  0.27809  0.94001  0.61493  1.0000
  H   H1491     1.0  0.16434  0.85962  0.56273  1.0000
  C   C835      1.0  0.22212  0.94580  0.65968  1.0000
  Fe  Fe94      1.0  0.09475  0.74515  0.57292  1.0000
  H   H1492     1.0  0.48474  0.76677  0.96875  1.0000
  H   H1493     1.0  0.20978  0.94905  0.67116  1.0000
  H   H1494     1.0  0.40400  0.90775  0.64546  1.0000
  S   S190      1.0  0.10009  0.75044  0.63124  1.0000
  C   C836      1.0  0.30867  0.94938  0.68077  1.0000
  H   H1495     1.0  0.12232  0.82402  0.55975  1.0000
  C   C837      1.0  0.47411  0.74553  0.89098  1.0000
  H   H1496     1.0  0.30337  0.94704  0.71363  1.0000
  H   H1497     1.0  0.48655  0.97160  0.75418  1.0000
  C   C838      1.0  0.24041  0.97054  0.51917  1.0000
  H   H1498     1.0  0.48740  0.80920  0.75563  1.0000
  C   C839      1.0  0.41234  0.91506  0.67504  1.0000
  C   C840      1.0  0.41592  0.93748  0.67043  1.0000
  H   H1499     1.0  0.45394  0.89675  0.67322  1.0000
  H   H1500     1.0  0.39635  0.91392  0.68069  1.0000
  H   H1501     1.0  0.42231  0.90980  0.68739  1.0000
  H   H1502     1.0  0.43213  0.93971  0.66605  1.0000
  H   H1503     1.0  0.40619  0.94353  0.65804  1.0000
  H   H1504     1.0  0.32890  0.94020  0.70494  1.0000
  H   H1505     1.0  0.13707  0.76398  0.52711  1.0000
  H   H1506     1.0  0.15976  0.82376  0.56006  1.0000
  H   H1507     1.0  0.48438  0.87617  0.68008  1.0000
  C   C841      1.0  0.48136  0.96139  0.76689  1.0000
  H   H1508     1.0  0.13878  0.85474  0.57131  1.0000
  H   H1509     1.0  0.12678  0.76457  0.55250  1.0000
  C   C842      1.0  0.45048  0.98196  0.77565  1.0000
  C   C843      1.0  0.45227  0.76452  0.83194  1.0000
  Fe  Fe95      1.0  0.41679  0.74620  0.89646  1.0000
  C   C844      1.0  0.07155  0.80461  0.52887  1.0000
  H   H1510     1.0  0.21558  0.85917  0.55128  1.0000
  C   C845      1.0  0.40381  0.87339  0.62329  1.0000
  H   H1511     1.0  0.46825  0.76492  0.83651  1.0000
  C   C846      1.0  0.21671  0.85854  0.51845  1.0000
  H   H1512     1.0  0.22238  0.87410  0.51713  1.0000
  H   H1513     1.0  0.48863  0.77304  0.89727  1.0000
  H   H1514     1.0  0.14368  0.86626  0.54637  1.0000
  H   H1515     1.0  0.41122  0.84549  0.60755  1.0000
  H   H1516     1.0  0.28454  0.92999  0.67378  1.0000
  H   H1517     1.0  0.27660  0.95154  0.68787  1.0000
  H   H1518     1.0  0.31207  0.96557  0.68164  1.0000
  C   C847      1.0  0.40960  0.86205  0.60406  1.0000
  C   C848      1.0  0.28643  0.94663  0.67474  1.0000
  H   H1519     1.0  0.24521  0.94661  0.68127  1.0000
  H   H1520     1.0  0.27879  0.84943  0.50329  1.0000
  H   H1521     1.0  0.31460  0.93553  0.60449  1.0000
  H   H1522     1.0  0.36828  0.83103  0.68134  1.0000
  H   H1523     1.0  0.10800  0.78450  0.52749  1.0000
  C   C849      1.0  0.28825  0.95275  0.61666  1.0000
  H   H1524     1.0  0.19249  0.86815  0.53977  1.0000
  H   H1525     1.0  0.10463  0.79569  0.55118  1.0000
  H   H1526     1.0  0.30195  0.93675  0.64132  1.0000
  C   C850      1.0  0.39202  0.85119  0.67088  1.0000
  C   C851      1.0  0.45375  0.88058  0.66934  1.0000
  H   H1527     1.0  0.43060  0.90711  0.64803  1.0000
  N   N47       1.0  0.13055  0.80624  0.53358  1.0000
  C   C852      1.0  0.10912  0.79902  0.53500  1.0000
  C   C853      1.0  0.14474  0.79095  0.54408  1.0000
  C   C854      1.0  0.13058  0.82578  0.54471  1.0000
  C   C855      1.0  0.13767  0.81063  0.51188  1.0000
  H   H1528     1.0  0.30014  0.94984  0.58581  1.0000
  H   H1529     1.0  0.48760  0.96764  0.78066  1.0000
  C   C856      1.0  0.15171  0.83390  0.54893  1.0000
  C   C857      1.0  0.14029  0.76817  0.54263  1.0000
  H   H1530     1.0  0.43361  0.98249  0.77715  1.0000
  C   C858      1.0  0.49222  0.94038  0.76386  1.0000
  C   C859      1.0  0.49095  0.75765  0.89249  1.0000
  H   H1531     1.0  0.08147  0.76393  0.49884  1.0000
  H   H1532     1.0  0.46489  0.86857  0.69835  1.0000
  H   H1533     1.0  0.04752  0.74938  0.52075  1.0000
  S   S191      1.0  0.44965  0.75616  0.89743  1.0000
  H   H1534     1.0  0.22850  0.96191  0.51235  1.0000
  Fe  Fe96      1.0  0.37830  0.75062  0.92442  1.0000
  H   H1535     1.0  0.14967  0.78136  0.50131  1.0000
  S   S192      1.0  0.35738  0.74735  0.89871  1.0000
  H   H1536     1.0  0.25459  0.96886  0.50962  1.0000
  H   H1537     1.0  0.45118  0.74758  0.94874  1.0000
  C   C860      1.0  0.37952  0.98825  0.78301  1.0000
  H   H1538     1.0  0.02359  0.74555  0.49414  1.0000
  H   H1539     1.0  0.49055  0.91331  0.70847  1.0000
  H   H1540     1.0  0.18916  0.86443  0.50259  1.0000
  C   C861      1.0  0.49069  0.75464  0.95863  1.0000
  C   C862      1.0  0.09314  0.75199  0.49853  1.0000
  H   H1541     1.0  0.48644  0.75999  0.94310  1.0000
  C   C863      1.0  0.99989  0.76856  0.62137  1.0000
  C   C864      1.0  0.27463  0.86521  0.50013  1.0000
  H   H1542     1.0  0.00262  0.74534  0.56846  1.0000
  C   C865      1.0  0.49383  0.82057  0.86857  1.0000
  H   H1543     1.0  0.21897  0.99334  0.52939  1.0000
  C   C866      1.0  0.23344  0.99285  0.52025  1.0000
  Fe  Fe97      1.0  0.60427  0.10474  0.27763  1.0000
  S   S193      1.0  0.61839  0.08551  0.25310  1.0000
  S   S194      1.0  0.62272  0.11992  0.30132  1.0000
  Fe  Fe98      1.0  0.56101  0.10214  0.26022  1.0000
  S   S195      1.0  0.57301  0.08236  0.23528  1.0000
  S   S196      1.0  0.52847  0.11499  0.25739  1.0000
  Fe  Fe99      1.0  0.59141  0.06582  0.25926  1.0000
  S   S197      1.0  0.59191  0.03241  0.26996  1.0000
  Fe  Fe100     1.0  0.59834  0.10426  0.23154  1.0000
  S   S198      1.0  0.60839  0.11745  0.20009  1.0000
  S   S199      1.0  0.57791  0.08465  0.28465  1.0000
  S   S200      1.0  0.58582  0.12449  0.25565  1.0000
  H   H1544     1.0  0.50908  0.18652  0.08294  1.0000
  C   C867      1.0  0.61319  0.21215  0.00614  1.0000
  Fe  Fe101     1.0  0.59297  0.22084  0.12413  1.0000
  S   S201      1.0  0.59034  0.20454  0.15579  1.0000
  S   S202      1.0  0.57314  0.21373  0.09851  1.0000
  H   H1545     1.0  0.62813  0.20492  0.00735  1.0000
  C   C868      1.0  0.51532  0.19702  0.09357  1.0000
  S   S203      1.0  0.89182  0.23013  0.42251  1.0000
  C   C869      1.0  0.51797  0.14057  0.30790  1.0000
  H   H1546     1.0  0.83181  0.02002  0.38486  1.0000
  Fe  Fe102     1.0  0.87562  0.21951  0.39549  1.0000
  S   S204      1.0  0.86382  0.18720  0.40072  1.0000
  Fe  Fe103     1.0  0.72301  0.09796  0.37708  1.0000
  S   S205      1.0  0.75578  0.08796  0.37034  1.0000
  S   S206      1.0  0.70024  0.09038  0.35283  1.0000
  Fe  Fe104     1.0  0.73332  0.10808  0.42116  1.0000
  S   S207      1.0  0.76609  0.09832  0.41686  1.0000
  S   S208      1.0  0.72359  0.12316  0.45063  1.0000
  Fe  Fe105     1.0  0.76468  0.11558  0.38683  1.0000
  S   S209      1.0  0.78597  0.14044  0.37435  1.0000
  Fe  Fe106     1.0  0.75423  0.07171  0.40104  1.0000
  S   S210      1.0  0.76367  0.03923  0.41144  1.0000
  S   S211      1.0  0.73198  0.12646  0.39159  1.0000
  S   S212      1.0  0.72140  0.08063  0.40735  1.0000
  C   C870      1.0  0.76002  0.01670  0.39854  1.0000
  C   C871      1.0  0.76231  0.01595  0.37745  1.0000
  H   H1547     1.0  0.71956  0.01883  0.37326  1.0000
  H   H1548     1.0  0.76561  0.02960  0.36854  1.0000
  H   H1549     1.0  0.50961  0.18046  0.31469  1.0000
  H   H1550     1.0  0.54303  0.23303  0.14345  1.0000
  C   C872      1.0  0.72406  0.11072  0.47495  1.0000
  C   C873      1.0  0.50328  0.08985  0.28096  1.0000
  C   C874      1.0  0.64005  0.07845  0.38038  1.0000
  H   H1551     1.0  0.69861  0.01841  0.44450  1.0000
  C   C875      1.0  0.84192  0.17460  0.39330  1.0000
  C   C876      1.0  0.83642  0.15648  0.40377  1.0000
  C   C877      1.0  0.81921  0.14601  0.39854  1.0000
  C   C878      1.0  0.80742  0.15330  0.38242  1.0000
  C   C879      1.0  0.81300  0.17134  0.37190  1.0000
  C   C880      1.0  0.82997  0.18200  0.37738  1.0000
  H   H1552     1.0  0.84559  0.15046  0.41600  1.0000
  H   H1553     1.0  0.81532  0.13209  0.40665  1.0000
  H   H1554     1.0  0.80416  0.17708  0.35932  1.0000
  H   H1555     1.0  0.83403  0.19572  0.36898  1.0000
  H   H1556     1.0  0.79552  0.16820  0.45245  1.0000
  H   H1557     1.0  0.69604  0.19175  0.27262  1.0000
  C   C881      1.0  0.97160  0.22136  0.40196  1.0000
  C   C882      1.0  0.58196  0.22497  0.02215  1.0000
  H   H1558     1.0  0.95839  0.21252  0.40025  1.0000
  H   H1559     1.0  0.51855  0.23839  0.15548  1.0000
  C   C883      1.0  0.72705  0.08970  0.47736  1.0000
  C   C884      1.0  0.67565  0.01040  0.38249  1.0000
  C   C885      1.0  0.60203  0.14140  0.18775  1.0000
  C   C886      1.0  0.60761  0.14468  0.16707  1.0000
  C   C887      1.0  0.60397  0.16370  0.15695  1.0000
  C   C888      1.0  0.59479  0.17987  0.16741  1.0000
  C   C889      1.0  0.58901  0.17653  0.18805  1.0000
  C   C890      1.0  0.59248  0.15746  0.19812  1.0000
  H   H1560     1.0  0.61497  0.13244  0.15881  1.0000
  H   H1561     1.0  0.60854  0.16591  0.14111  1.0000
  H   H1562     1.0  0.58187  0.18885  0.19635  1.0000
  H   H1563     1.0  0.58796  0.15525  0.21395  1.0000
  C   C891      1.0  0.64372  0.11104  0.31619  1.0000
  C   C892      1.0  0.65207  0.09124  0.31539  1.0000
  C   C893      1.0  0.66928  0.08530  0.32667  1.0000
  C   C894      1.0  0.67825  0.09886  0.33925  1.0000
  C   C895      1.0  0.66960  0.11851  0.34041  1.0000
  C   C896      1.0  0.65257  0.12454  0.32891  1.0000
  H   H1564     1.0  0.64549  0.08060  0.30580  1.0000
  H   H1565     1.0  0.67577  0.07009  0.32552  1.0000
  H   H1566     1.0  0.67621  0.12916  0.34998  1.0000
  H   H1567     1.0  0.64628  0.13986  0.32979  1.0000
  C   C897      1.0  0.50500  0.10433  0.26499  1.0000
  H   H1568     1.0  0.69531  0.19602  0.24551  1.0000
  H   H1569     1.0  0.95178  0.23634  0.36403  1.0000
  H   H1570     1.0  0.50170  0.16442  0.33522  1.0000
  C   C898      1.0  0.93074  0.20227  0.45413  1.0000
  H   H1571     1.0  0.81273  0.13476  0.44934  1.0000
  C   C899      1.0  0.59314  0.00961  0.25671  1.0000
  C   C900      1.0  0.59649  0.00932  0.23569  1.0000
  C   C901      1.0  0.52600  0.06886  0.22203  1.0000
  H   H1572     1.0  0.59805  0.02340  0.22693  1.0000
  N   N48       1.0  0.80304  0.20762  0.43291  1.0000
  C   C902      1.0  0.79053  0.19032  0.42698  1.0000
  H   H1573     1.0  0.72541  0.01926  0.43828  1.0000
  C   C903      1.0  0.82174  0.19848  0.44286  1.0000
  C   C904      1.0  0.81496  0.00219  0.40789  1.0000
  H   H1574     1.0  0.75650  0.22961  0.47185  1.0000
  C   C905      1.0  0.78275  0.17592  0.44447  1.0000
  H   H1575     1.0  0.72940  0.08065  0.46413  1.0000
  H   H1576     1.0  0.93250  0.20714  0.43785  1.0000
  H   H1577     1.0  0.53894  0.01514  0.26715  1.0000
  H   H1578     1.0  0.51680  0.08373  0.28813  1.0000
  C   C906      1.0  0.77013  0.15936  0.43635  1.0000
  H   H1579     1.0  0.70713  0.00803  0.40919  1.0000
  H   H1580     1.0  0.79951  0.18093  0.41593  1.0000
  H   H1581     1.0  0.77693  0.19585  0.41877  1.0000
  H   H1582     1.0  0.63787  0.02460  0.24946  1.0000
  C   C907      1.0  0.75644  0.99868  0.40995  1.0000
  H   H1583     1.0  0.82911  0.18661  0.43322  1.0000
  H   H1584     1.0  0.81761  0.19072  0.45760  1.0000
  C   C908      1.0  0.50012  0.19350  0.15941  1.0000
  H   H1585     1.0  0.53805  0.06849  0.20979  1.0000
  H   H1586     1.0  0.80123  0.23375  0.45166  1.0000
  H   H1587     1.0  0.81030  0.09739  0.47854  1.0000
  H   H1588     1.0  0.75653  0.16606  0.42880  1.0000
  H   H1589     1.0  0.76488  0.14906  0.44904  1.0000
  C   C909      1.0  0.79522  0.22221  0.39635  1.0000
  H   H1590     1.0  0.71830  0.13848  0.49056  1.0000
  H   H1591     1.0  0.49888  0.19051  0.17611  1.0000
  H   H1592     1.0  0.67384  0.02901  0.41811  1.0000
  H   H1593     1.0  0.91080  0.22724  0.46229  1.0000
  C   C910      1.0  0.79183  0.22088  0.44806  1.0000
  N   N49       1.0  0.67898  0.03248  0.38562  1.0000
  C   C911      1.0  0.79896  0.12685  0.48985  1.0000
  H   H1594     1.0  0.52122  0.08493  0.22441  1.0000
  H   H1595     1.0  0.51773  0.12595  0.30011  1.0000
  H   H1596     1.0  0.64890  0.12676  0.17820  1.0000
  H   H1597     1.0  0.99058  0.23940  0.36346  1.0000
  H   H1598     1.0  0.78331  0.12445  0.48518  1.0000
  C   C912      1.0  0.53721  0.15150  0.29961  1.0000
  H   H1599     1.0  0.81703  0.03471  0.40304  1.0000
  H   H1600     1.0  0.94630  0.23841  0.44859  1.0000
  H   H1601     1.0  0.55547  0.12372  0.29516  1.0000
  H   H1602     1.0  0.81875  0.10878  0.44364  1.0000
  C   C913      1.0  0.65836  0.06666  0.38908  1.0000
  C   C914      1.0  0.94264  0.23602  0.46513  1.0000
  H   H1603     1.0  0.79406  0.20743  0.38918  1.0000
  H   H1604     1.0  0.76383  0.99682  0.35165  1.0000
  H   H1605     1.0  0.53116  0.20014  0.08845  1.0000
  C   C915      1.0  0.80905  0.11884  0.45341  1.0000
  H   H1606     1.0  0.70466  0.01589  0.35168  1.0000
  H   H1607     1.0  0.82927  0.11632  0.47791  1.0000
  H   H1608     1.0  0.55971  0.23831  0.17570  1.0000
  H   H1609     1.0  0.50604  0.21139  0.09296  1.0000
  H   H1610     1.0  0.95640  0.22832  0.47165  1.0000
  H   H1611     1.0  0.56991  0.14606  0.29672  1.0000
  H   H1612     1.0  0.82805  0.00090  0.41795  1.0000
  H   H1613     1.0  0.53905  0.16580  0.30738  1.0000
  C   C916      1.0  0.53386  0.23163  0.15791  1.0000
  C   C917      1.0  0.72084  0.12225  0.49230  1.0000
  C   C918      1.0  0.57456  0.23038  0.00287  1.0000
  H   H1614     1.0  0.85155  0.19446  0.47187  1.0000
  H   H1615     1.0  0.53242  0.06219  0.23623  1.0000
  H   H1616     1.0  0.66626  0.00389  0.39540  1.0000
  C   C919      1.0  0.83840  0.21341  0.44748  1.0000
  H   H1617     1.0  0.77298  0.18437  0.45559  1.0000
  H   H1618     1.0  0.52662  0.20861  0.18116  1.0000
  H   H1619     1.0  0.50212  0.06439  0.20193  1.0000
  C   C920      1.0  0.69404  0.04153  0.37028  1.0000
  H   H1620     1.0  0.65697  0.02407  0.26819  1.0000
  S   S213      1.0  0.62005  0.22663  0.10293  1.0000
  C   C921      1.0  0.66486  0.00593  0.36278  1.0000
  C   C922      1.0  0.72604  0.03919  0.34780  1.0000
  H   H1621     1.0  0.77929  0.15022  0.42526  1.0000
  C   C923      1.0  0.49764  0.16980  0.31965  1.0000
  H   H1622     1.0  0.98798  0.23533  0.33732  1.0000
  S   S214      1.0  0.61084  0.20832  0.04799  1.0000
  H   H1623     1.0  0.84430  0.22129  0.43345  1.0000
  H   H1624     1.0  0.86814  0.21296  0.46038  1.0000
  H   H1625     1.0  0.86334  0.19065  0.44695  1.0000
  H   H1626     1.0  0.64808  0.23097  0.03992  1.0000
  H   H1627     1.0  0.83256  0.22502  0.45812  1.0000
  C   C924      1.0  0.50806  0.05698  0.21596  1.0000
  H   H1628     1.0  0.80448  0.02269  0.38339  1.0000
  H   H1629     1.0  0.67500  0.13420  0.17642  1.0000
  C   C925      1.0  0.81724  0.02099  0.39387  1.0000
  H   H1630     1.0  0.52066  0.13645  0.32410  1.0000
  C   C926      1.0  0.51463  0.18753  0.11509  1.0000
  H   H1631     1.0  0.69017  0.00132  0.38278  1.0000
  H   H1632     1.0  0.70843  0.17363  0.25614  1.0000
  C   C927      1.0  0.71104  0.02721  0.36129  1.0000
  H   H1633     1.0  0.80096  0.00467  0.41758  1.0000
  N   N50       1.0  0.52210  0.19489  0.15239  1.0000
  C   C928      1.0  0.52434  0.20129  0.13021  1.0000
  C   C929      1.0  0.53302  0.20910  0.16529  1.0000
  C   C930      1.0  0.53231  0.17407  0.15495  1.0000
  H   H1634     1.0  0.64826  0.00918  0.36493  1.0000
  H   H1635     1.0  0.64681  0.03656  0.39347  1.0000
  H   H1636     1.0  0.68722  0.05092  0.41018  1.0000
  C   C931      1.0  0.53386  0.16542  0.17712  1.0000
  H   H1637     1.0  0.54644  0.13900  0.19365  1.0000
  H   H1638     1.0  0.68616  0.04854  0.35696  1.0000
  H   H1639     1.0  0.95035  0.23758  0.33670  1.0000
  C   C932      1.0  0.80288  0.23722  0.37985  1.0000
  C   C933      1.0  0.54472  0.14453  0.17766  1.0000
  H   H1640     1.0  0.54075  0.20204  0.12575  1.0000
  H   H1641     1.0  0.51798  0.21689  0.12728  1.0000
  C   C934      1.0  0.77126  0.23066  0.44165  1.0000
  H   H1642     1.0  0.54923  0.20403  0.16651  1.0000
  H   H1643     1.0  0.54807  0.17415  0.14807  1.0000
  H   H1644     1.0  0.52419  0.16271  0.14674  1.0000
  H   H1645     1.0  0.65363  0.04358  0.36787  1.0000
  H   H1646     1.0  0.79292  0.11654  0.45017  1.0000
  H   H1647     1.0  0.52304  0.17266  0.11449  1.0000
  H   H1648     1.0  0.57262  0.22772  0.03569  1.0000
  H   H1649     1.0  0.55270  0.00753  0.24426  1.0000
  H   H1650     1.0  0.94503  0.19436  0.45897  1.0000
  C   C935      1.0  0.65877  0.04397  0.38370  1.0000
  H   H1651     1.0  0.54256  0.17536  0.18641  1.0000
  H   H1652     1.0  0.78939  0.21235  0.46279  1.0000
  H   H1653     1.0  0.65544  0.14984  0.16452  1.0000
  H   H1654     1.0  0.70161  0.05425  0.37699  1.0000
  H   H1655     1.0  0.65737  0.06800  0.40582  1.0000
  Fe  Fe107     1.0  0.59912  0.22264  0.07731  1.0000
  C   C936      1.0  0.80991  0.21994  0.41420  1.0000
  H   H1656     1.0  0.50428  0.14851  0.27362  1.0000
  H   H1657     1.0  0.50452  0.17393  0.28104  1.0000
  H   H1658     1.0  0.73380  0.05009  0.35689  1.0000
  C   C937      1.0  0.55636  0.13816  0.30299  1.0000
  H   H1659     1.0  0.64082  0.07844  0.36353  1.0000
  C   C938      1.0  0.81303  0.11373  0.47575  1.0000
  H   H1660     1.0  0.53591  0.13348  0.16981  1.0000
  H   H1661     1.0  0.77973  0.22736  0.40130  1.0000
  H   H1662     1.0  0.53658  0.15500  0.28306  1.0000
  C   C939      1.0  0.71029  0.02625  0.43487  1.0000
  C   C940      1.0  0.65098  0.01561  0.25569  1.0000
  H   H1663     1.0  0.91830  0.19144  0.45574  1.0000
  H   H1664     1.0  0.51858  0.16372  0.18448  1.0000
  H   H1665     1.0  0.61117  0.19162  0.25198  1.0000
  H   H1666     1.0  0.76106  0.21938  0.43614  1.0000
  H   H1667     1.0  0.71874  0.03203  0.40366  1.0000
  H   H1668     1.0  0.49840  0.04619  0.24575  1.0000
  H   H1669     1.0  0.51383  0.04148  0.21230  1.0000
  H   H1670     1.0  0.71809  0.04772  0.33541  1.0000
  H   H1671     1.0  0.56011  0.14529  0.17025  1.0000
  H   H1672     1.0  0.71026  0.04245  0.43877  1.0000
  H   H1673     1.0  0.73768  0.02869  0.34089  1.0000
  C   C941      1.0  0.85641  0.20209  0.45729  1.0000
  H   H1674     1.0  0.64006  0.09444  0.38491  1.0000
  C   C942      1.0  0.69501  0.18422  0.25798  1.0000
  H   H1675     1.0  0.49850  0.18502  0.11939  1.0000
  C   C943      1.0  0.60129  0.21577  0.02391  1.0000
  S   S215      1.0  0.89884  0.23328  0.37306  1.0000
  H   H1676     1.0  0.55956  0.23736  0.00173  1.0000
  H   H1677     1.0  0.50895  0.99637  0.25603  1.0000
  H   H1678     1.0  0.67036  0.01556  0.34970  1.0000
  H   H1679     1.0  0.53017  0.02356  0.24260  1.0000
  H   H1680     1.0  0.80168  0.14308  0.48583  1.0000
  C   C944      1.0  0.76137  0.99732  0.36793  1.0000
  C   C945      1.0  0.70634  0.02437  0.41237  1.0000
  N   N51       1.0  0.65635  0.14788  0.23663  1.0000
  C   C946      1.0  0.65759  0.13136  0.25309  1.0000
  C   C947      1.0  0.63563  0.15865  0.23751  1.0000
  C   C948      1.0  0.65883  0.13779  0.21648  1.0000
  C   C949      1.0  0.67304  0.16270  0.23760  1.0000
  C   C950      1.0  0.67537  0.17273  0.25811  1.0000
  C   C951      1.0  0.67768  0.11828  0.25333  1.0000
  C   C952      1.0  0.65541  0.15171  0.19726  1.0000
  C   C953      1.0  0.62549  0.16192  0.25882  1.0000
  C   C954      1.0  0.60678  0.17628  0.25757  1.0000
  H   H1681     1.0  0.62567  0.07177  0.38618  1.0000
  C   C955      1.0  0.67829  0.10402  0.27209  1.0000
  C   C956      1.0  0.65894  0.13984  0.17797  1.0000
  H   H1682     1.0  0.64494  0.12090  0.25179  1.0000
  H   H1683     1.0  0.65511  0.13749  0.26842  1.0000
  H   H1684     1.0  0.63613  0.17361  0.22914  1.0000
  H   H1685     1.0  0.62451  0.14988  0.22951  1.0000
  H   H1686     1.0  0.64822  0.12512  0.21605  1.0000
  H   H1687     1.0  0.67436  0.13077  0.21444  1.0000
  H   H1688     1.0  0.68795  0.15538  0.23304  1.0000
  H   H1689     1.0  0.67079  0.17544  0.22630  1.0000
  H   H1690     1.0  0.67587  0.16153  0.27105  1.0000
  H   H1691     1.0  0.66272  0.18401  0.26070  1.0000
  H   H1692     1.0  0.67916  0.10870  0.23990  1.0000
  H   H1693     1.0  0.69106  0.12785  0.25350  1.0000
  H   H1694     1.0  0.66603  0.16429  0.19626  1.0000
  H   H1695     1.0  0.63968  0.15832  0.19724  1.0000
  H   H1696     1.0  0.62046  0.14723  0.26551  1.0000
  H   H1697     1.0  0.63583  0.16802  0.26955  1.0000
  H   H1698     1.0  0.59932  0.17748  0.27289  1.0000
  H   H1699     1.0  0.55837  0.13478  0.31942  1.0000
  C   C957      1.0  0.68566  0.03469  0.40700  1.0000
  H   H1700     1.0  0.59568  0.17048  0.24726  1.0000
  C   C958      1.0  0.53738  0.01067  0.25126  1.0000
  H   H1701     1.0  0.66507  0.09412  0.27275  1.0000
  H   H1702     1.0  0.69241  0.09429  0.27156  1.0000
  H   H1703     1.0  0.67813  0.11285  0.28606  1.0000
  H   H1704     1.0  0.51173  0.22202  0.04559  1.0000
  H   H1705     1.0  0.82414  0.21298  0.40736  1.0000
  H   H1706     1.0  0.67221  0.07415  0.38318  1.0000
  H   H1707     1.0  0.81396  0.23537  0.41841  1.0000
  H   H1708     1.0  0.81783  0.23180  0.37334  1.0000
  H   H1709     1.0  0.51831  0.21963  0.99901  1.0000
  C   C959      1.0  0.50632  0.23115  0.00362  1.0000
  H   H1710     1.0  0.92339  0.21474  0.48308  1.0000
  C   C960      1.0  0.99122  0.21195  0.40131  1.0000
  H   H1711     1.0  0.53543  0.21915  0.03093  1.0000
  H   H1712     1.0  0.75511  0.99907  0.42629  1.0000
  C   C961      1.0  0.52393  0.23026  0.03711  1.0000
  H   H1713     1.0  0.66286  0.01396  0.24340  1.0000
  C   C962      1.0  0.92553  0.22051  0.46714  1.0000
  H   H1714     1.0  0.79200  0.23860  0.36742  1.0000
  H   H1715     1.0  0.77387  0.24262  0.42966  1.0000
  C   C963      1.0  0.96921  0.24217  0.40482  1.0000
  C   C964      1.0  0.76014  0.24093  0.45947  1.0000
  H   H1716     1.0  0.63169  0.99756  0.27513  1.0000
  H   H1717     1.0  0.99297  0.19584  0.39905  1.0000
  H   H1718     1.0  0.66927  0.24223  0.05083  1.0000
  N   N52       1.0  0.49789  0.15224  0.30575  1.0000
  C   C965      1.0  0.49639  0.15960  0.28380  1.0000
  H   H1719     1.0  0.53154  0.23961  0.04786  1.0000
  C   C966      1.0  0.64402  0.99487  0.26351  1.0000
  H   H1720     1.0  0.49515  0.11894  0.33603  1.0000
  S   S216      1.0  0.61769  0.22624  0.91168  1.0000
  S   S217      1.0  0.56976  0.22211  0.90441  1.0000
  H   H1721     1.0  0.80232  0.12554  0.64627  1.0000
  H   H1722     1.0  0.54905  0.13119  0.78209  1.0000
  Fe  Fe108     1.0  0.59883  0.21617  0.88609  1.0000
  S   S218      1.0  0.60617  0.18561  0.87056  1.0000
  H   H1723     1.0  0.74665  0.13988  0.64617  1.0000
  S   S219      1.0  0.89255  0.22764  0.56650  1.0000
  Fe  Fe109     1.0  0.87554  0.21889  0.59583  1.0000
  S   S220      1.0  0.86241  0.18754  0.60376  1.0000
  H   H1724     1.0  0.83378  0.11846  0.50995  1.0000
  H   H1725     1.0  0.78768  0.15877  0.63497  1.0000
  Fe  Fe110     1.0  0.75435  0.07129  0.60353  1.0000
  S   S221      1.0  0.72136  0.07545  0.59753  1.0000
  S   S222      1.0  0.76181  0.04160  0.62080  1.0000
  Fe  Fe111     1.0  0.76324  0.11558  0.58895  1.0000
  S   S223      1.0  0.73013  0.12193  0.58245  1.0000
  S   S224      1.0  0.78248  0.14303  0.57945  1.0000
  Fe  Fe112     1.0  0.72267  0.10527  0.61238  1.0000
  S   S225      1.0  0.70560  0.11622  0.64130  1.0000
  Fe  Fe113     1.0  0.73199  0.09134  0.56831  1.0000
  S   S226      1.0  0.72190  0.07934  0.53857  1.0000
  S   S227      1.0  0.75566  0.10069  0.61940  1.0000
  S   S228      1.0  0.76519  0.08556  0.57361  1.0000
  Fe  Fe114     1.0  0.60019  0.11270  0.76748  1.0000
  S   S229      1.0  0.58312  0.11549  0.73823  1.0000
  S   S230      1.0  0.59554  0.14208  0.78582  1.0000
  Fe  Fe115     1.0  0.61165  0.06740  0.75961  1.0000
  S   S231      1.0  0.59447  0.06807  0.73120  1.0000
  S   S232      1.0  0.62899  0.03728  0.76580  1.0000
  Fe  Fe116     1.0  0.60951  0.09753  0.72362  1.0000
  S   S233      1.0  0.62142  0.09949  0.69025  1.0000
  Fe  Fe117     1.0  0.57002  0.08577  0.74821  1.0000
  S   S234      1.0  0.53746  0.07524  0.75107  1.0000
  S   S235      1.0  0.62755  0.09666  0.75189  1.0000
  S   S236      1.0  0.58632  0.08313  0.77755  1.0000
  C   C967      1.0  0.59541  0.01339  0.77021  1.0000
  C   C968      1.0  0.61640  0.01403  0.76661  1.0000
  H   H1726     1.0  0.52090  0.09379  0.78880  1.0000
  H   H1727     1.0  0.58647  0.02737  0.77195  1.0000
  H   H1728     1.0  0.69246  0.03410  0.70636  1.0000
  H   H1729     1.0  0.50847  0.20087  0.88423  1.0000
  C   C969      1.0  0.51412  0.08756  0.74446  1.0000
  C   C970      1.0  0.51308  0.10583  0.73298  1.0000
  H   H1730     1.0  0.73673  0.15809  0.52173  1.0000
  H   H1731     1.0  0.52692  0.11267  0.72736  1.0000
  C   C971      1.0  0.68255  0.11002  0.65489  1.0000
  C   C972      1.0  0.68044  0.11389  0.67572  1.0000
  C   C973      1.0  0.66210  0.11034  0.68693  1.0000
  C   C974      1.0  0.64542  0.10321  0.67734  1.0000
  C   C975      1.0  0.64761  0.09921  0.65653  1.0000
  C   C976      1.0  0.66602  0.10249  0.64540  1.0000
  H   H1732     1.0  0.69302  0.11986  0.68325  1.0000
  H   H1733     1.0  0.66071  0.11356  0.70286  1.0000
  H   H1734     1.0  0.63481  0.09382  0.64888  1.0000
  H   H1735     1.0  0.66719  0.09980  0.62935  1.0000
  C   C977      1.0  0.72338  0.09189  0.51431  1.0000
  C   C978      1.0  0.72068  0.11291  0.51190  1.0000
  H   H1736     1.0  0.62097  0.01090  0.71150  1.0000
  H   H1737     1.0  0.71791  0.12191  0.52511  1.0000
  C   C979      1.0  0.62764  0.22726  0.82807  1.0000
  H   H1738     1.0  0.51289  0.13286  0.82547  1.0000
  C   C980      1.0  0.76121  0.01793  0.60917  1.0000
  H   H1739     1.0  0.55192  0.13736  0.81689  1.0000
  N   N53       1.0  0.51835  0.12583  0.79399  1.0000
  C   C981      1.0  0.77408  0.19675  0.64013  1.0000
  C   C982      1.0  0.83984  0.17568  0.59703  1.0000
  C   C983      1.0  0.83525  0.15666  0.60615  1.0000
  C   C984      1.0  0.81779  0.14650  0.60116  1.0000
  C   C985      1.0  0.80461  0.15519  0.58684  1.0000
  C   C986      1.0  0.80924  0.17414  0.57763  1.0000
  C   C987      1.0  0.82662  0.18436  0.58274  1.0000
  H   H1740     1.0  0.84538  0.14968  0.61714  1.0000
  H   H1741     1.0  0.81470  0.13185  0.60821  1.0000
  H   H1742     1.0  0.79936  0.18100  0.56639  1.0000
  H   H1743     1.0  0.82990  0.19890  0.57549  1.0000
  H   H1744     1.0  0.55036  0.14632  0.73953  1.0000
  C   C988      1.0  0.97066  0.22568  0.60686  1.0000
  H   H1745     1.0  0.66194  0.22035  0.89060  1.0000
  H   H1746     1.0  0.79048  0.13843  0.66745  1.0000
  H   H1747     1.0  0.74674  0.00074  0.50604  1.0000
  C   C989      1.0  0.60269  0.17382  0.84690  1.0000
  C   C990      1.0  0.61044  0.15383  0.84429  1.0000
  C   C991      1.0  0.60832  0.14385  0.82594  1.0000
  C   C992      1.0  0.59852  0.15373  0.80966  1.0000
  C   C993      1.0  0.59073  0.17372  0.81227  1.0000
  C   C994      1.0  0.59269  0.18364  0.83070  1.0000
  H   H1748     1.0  0.61815  0.14593  0.85663  1.0000
  H   H1749     1.0  0.61441  0.12852  0.82436  1.0000
  H   H1750     1.0  0.58306  0.18161  0.79991  1.0000
  H   H1751     1.0  0.58642  0.19888  0.83235  1.0000
  H   H1752     1.0  0.72091  0.17752  0.67171  1.0000
  H   H1753     1.0  0.68578  0.00483  0.66283  1.0000
  C   C995      1.0  0.71532  0.16613  0.66170  1.0000
  H   H1754     1.0  0.77579  0.13857  0.62383  1.0000
  C   C996      1.0  0.74535  0.18457  0.57714  1.0000
  H   H1755     1.0  0.69415  0.21734  0.85157  1.0000
  H   H1756     1.0  0.54666  0.06859  0.80013  1.0000
  C   C997      1.0  0.75160  0.19120  0.64363  1.0000
  H   H1757     1.0  0.84974  0.13479  0.56108  1.0000
  C   C998      1.0  0.76602  0.01609  0.58849  1.0000
  H   H1758     1.0  0.74861  0.19139  0.66029  1.0000
  H   H1759     1.0  0.73725  0.19637  0.56772  1.0000
  H   H1760     1.0  0.72090  0.02421  0.65823  1.0000
  H   H1761     1.0  0.68563  0.15621  0.65364  1.0000
  H   H1762     1.0  0.78376  0.18708  0.65028  1.0000
  H   H1763     1.0  0.54448  0.15975  0.80273  1.0000
  H   H1764     1.0  0.71721  0.15732  0.63051  1.0000
  H   H1765     1.0  0.52415  0.16340  0.77498  1.0000
  C   C999      1.0  0.53334  0.13084  0.77677  1.0000
  H   H1766     1.0  0.74347  0.20227  0.60364  1.0000
  H   H1767     1.0  0.54338  0.10623  0.82610  1.0000
  C   C1000     1.0  0.49734  0.12701  0.78550  1.0000
  H   H1768     1.0  0.75378  0.00164  0.63725  1.0000
  H   H1769     1.0  0.59731  0.03284  0.67722  1.0000
  C   C1001     1.0  0.71092  0.02312  0.67215  1.0000
  H   H1770     1.0  0.69501  0.99801  0.68751  1.0000
  C   C1002     1.0  0.65735  0.18854  0.89646  1.0000
  H   H1771     1.0  0.61063  0.04436  0.69667  1.0000
  H   H1772     1.0  0.49710  0.11775  0.77185  1.0000
  C   C1003     1.0  0.51881  0.14029  0.81110  1.0000
  H   H1773     1.0  0.51109  0.09966  0.81344  1.0000
  C   C1004     1.0  0.75599  0.15354  0.64661  1.0000
  C   C1005     1.0  0.73191  0.02321  0.53582  1.0000
  H   H1774     1.0  0.66339  0.04750  0.73037  1.0000
  C   C1006     1.0  0.60582  0.21769  0.98680  1.0000
  C   C1007     1.0  0.74992  0.17031  0.61302  1.0000
  N   N54       1.0  0.74559  0.17136  0.63559  1.0000
  H   H1775     1.0  0.49662  0.06461  0.76029  1.0000
  H   H1776     1.0  0.71323  0.19162  0.81665  1.0000
  C   C1008     1.0  0.66451  0.20603  0.88244  1.0000
  H   H1777     1.0  0.68323  0.18090  0.85196  1.0000
  H   H1778     1.0  0.66124  0.17379  0.88950  1.0000
  H   H1779     1.0  0.81086  0.09129  0.51204  1.0000
  C   C1009     1.0  0.77732  0.14629  0.63825  1.0000
  C   C1010     1.0  0.70893  0.18404  0.83143  1.0000
  H   H1780     1.0  0.51587  0.14909  0.75448  1.0000
  H   H1781     1.0  0.59421  0.99444  0.67872  1.0000
  H   H1782     1.0  0.96290  0.20166  0.53223  1.0000
  H   H1783     1.0  0.53388  0.15111  0.84797  1.0000
  H   H1784     1.0  0.54300  0.17240  0.74346  1.0000
  H   H1785     1.0  0.68612  0.18271  0.65932  1.0000
  H   H1786     1.0  0.75711  0.15665  0.66297  1.0000
  H   H1787     1.0  0.85958  0.12976  0.53580  1.0000
  H   H1788     1.0  0.71473  0.18388  0.63363  1.0000
  H   H1789     1.0  0.74555  0.15532  0.60782  1.0000
  H   H1790     1.0  0.53455  0.07024  0.82515  1.0000
  H   H1791     1.0  0.67718  0.18416  0.82569  1.0000
  H   H1792     1.0  0.66485  0.18879  0.91119  1.0000
  H   H1793     1.0  0.61505  0.21466  0.97326  1.0000
  H   H1794     1.0  0.72906  0.02822  0.55158  1.0000
  C   C1011     1.0  0.61033  0.03078  0.68737  1.0000
  H   H1795     1.0  0.75778  0.16699  0.53505  1.0000
  C   C1012     1.0  0.68356  0.21267  0.84009  1.0000
  C   C1013     1.0  0.99138  0.21529  0.52288  1.0000
  C   C1014     1.0  0.61731  0.22577  0.80791  1.0000
  H   H1796     1.0  0.71925  0.18855  0.84319  1.0000
  C   C1015     1.0  0.73057  0.00019  0.53542  1.0000
  H   H1797     1.0  0.72046  0.15086  0.66756  1.0000
  H   H1798     1.0  0.77416  0.09480  0.49756  1.0000
  H   H1799     1.0  0.68909  0.22014  0.82561  1.0000
  C   C1016     1.0  0.77809  0.06925  0.51820  1.0000
  H   H1800     1.0  0.68107  0.20354  0.87977  1.0000
  C   C1017     1.0  0.72639  0.08033  0.49694  1.0000
  H   H1801     1.0  0.78149  0.06563  0.53432  1.0000
  H   H1802     1.0  0.98697  0.21562  0.50682  1.0000
  H   H1803     1.0  0.95674  0.21858  0.61180  1.0000
  S   S237      1.0  0.57572  0.23359  0.96134  1.0000
  C   C1018     1.0  0.93032  0.21887  0.65977  1.0000
  H   H1804     1.0  0.64067  0.18977  0.89939  1.0000
  H   H1805     1.0  0.72040  0.03097  0.52606  1.0000
  H   H1806     1.0  0.55330  0.16714  0.83746  1.0000
  H   H1807     1.0  0.72028  0.99845  0.50539  1.0000
  Fe  Fe118     1.0  0.58837  0.23495  0.92841  1.0000
  H   H1808     1.0  0.64825  0.20188  0.82341  1.0000
  H   H1809     1.0  0.59386  0.01394  0.71056  1.0000
  H   H1810     1.0  0.76542  0.09901  0.52341  1.0000
  H   H1811     1.0  0.50729  0.18608  0.86203  1.0000
  H   H1812     1.0  0.60127  0.23150  0.80953  1.0000
  H   H1813     1.0  0.79345  0.22204  0.64329  1.0000
  H   H1814     1.0  0.65010  0.19181  0.85762  1.0000
  H   H1815     1.0  0.84526  0.15319  0.54081  1.0000
  H   H1816     1.0  0.78960  0.06143  0.50821  1.0000
  H   H1817     1.0  0.72818  0.06403  0.49864  1.0000
  H   H1818     1.0  0.52829  0.23589  0.90780  1.0000
  H   H1819     1.0  0.71086  0.16739  0.82985  1.0000
  H   H1820     1.0  0.62472  0.02983  0.67806  1.0000
  H   H1821     1.0  0.50829  0.15366  0.80832  1.0000
  H   H1822     1.0  0.54088  0.20120  0.86478  1.0000
  C   C1019     1.0  0.68685  0.18950  0.83757  1.0000
  H   H1823     1.0  0.52908  0.22623  0.86440  1.0000
  H   H1824     1.0  0.77231  0.22122  0.66145  1.0000
  C   C1020     1.0  0.76763  0.99680  0.58013  1.0000
  N   N55       1.0  0.69746  0.04202  0.67436  1.0000
  H   H1825     1.0  0.74727  0.02794  0.53059  1.0000
  C   C1021     1.0  0.71040  0.05960  0.67850  1.0000
  C   C1022     1.0  0.68348  0.03876  0.69286  1.0000
  C   C1023     1.0  0.68467  0.04678  0.65612  1.0000
  C   C1024     1.0  0.69385  0.04074  0.63509  1.0000
  H   H1826     1.0  0.98862  0.21030  0.62990  1.0000
  C   C1025     1.0  0.66931  0.05714  0.69871  1.0000
  C   C1026     1.0  0.72809  0.06428  0.66310  1.0000
  C   C1027     1.0  0.74139  0.08034  0.67109  1.0000
  C   C1028     1.0  0.68028  0.04870  0.61806  1.0000
  C   C1029     1.0  0.69966  0.00299  0.67177  1.0000
  C   C1030     1.0  0.65483  0.05162  0.71655  1.0000
  H   H1827     1.0  0.72251  0.18599  0.60090  1.0000
  C   C1031     1.0  0.77711  0.21868  0.64540  1.0000
  H   H1828     1.0  0.70100  0.07394  0.67909  1.0000
  H   H1829     1.0  0.71701  0.05720  0.69373  1.0000
  H   H1830     1.0  0.76841  0.15348  0.50123  1.0000
  H   H1831     1.0  0.67326  0.02615  0.69063  1.0000
  H   H1832     1.0  0.66992  0.03917  0.65791  1.0000
  H   H1833     1.0  0.68044  0.06325  0.65510  1.0000
  H   H1834     1.0  0.75819  0.12950  0.50892  1.0000
  H   H1835     1.0  0.70917  0.04657  0.63208  1.0000
  C   C1032     1.0  0.54314  0.09928  0.81110  1.0000
  C   C1033     1.0  0.72290  0.16984  0.63928  1.0000
  H   H1836     1.0  0.66001  0.06246  0.68576  1.0000
  H   H1837     1.0  0.67813  0.06990  0.70349  1.0000
  H   H1838     1.0  0.73817  0.05080  0.66029  1.0000
  H   H1839     1.0  0.72208  0.07043  0.64856  1.0000
  H   H1840     1.0  0.75446  0.08285  0.66031  1.0000
  H   H1841     1.0  0.73257  0.09491  0.67273  1.0000
  H   H1842     1.0  0.74752  0.07528  0.68596  1.0000
  H   H1843     1.0  0.67913  0.06552  0.61764  1.0000
  H   H1844     1.0  0.68690  0.04378  0.60323  1.0000
  H   H1845     1.0  0.66483  0.04273  0.62021  1.0000
  H   H1846     1.0  0.74131  0.16945  0.57221  1.0000
  H   H1847     1.0  0.64443  0.06483  0.71986  1.0000
  H   H1848     1.0  0.64547  0.03879  0.71300  1.0000
  H   H1849     1.0  0.72160  0.02150  0.68483  1.0000
  H   H1850     1.0  0.63739  0.21375  0.86681  1.0000
  H   H1851     1.0  0.96228  0.22887  0.53347  1.0000
  H   H1852     1.0  0.61740  0.20978  0.80333  1.0000
  H   H1853     1.0  0.52857  0.21103  0.84234  1.0000
  C   C1034     1.0  0.53965  0.14915  0.81530  1.0000
  H   H1854     1.0  0.91482  0.21306  0.66226  1.0000
  H   H1855     1.0  0.77956  0.19514  0.62418  1.0000
  H   H1856     1.0  0.76194  0.18627  0.57457  1.0000
  H   H1857     1.0  0.56025  0.15929  0.76047  1.0000
  C   C1035     1.0  0.78756  0.13111  0.65307  1.0000
  H   H1858     1.0  0.56153  0.07323  0.82161  1.0000
  C   C1036     1.0  0.52860  0.15102  0.76467  1.0000
  C   C1037     1.0  0.73925  0.18695  0.59951  1.0000
  C   C1038     1.0  0.52246  0.10422  0.80146  1.0000
  C   C1039     1.0  0.60809  0.01179  0.70120  1.0000
  H   H1859     1.0  0.74187  0.20393  0.63736  1.0000
  C   C1040     1.0  0.53829  0.16104  0.83468  1.0000
  C   C1041     1.0  0.92936  0.24192  0.66107  1.0000
  H   H1860     1.0  0.77791  0.11792  0.65639  1.0000
  H   H1861     1.0  0.93657  0.23781  0.50283  1.0000
  C   C1042     1.0  0.65275  0.20739  0.86250  1.0000
  H   H1862     1.0  0.69518  0.02403  0.63412  1.0000
  S   S238      1.0  0.90029  0.23010  0.61496  1.0000
  N   N56       1.0  0.80093  0.12293  0.51244  1.0000
  H   H1863     1.0  0.71519  0.99639  0.54145  1.0000
  C   C1043     1.0  0.78596  0.13642  0.52431  1.0000
  C   C1044     1.0  0.82209  0.12835  0.51764  1.0000
  C   C1045     1.0  0.79828  0.10097  0.51864  1.0000
  H   H1864     1.0  0.82500  0.14415  0.51202  1.0000
  H   H1865     1.0  0.76637  0.17094  0.60918  1.0000
  C   C1046     1.0  0.82690  0.12653  0.54054  1.0000
  C   C1047     1.0  0.76566  0.14275  0.51437  1.0000
  C   C1048     1.0  0.75096  0.15336  0.52936  1.0000
  C   C1049     1.0  0.52776  0.21062  0.85918  1.0000
  H   H1866     1.0  0.76936  0.02944  0.57913  1.0000
  C   C1050     1.0  0.84661  0.13668  0.54468  1.0000
  C   C1051     1.0  0.64965  0.21811  0.82676  1.0000
  C   C1052     1.0  0.97178  0.21479  0.53602  1.0000
  H   H1867     1.0  0.78215  0.12911  0.53940  1.0000
  H   H1868     1.0  0.79279  0.15099  0.52771  1.0000
  H   H1869     1.0  0.55596  0.10479  0.80140  1.0000
  H   H1870     1.0  0.74709  0.14289  0.54241  1.0000
  C   C1053     1.0  0.77779  0.09213  0.51371  1.0000
  H   H1871     1.0  0.79947  0.09863  0.53536  1.0000
  N   N57       1.0  0.66205  0.21997  0.84527  1.0000
  H   H1872     1.0  0.65747  0.22495  0.81304  1.0000
  H   H1873     1.0  0.52709  0.17393  0.83309  1.0000
  C   C1054     1.0  0.54673  0.15760  0.75127  1.0000
  H   H1874     1.0  0.82864  0.11036  0.54564  1.0000
  H   H1875     1.0  0.81479  0.13373  0.55017  1.0000
  C   C1055     1.0  0.50791  0.20169  0.86741  1.0000
  H   H1876     1.0  0.93620  0.21438  0.64454  1.0000
  H   H1877     1.0  0.61849  0.21891  0.83983  1.0000
  C   C1056     1.0  0.62779  0.99569  0.76450  1.0000
  H   H1878     1.0  0.50642  0.21777  0.96578  1.0000
  C   C1057     1.0  0.98878  0.22089  0.61697  1.0000
  H   H1879     1.0  0.94022  0.21178  0.67152  1.0000
  C   C1058     1.0  0.75722  0.00038  0.62120  1.0000
  H   H1880     1.0  0.53423  0.11857  0.76569  1.0000
  C   C1059     1.0  0.54659  0.07642  0.81471  1.0000
  C   C1060     1.0  0.69212  0.16724  0.66358  1.0000
  H   H1881     1.0  0.68705  0.16347  0.67949  1.0000
  C   C1061     1.0  0.49598  0.07877  0.75148  1.0000
  H   H1882     1.0  0.76834  0.22931  0.63526  1.0000
  N   N58       1.0  0.49875  0.24280  0.98505  1.0000
  C   C1062     1.0  0.58637  0.22673  0.98508  1.0000
  H   H1883     1.0  0.76299  0.06339  0.51542  1.0000
  H   H1884     1.0  0.97527  0.21318  0.55236  1.0000
  C   C1063     1.0  0.97073  0.23924  0.59005  1.0000
  H   H1885     1.0  0.64406  0.99603  0.76185  1.0000
  H   H1886     1.0  0.77237  0.99549  0.56436  1.0000
  H   H1887     1.0  0.49482  0.22622  0.92225  1.0000
  Fe  Fe119     1.0  0.91538  0.24157  0.58586  1.0000
  H   H1888     1.0  0.62512  0.23503  0.79579  1.0000
  H   H1889     1.0  0.95826  0.24306  0.64489  1.0000
  C   C1064     1.0  0.49571  0.23887  0.91141  1.0000
  C   C1065     1.0  0.58604  0.99464  0.77241  1.0000
  H   H1890     1.0  0.56987  0.99438  0.77581  1.0000
  C   C1066     1.0  0.66224  0.24161  0.85164  1.0000
  H   H1891     1.0  0.67247  0.24278  0.86451  1.0000
  H   H1892     1.0  0.62719  0.24348  0.83171  1.0000
  Fe  Fe120     1.0  0.75151  0.37560  0.07014  1.0000
  S   S239      1.0  0.72216  0.39394  0.06989  1.0000
  S   S240      1.0  0.76396  0.36117  0.04113  1.0000
  Fe  Fe121     1.0  0.75681  0.38072  0.11632  1.0000
  S   S241      1.0  0.72723  0.39912  0.11816  1.0000
  S   S242      1.0  0.77100  0.37645  0.14781  1.0000
  Fe  Fe122     1.0  0.71423  0.37577  0.09867  1.0000
  S   S243      1.0  0.68289  0.36278  0.10735  1.0000
  Fe  Fe123     1.0  0.73810  0.41517  0.08941  1.0000
  S   S244      1.0  0.74248  0.44874  0.08142  1.0000
  S   S245      1.0  0.74314  0.35660  0.09829  1.0000
  S   S246      1.0  0.76801  0.39756  0.08804  1.0000
  S   S247      1.0  0.58912  0.25518  0.07524  1.0000
  H   H1893     1.0  0.56357  0.28856  0.05410  1.0000
  H   H1894     1.0  0.89541  0.46390  0.23987  1.0000
  H   H1895     1.0  0.65138  0.33817  0.02582  1.0000
  Fe  Fe124     1.0  0.60945  0.25958  0.10111  1.0000
  S   S248      1.0  0.63616  0.28095  0.09395  1.0000
  Fe  Fe125     1.0  0.87242  0.39049  0.21754  1.0000
  S   S249      1.0  0.85664  0.39393  0.24835  1.0000
  S   S250      1.0  0.85818  0.38292  0.18739  1.0000
  Fe  Fe126     1.0  0.91370  0.40334  0.23293  1.0000
  S   S251      1.0  0.89970  0.40806  0.26394  1.0000
  S   S252      1.0  0.94645  0.41396  0.23103  1.0000
  Fe  Fe127     1.0  0.88487  0.37829  0.26138  1.0000
  S   S253      1.0  0.89099  0.35957  0.29111  1.0000
  Fe  Fe128     1.0  0.87319  0.42316  0.24871  1.0000
  S   S254      1.0  0.85739  0.45217  0.26017  1.0000
  S   S255      1.0  0.89985  0.37298  0.23053  1.0000
  S   S256      1.0  0.88774  0.42045  0.21765  1.0000
  Fe  Fe129     1.0  0.87827  0.26161  0.37292  1.0000
  S   S257      1.0  0.86955  0.27800  0.34268  1.0000
  C   C1067     1.0  0.65141  0.32715  0.03897  1.0000
  Fe  Fe130     1.0  0.91277  0.24633  0.40013  1.0000
  S   S258      1.0  0.89295  0.27501  0.39906  1.0000
  C   C1068     1.0  0.98654  0.25339  0.40705  1.0000
  C   C1069     1.0  0.85740  0.27096  0.47305  1.0000
  H   H1896     1.0  0.77864  0.47084  0.17282  1.0000
  H   H1897     1.0  0.83823  0.29789  0.47594  1.0000
  H   H1898     1.0  0.92841  0.26918  0.44590  1.0000
  H   H1899     1.0  0.81659  0.32610  0.35225  1.0000
  C   C1070     1.0  0.88568  0.33624  0.30464  1.0000
  C   C1071     1.0  0.87368  0.32164  0.29694  1.0000
  C   C1072     1.0  0.86914  0.30393  0.30872  1.0000
  C   C1073     1.0  0.87669  0.30033  0.32828  1.0000
  C   C1074     1.0  0.88901  0.31479  0.33584  1.0000
  C   C1075     1.0  0.89338  0.33261  0.32413  1.0000
  H   H1900     1.0  0.86775  0.32402  0.28196  1.0000
  H   H1901     1.0  0.85963  0.29289  0.30264  1.0000
  H   H1902     1.0  0.89488  0.31238  0.35085  1.0000
  H   H1903     1.0  0.90255  0.34381  0.33037  1.0000
  C   C1076     1.0  0.86918  0.47582  0.25652  1.0000
  C   C1077     1.0  0.81615  0.39633  0.31801  1.0000
  H   H1904     1.0  0.77928  0.42009  0.15555  1.0000
  C   C1078     1.0  0.50531  0.26047  0.12076  1.0000
  H   H1905     1.0  0.96003  0.27761  0.44321  1.0000
  C   C1079     1.0  0.78879  0.47086  0.15891  1.0000
  C   C1080     1.0  0.97067  0.40097  0.23021  1.0000
  C   C1081     1.0  0.97412  0.38263  0.22057  1.0000
  C   C1082     1.0  0.62493  0.26794  0.03456  1.0000
  H   H1906     1.0  0.96177  0.37590  0.21336  1.0000
  C   C1083     1.0  0.83438  0.36958  0.29929  1.0000
  C   C1084     1.0  0.75468  0.44173  0.14903  1.0000
  H   H1907     1.0  0.90601  0.28802  0.48279  1.0000
  C   C1085     1.0  0.50791  0.25533  0.10047  1.0000
  S   S259      1.0  0.94515  0.25513  0.40597  1.0000
  H   H1908     1.0  0.71699  0.34185  0.03348  1.0000
  H   H1909     1.0  0.93758  0.32809  0.33897  1.0000
  C   C1086     1.0  0.67000  0.34015  0.10275  1.0000
  C   C1087     1.0  0.67827  0.32509  0.09018  1.0000
  C   C1088     1.0  0.66770  0.30720  0.08767  1.0000
  C   C1089     1.0  0.64867  0.30404  0.09758  1.0000
  C   C1090     1.0  0.64034  0.31919  0.10998  1.0000
  C   C1091     1.0  0.65091  0.33706  0.11250  1.0000
  H   H1910     1.0  0.69279  0.32722  0.08239  1.0000
  H   H1911     1.0  0.67435  0.29568  0.07800  1.0000
  H   H1912     1.0  0.62575  0.31714  0.11770  1.0000
  H   H1913     1.0  0.64425  0.34854  0.12222  1.0000
  C   C1092     1.0  0.79534  0.37952  0.15826  1.0000
  C   C1093     1.0  0.79662  0.38076  0.17946  1.0000
  C   C1094     1.0  0.81551  0.38236  0.18860  1.0000
  C   C1095     1.0  0.83359  0.38239  0.17670  1.0000
  C   C1096     1.0  0.83227  0.38145  0.15549  1.0000
  C   C1097     1.0  0.81334  0.38022  0.14631  1.0000
  H   H1914     1.0  0.78288  0.38024  0.18894  1.0000
  H   H1915     1.0  0.81614  0.38303  0.20490  1.0000
  H   H1916     1.0  0.84607  0.38142  0.14605  1.0000
  H   H1917     1.0  0.81278  0.37920  0.13004  1.0000
  H   H1918     1.0  0.78290  0.45616  0.12104  1.0000
  C   C1098     1.0  0.73880  0.46972  0.09726  1.0000
  C   C1099     1.0  0.72467  0.46982  0.11363  1.0000
  H   H1919     1.0  0.88526  0.42539  0.30576  1.0000
  H   H1920     1.0  0.71632  0.45640  0.11758  1.0000
  C   C1100     1.0  0.75932  0.37253  0.01684  1.0000
  H   H1921     1.0  0.94506  0.30230  0.33385  1.0000
  C   C1101     1.0  0.74808  0.39084  0.01466  1.0000
  C   C1102     1.0  0.99382  0.37342  0.21941  1.0000
  H   H1922     1.0  0.74248  0.39859  0.02799  1.0000
  H   H1923     1.0  0.86242  0.40025  0.29387  1.0000
  C   C1103     1.0  0.84001  0.34514  0.33840  1.0000
  H   H1924     1.0  0.83719  0.38107  0.28687  1.0000
  H   H1925     1.0  0.94200  0.47528  0.22557  1.0000
  C   C1104     1.0  0.95100  0.24671  0.35039  1.0000
  H   H1926     1.0  0.97300  0.39301  0.28548  1.0000
  H   H1927     1.0  0.50311  0.25398  0.02715  1.0000
  H   H1928     1.0  0.99077  0.32500  0.29017  1.0000
  C   C1105     1.0  0.98933  0.33152  0.27452  1.0000
  H   H1929     1.0  0.65636  0.26299  0.02153  1.0000
  H   H1930     1.0  0.83160  0.33838  0.37022  1.0000
  C   C1106     1.0  0.98719  0.40996  0.23863  1.0000
  H   H1931     1.0  0.63333  0.30355  0.05252  1.0000
  S   S260      1.0  0.85332  0.27092  0.44655  1.0000
  H   H1932     1.0  0.80865  0.41692  0.08971  1.0000
  H   H1933     1.0  0.70786  0.45924  0.03086  1.0000
  C   C1107     1.0  0.77989  0.48707  0.14359  1.0000
  H   H1934     1.0  0.98477  0.42429  0.24587  1.0000
  H   H1935     1.0  0.81242  0.34534  0.30439  1.0000
  H   H1936     1.0  0.76057  0.48732  0.07981  1.0000
  H   H1937     1.0  0.93678  0.25625  0.35176  1.0000
  H   H1938     1.0  0.80435  0.25242  0.38607  1.0000
  H   H1939     1.0  0.81494  0.42475  0.15704  1.0000
  C   C1108     1.0  0.72066  0.48767  0.12436  1.0000
  H   H1940     1.0  0.85260  0.39277  0.33988  1.0000
  H   H1941     1.0  0.72665  0.46741  0.01208  1.0000
  H   H1942     1.0  0.91351  0.30354  0.43864  1.0000
  H   H1943     1.0  0.93676  0.33379  0.21589  1.0000
  C   C1109     1.0  0.84739  0.28640  0.48388  1.0000
  C   C1110     1.0  0.54393  0.24421  0.17327  1.0000
  H   H1944     1.0  0.83323  0.33747  0.27317  1.0000
  C   C1111     1.0  0.83203  0.33091  0.35544  1.0000
  C   C1112     1.0  0.59738  0.29321  0.02727  1.0000
  N   N59       1.0  0.95583  0.35277  0.28095  1.0000
  C   C1113     1.0  0.94412  0.33997  0.26742  1.0000
  C   C1114     1.0  0.95237  0.34609  0.30305  1.0000
  C   C1115     1.0  0.94757  0.37437  0.27844  1.0000
  H   H1945     1.0  0.73374  0.46106  0.03787  1.0000
  H   H1946     1.0  0.58371  0.26370  0.03278  1.0000
  H   H1947     1.0  0.96306  0.34302  0.23919  1.0000
  C   C1116     1.0  0.95739  0.39005  0.29154  1.0000
  C   C1117     1.0  0.94896  0.32327  0.30794  1.0000
  C   C1118     1.0  0.94903  0.31833  0.33077  1.0000
  H   H1948     1.0  0.84523  0.49248  0.27257  1.0000
  H   H1949     1.0  0.95564  0.28186  0.48199  1.0000
  H   H1950     1.0  0.97551  0.25513  0.44907  1.0000
  H   H1951     1.0  0.92758  0.34150  0.27152  1.0000
  H   H1952     1.0  0.94818  0.32364  0.26975  1.0000
  H   H1953     1.0  0.96516  0.35056  0.31218  1.0000
  H   H1954     1.0  0.93853  0.35406  0.30968  1.0000
  H   H1955     1.0  0.93086  0.37508  0.28174  1.0000
  H   H1956     1.0  0.94962  0.38020  0.26253  1.0000
  H   H1957     1.0  0.81884  0.48006  0.20585  1.0000
  H   H1958     1.0  0.98140  0.32087  0.26537  1.0000
  H   H1959     1.0  0.92909  0.29863  0.47195  1.0000
  H   H1960     1.0  0.65095  0.33573  0.05312  1.0000
  H   H1961     1.0  0.76600  0.48210  0.13677  1.0000
  H   H1962     1.0  0.55527  0.30184  0.03118  1.0000
  C   C1119     1.0  0.88788  0.47731  0.24596  1.0000
  H   H1963     1.0  0.95825  0.38474  0.30763  1.0000
  H   H1964     1.0  0.93389  0.31930  0.30263  1.0000
  H   H1965     1.0  0.96073  0.31338  0.30050  1.0000
  H   H1966     1.0  0.54457  0.26016  0.16738  1.0000
  C   C1120     1.0  0.86908  0.25606  0.48373  1.0000
  H   H1967     1.0  0.80318  0.47727  0.16357  1.0000
  C   C1121     1.0  0.82629  0.36472  0.33632  1.0000
  H   H1968     1.0  0.82639  0.37197  0.35122  1.0000
  C   C1122     1.0  0.71698  0.49009  0.03395  1.0000
  C   C1123     1.0  0.81375  0.41025  0.33640  1.0000
  H   H1969     1.0  0.51834  0.26436  0.12897  1.0000
  C   C1124     1.0  0.82277  0.48240  0.22172  1.0000
  H   H1970     1.0  0.61933  0.27101  0.05026  1.0000
  C   C1125     1.0  0.77533  0.43625  0.15847  1.0000
  C   C1126     1.0  0.73811  0.42859  0.15869  1.0000
  C   C1127     1.0  0.85261  0.38777  0.32399  1.0000
  C   C1128     1.0  0.91608  0.28934  0.46893  1.0000
  H   H1971     1.0  0.81672  0.44231  0.09223  1.0000
  C   C1129     1.0  0.56052  0.28693  0.03783  1.0000
  H   H1972     1.0  0.82498  0.44931  0.15583  1.0000
  C   C1130     1.0  0.95623  0.48314  0.22139  1.0000
  H   H1973     1.0  0.77268  0.43668  0.17520  1.0000
  H   H1974     1.0  0.81615  0.42217  0.12484  1.0000
  C   C1131     1.0  0.81159  0.44063  0.16142  1.0000
  H   H1975     1.0  0.65256  0.28558  0.14113  1.0000
  H   H1976     1.0  0.84795  0.35907  0.29871  1.0000
  H   H1977     1.0  0.85565  0.34880  0.34204  1.0000
  H   H1978     1.0  0.96767  0.27004  0.33486  1.0000
  H   H1979     1.0  0.80219  0.36804  0.29192  1.0000
  H   H1980     1.0  0.73566  0.43169  0.17503  1.0000
  H   H1981     1.0  0.63927  0.25314  0.99552  1.0000
  H   H1982     1.0  0.94441  0.41663  0.27535  1.0000
  H   H1983     1.0  0.84072  0.33661  0.32428  1.0000
  N   N60       1.0  0.93812  0.25615  0.47481  1.0000
  H   H1984     1.0  0.66559  0.27651  0.16342  1.0000
  H   H1985     1.0  0.74984  0.45763  0.15180  1.0000
  H   H1986     1.0  0.65476  0.27616  0.04466  1.0000
  H   H1987     1.0  0.52744  0.25353  0.01386  1.0000
  C   C1132     1.0  0.57950  0.27885  0.02623  1.0000
  H   H1988     1.0  0.94091  0.35989  0.24008  1.0000
  H   H1989     1.0  0.54818  0.27612  0.03702  1.0000
  H   H1990     1.0  0.84069  0.42401  0.18675  1.0000
  H   H1991     1.0  0.96427  0.32052  0.33667  1.0000
  H   H1992     1.0  0.83133  0.43497  0.21000  1.0000
  H   H1993     1.0  0.72362  0.43204  0.15101  1.0000
  H   H1994     1.0  0.95309  0.42132  0.30012  1.0000
  H   H1995     1.0  0.79605  0.43679  0.34609  1.0000
  C   C1133     1.0  0.66772  0.28305  0.14775  1.0000
  C   C1134     1.0  0.94538  0.41031  0.29114  1.0000
  H   H1996     1.0  0.95767  0.48467  0.20458  1.0000
  H   H1997     1.0  0.83874  0.47697  0.22391  1.0000
  H   H1998     1.0  0.69398  0.35528  0.04176  1.0000
  C   C1135     1.0  0.63294  0.31402  0.03896  1.0000
  H   H1999     1.0  0.71368  0.36879  0.02815  1.0000
  N   N61       1.0  0.71329  0.31783  0.15350  1.0000
  C   C1136     1.0  0.69913  0.30072  0.15805  1.0000
  C   C1137     1.0  0.73106  0.31528  0.16724  1.0000
  C   C1138     1.0  0.70181  0.33734  0.15875  1.0000
  C   C1139     1.0  0.72059  0.31934  0.13148  1.0000
  C   C1140     1.0  0.72286  0.29932  0.11988  1.0000
  C   C1141     1.0  0.67833  0.30314  0.14786  1.0000
  C   C1142     1.0  0.71432  0.35674  0.15791  1.0000
  C   C1143     1.0  0.74473  0.29583  0.16510  1.0000
  C   C1144     1.0  0.76087  0.29445  0.18114  1.0000
  C   C1145     1.0  0.73458  0.30238  0.09961  1.0000
  C   C1146     1.0  0.70054  0.37566  0.16081  1.0000
  H   H2000     1.0  0.69585  0.29899  0.17471  1.0000
  H   H2001     1.0  0.70628  0.28597  0.15378  1.0000
  H   H2002     1.0  0.74162  0.32787  0.16439  1.0000
  H   H2003     1.0  0.72558  0.31610  0.18340  1.0000
  H   H2004     1.0  0.69455  0.33590  0.17426  1.0000
  H   H2005     1.0  0.68916  0.34053  0.14824  1.0000
  H   H2006     1.0  0.71019  0.32950  0.12243  1.0000
  H   H2007     1.0  0.73543  0.32679  0.13021  1.0000
  H   H2008     1.0  0.70771  0.29392  0.11653  1.0000
  H   H2009     1.0  0.73085  0.28702  0.12860  1.0000
  H   H2010     1.0  0.66813  0.31401  0.15623  1.0000
  H   H2011     1.0  0.68013  0.30908  0.13202  1.0000
  H   H2012     1.0  0.72286  0.35849  0.14315  1.0000
  H   H2013     1.0  0.72523  0.35627  0.17029  1.0000
  H   H2014     1.0  0.73593  0.28193  0.16695  1.0000
  H   H2015     1.0  0.75295  0.29617  0.15009  1.0000
  H   H2016     1.0  0.75366  0.29361  0.19664  1.0000
  H   H2017     1.0  0.77074  0.28060  0.17908  1.0000
  H   H2018     1.0  0.77057  0.30781  0.17965  1.0000
  H   H2019     1.0  0.72686  0.31425  0.08996  1.0000
  H   H2020     1.0  0.75030  0.30688  0.10208  1.0000
  H   H2021     1.0  0.73541  0.28803  0.09140  1.0000
  H   H2022     1.0  0.69156  0.37441  0.17536  1.0000
  H   H2023     1.0  0.70994  0.38918  0.16110  1.0000
  H   H2024     1.0  0.69003  0.37793  0.14812  1.0000
  H   H2025     1.0  0.84088  0.45104  0.18935  1.0000
  H   H2026     1.0  0.81036  0.36025  0.33483  1.0000
  H   H2027     1.0  0.80319  0.45297  0.19165  1.0000
  H   H2028     1.0  0.79009  0.43777  0.08960  1.0000
  C   C1147     1.0  0.72169  0.46814  0.02829  1.0000
  H   H2029     1.0  0.79027  0.45125  0.00911  1.0000
  H   H2030     1.0  0.75548  0.43933  0.13247  1.0000
  H   H2031     1.0  0.98484  0.26950  0.40920  1.0000
  H   H2032     1.0  0.92982  0.40844  0.29783  1.0000
  N   N62       1.0  0.83235  0.37960  0.31943  1.0000
  H   H2033     1.0  0.98070  0.36066  0.26016  1.0000
  H   H2034     1.0  0.57529  0.27729  0.01026  1.0000
  C   C1148     1.0  0.80442  0.43176  0.09632  1.0000
  H   H2035     1.0  0.80104  0.38988  0.31636  1.0000
  H   H2036     1.0  0.81276  0.47328  0.23211  1.0000
  H   H2037     1.0  0.84224  0.31713  0.35661  1.0000
  H   H2038     1.0  0.64791  0.29724  0.01461  1.0000
  C   C1149     1.0  0.95790  0.26677  0.47537  1.0000
  H   H2039     1.0  0.98297  0.29850  0.46123  1.0000
  H   H2040     1.0  0.96833  0.25801  0.48566  1.0000
  H   H2041     1.0  0.66563  0.31754  0.03855  1.0000
  H   H2042     1.0  0.80202  0.43681  0.31922  1.0000
  H   H2043     1.0  0.61920  0.32421  0.04067  1.0000
  H   H2044     1.0  0.86468  0.37554  0.32322  1.0000
  S   S261      1.0  0.58331  0.25429  0.12407  1.0000
  C   C1150     1.0  0.83225  0.43726  0.19322  1.0000
  H   H2045     1.0  0.80905  0.45978  0.12462  1.0000
  C   C1151     1.0  0.97817  0.35254  0.27511  1.0000
  H   H2046     1.0  0.80899  0.40148  0.35034  1.0000
  C   C1152     1.0  0.93537  0.32960  0.23235  1.0000
  S   S262      1.0  0.85442  0.24690  0.39367  1.0000
  H   H2047     1.0  0.59776  0.29753  0.04339  1.0000
  C   C1153     1.0  0.79636  0.44968  0.12898  1.0000
  C   C1154     1.0  0.94687  0.34447  0.24428  1.0000
  H   H2048     1.0  0.90864  0.25969  0.46145  1.0000
  H   H2049     1.0  0.80243  0.42605  0.19060  1.0000
  H   H2050     1.0  0.68716  0.33648  0.01197  1.0000
  C   C1155     1.0  0.90391  0.30092  0.45264  1.0000
  C   C1156     1.0  0.63220  0.30232  0.01904  1.0000
  H   H2051     1.0  0.79121  0.49031  0.13108  1.0000
  H   H2052     1.0  0.89058  0.29234  0.44884  1.0000
  H   H2053     1.0  0.82809  0.41761  0.33924  1.0000
  C   C1157     1.0  0.98803  0.28297  0.45694  1.0000
  C   C1158     1.0  0.74943  0.48734  0.09228  1.0000
  H   H2054     1.0  0.91900  0.33006  0.23705  1.0000
  H   H2055     1.0  0.80653  0.34007  0.26849  1.0000
  H   H2056     1.0  0.74233  0.41227  0.15720  1.0000
  H   H2057     1.0  0.62770  0.31359  0.00684  1.0000
  H   H2058     1.0  0.67666  0.27210  0.13829  1.0000
  C   C1159     1.0  0.69604  0.35026  0.00937  1.0000
  Fe  Fe131     1.0  0.87138  0.25770  0.41981  1.0000
  C   C1160     1.0  0.70582  0.35425  0.02935  1.0000
  C   C1161     1.0  0.79761  0.42712  0.33271  1.0000
  C   C1162     1.0  0.86011  0.40533  0.30960  1.0000
  C   C1163     1.0  0.81091  0.43948  0.18501  1.0000
  C   C1164     1.0  0.88039  0.41269  0.31615  1.0000
  C   C1165     1.0  0.81996  0.34837  0.27260  1.0000
  H   H2059     1.0  0.96916  0.47352  0.22711  1.0000
  H   H2060     1.0  0.81867  0.40605  0.30400  1.0000
  N   N63       1.0  0.79263  0.44942  0.15172  1.0000
  H   H2061     1.0  0.84920  0.41855  0.30945  1.0000
  C   C1166     1.0  0.80165  0.42901  0.11937  1.0000
  H   H2062     1.0  0.87895  0.41824  0.33181  1.0000
  H   H2063     1.0  0.89225  0.40027  0.31543  1.0000
  H   H2064     1.0  0.78942  0.41822  0.12274  1.0000
  C   C1167     1.0  0.64818  0.26387  0.03640  1.0000
  C   C1168     1.0  0.92287  0.26796  0.46202  1.0000
  H   H2065     1.0  0.94178  0.31393  0.23477  1.0000
  C   C1169     1.0  0.81587  0.35781  0.29320  1.0000
  H   H2066     1.0  0.82295  0.36026  0.26059  1.0000
  H   H2067     1.0  0.71084  0.48963  0.04988  1.0000
  H   H2068     1.0  0.78265  0.42066  0.33033  1.0000
  H   H2069     1.0  0.59310  0.30736  0.01840  1.0000
  C   C1170     1.0  0.77499  0.45311  0.00264  1.0000
  H   H2070     1.0  0.89832  0.31580  0.45831  1.0000
  H   H2071     1.0  0.76676  0.43900  0.00628  1.0000
  C   C1171     1.0  0.96926  0.26024  0.34874  1.0000
  C   C1172     1.0  0.74384  0.39906  0.99522  1.0000
  N   N64       1.0  0.61807  0.28492  0.02003  1.0000
  H   H2072     1.0  0.68548  0.36331  0.00583  1.0000
  H   H2073     1.0  0.96822  0.27004  0.36204  1.0000
  H   H2074     1.0  0.98651  0.36131  0.28586  1.0000
  C   C1173     1.0  0.96971  0.26992  0.45476  1.0000
  H   H2075     1.0  0.60504  0.26489  0.99930  1.0000
  H   H2076     1.0  0.61805  0.25353  0.03085  1.0000
  C   C1174     1.0  0.76667  0.36279  0.99929  1.0000
  H   H2077     1.0  0.77554  0.34870  0.00083  1.0000
  H   H2078     1.0  0.76671  0.46602  0.00994  1.0000
  H   H2079     1.0  0.76956  0.25272  0.46544  1.0000
  C   C1175     1.0  0.98959  0.24741  0.34832  1.0000
  H   H2080     1.0  0.74570  0.24832  0.45437  1.0000
  Fe  Fe132     1.0  0.56416  0.24691  0.09791  1.0000
  H   H2081     1.0  0.70932  0.48780  0.13666  1.0000
  S   S263      1.0  0.53206  0.25518  0.08749  1.0000
  C   C1176     1.0  0.85964  0.49350  0.26427  1.0000
  H   H2082     1.0  0.72125  0.33301  0.99679  1.0000
  C   C1177     1.0  0.61592  0.27731  0.99899  1.0000
  H   H2083     1.0  0.73481  0.41304  0.99381  1.0000
  H   H2084     1.0  0.64458  0.24403  0.06345  1.0000
  C   C1178     1.0  0.65274  0.24406  0.04839  1.0000
  C   C1179     1.0  0.51512  0.24396  0.02015  1.0000
  H   H2085     1.0  0.87660  0.24386  0.47562  1.0000
  H   H2086     1.0  0.53513  0.24394  0.18797  1.0000
  Fe  Fe133     1.0  0.72022  0.37583  0.88800  1.0000
  S   S264      1.0  0.74742  0.36288  0.90422  1.0000
  S   S265      1.0  0.69047  0.35885  0.88506  1.0000
  Fe  Fe134     1.0  0.74006  0.41811  0.88101  1.0000
  S   S266      1.0  0.76793  0.40717  0.89723  1.0000
  S   S267      1.0  0.74238  0.44997  0.86635  1.0000
  Fe  Fe135     1.0  0.76622  0.37913  0.87927  1.0000
  S   S268      1.0  0.79418  0.36429  0.86294  1.0000
  Fe  Fe136     1.0  0.74662  0.39236  0.92031  1.0000
  S   S269      1.0  0.74402  0.40003  0.95381  1.0000
  S   S270      1.0  0.73900  0.39041  0.86217  1.0000
  S   S271      1.0  0.71871  0.40497  0.90487  1.0000
  Fe  Fe137     1.0  0.61613  0.25767  0.89661  1.0000
  S   S272      1.0  0.64758  0.27262  0.89522  1.0000
  H   H2087     1.0  0.94442  0.26731  0.62388  1.0000
  S   S273      1.0  0.54040  0.26779  0.87854  1.0000
  S   S274      1.0  0.58756  0.26667  0.91460  1.0000
  C   C1180     1.0  0.99196  0.35730  0.71416  1.0000
  Fe  Fe138     1.0  0.89008  0.37379  0.71861  1.0000
  S   S275      1.0  0.89023  0.35949  0.75031  1.0000
  S   S276      1.0  0.89020  0.36037  0.68677  1.0000
  Fe  Fe139     1.0  0.89600  0.41688  0.73481  1.0000
  S   S277      1.0  0.89707  0.40520  0.76717  1.0000
  S   S278      1.0  0.90374  0.44906  0.72400  1.0000
  Fe  Fe140     1.0  0.91672  0.37945  0.75488  1.0000
  S   S279      1.0  0.94660  0.36763  0.76808  1.0000
  Fe  Fe141     1.0  0.87042  0.38660  0.76015  1.0000
  S   S280      1.0  0.84002  0.39060  0.77857  1.0000
  S   S281      1.0  0.91737  0.39222  0.72311  1.0000
  S   S282      1.0  0.86864  0.39970  0.72790  1.0000
  Fe  Fe142     1.0  0.88271  0.26016  0.61505  1.0000
  S   S283      1.0  0.87978  0.27466  0.64642  1.0000
  H   H2088     1.0  0.76431  0.45415  0.90540  1.0000
  S   S284      1.0  0.86083  0.27501  0.54254  1.0000
  C   C1181     1.0  0.93572  0.41159  0.66791  1.0000
  S   S285      1.0  0.89882  0.27196  0.58667  1.0000
  H   H2089     1.0  0.77391  0.30352  0.87307  1.0000
  C   C1182     1.0  0.71785  0.34167  0.83854  1.0000
  C   C1183     1.0  0.86029  0.27243  0.51581  1.0000
  H   H2090     1.0  0.74583  0.32665  0.97460  1.0000
  H   H2091     1.0  0.84107  0.29938  0.51288  1.0000
  C   C1184     1.0  0.88661  0.33648  0.67587  1.0000
  C   C1185     1.0  0.88098  0.31931  0.68749  1.0000
  C   C1186     1.0  0.87893  0.30066  0.67817  1.0000
  C   C1187     1.0  0.88221  0.29887  0.65707  1.0000
  C   C1188     1.0  0.88753  0.31613  0.64539  1.0000
  C   C1189     1.0  0.88974  0.33476  0.65474  1.0000
  H   H2092     1.0  0.87840  0.32031  0.70371  1.0000
  H   H2093     1.0  0.87473  0.28748  0.68740  1.0000
  H   H2094     1.0  0.88987  0.31515  0.62916  1.0000
  H   H2095     1.0  0.89396  0.34791  0.64550  1.0000
  C   C1190     1.0  0.89331  0.47299  0.73142  1.0000
  C   C1191     1.0  0.87434  0.47513  0.74151  1.0000
  C   C1192     1.0  0.84767  0.45262  0.70478  1.0000
  H   H2096     1.0  0.86597  0.46185  0.74571  1.0000
  H   H2097     1.0  0.94669  0.31241  0.63372  1.0000
  H   H2098     1.0  0.79186  0.35696  0.78628  1.0000
  C   C1193     1.0  0.96990  0.37967  0.76252  1.0000
  C   C1194     1.0  0.97067  0.39786  0.75096  1.0000
  H   H2099     1.0  0.67541  0.34415  0.84465  1.0000
  H   H2100     1.0  0.95683  0.40491  0.74527  1.0000
  H   H2101     1.0  0.71109  0.47472  0.94623  1.0000
  H   H2102     1.0  0.91902  0.24830  0.64941  1.0000
  H   H2103     1.0  0.91304  0.24966  0.49596  1.0000
  C   C1195     1.0  0.51637  0.26047  0.88896  1.0000
  H   H2104     1.0  0.91830  0.30544  0.70025  1.0000
  C   C1196     1.0  0.80725  0.37245  0.83989  1.0000
  C   C1197     1.0  0.82521  0.36188  0.83343  1.0000
  C   C1198     1.0  0.83554  0.36720  0.81488  1.0000
  C   C1199     1.0  0.82792  0.38309  0.80233  1.0000
  C   C1200     1.0  0.80994  0.39365  0.80879  1.0000
  C   C1201     1.0  0.79976  0.38850  0.82745  1.0000
  H   H2105     1.0  0.83116  0.34939  0.84282  1.0000
  H   H2106     1.0  0.84928  0.35886  0.81020  1.0000
  H   H2107     1.0  0.80377  0.40591  0.79927  1.0000
  H   H2108     1.0  0.78593  0.39674  0.83204  1.0000
  C   C1202     1.0  0.67882  0.33476  0.88888  1.0000
  C   C1203     1.0  0.68971  0.31683  0.89432  1.0000
  C   C1204     1.0  0.67989  0.29814  0.89623  1.0000
  C   C1205     1.0  0.65892  0.29697  0.89314  1.0000
  C   C1206     1.0  0.64798  0.31495  0.88802  1.0000
  C   C1207     1.0  0.65786  0.33359  0.88583  1.0000
  H   H2109     1.0  0.70571  0.31728  0.89703  1.0000
  H   H2110     1.0  0.68860  0.28444  0.90025  1.0000
  H   H2111     1.0  0.63191  0.31449  0.88550  1.0000
  H   H2112     1.0  0.64915  0.34724  0.88162  1.0000
  H   H2113     1.0  0.64829  0.27805  0.98871  1.0000
  C   C1208     1.0  0.75094  0.38922  0.97768  1.0000
  H   H2114     1.0  0.65765  0.30482  0.96363  1.0000
  H   H2115     1.0  0.76842  0.36355  0.96642  1.0000
  H   H2116     1.0  0.92037  0.30585  0.60866  1.0000
  C   C1209     1.0  0.73570  0.47307  0.87825  1.0000
  C   C1210     1.0  0.76252  0.31358  0.88098  1.0000
  C   C1211     1.0  0.71822  0.47512  0.89079  1.0000
  C   C1212     1.0  0.87035  0.25668  0.50515  1.0000
  H   H2117     1.0  0.70849  0.46244  0.89328  1.0000
  H   H2118     1.0  0.67626  0.36350  0.97188  1.0000
  C   C1213     1.0  0.94873  0.29926  0.62394  1.0000
  H   H2119     1.0  0.88183  0.39384  0.65423  1.0000
  H   H2120     1.0  0.92959  0.32947  0.69470  1.0000
  H   H2121     1.0  0.92499  0.27448  0.54348  1.0000
  C   C1214     1.0  0.93314  0.26815  0.51211  1.0000
  N   N65       1.0  0.95134  0.27346  0.65493  1.0000
  H   H2122     1.0  0.91348  0.42614  0.68736  1.0000
  N   N66       1.0  0.75545  0.46502  0.94766  1.0000
  C   C1215     1.0  0.91354  0.41573  0.67460  1.0000
  H   H2123     1.0  0.67737  0.32988  0.98122  1.0000
  H   H2124     1.0  0.95407  0.31277  0.67014  1.0000
  H   H2125     1.0  0.93943  0.29159  0.59401  1.0000
  H   H2126     1.0  0.85508  0.48386  0.83452  1.0000
  C   C1216     1.0  0.98933  0.40720  0.74711  1.0000
  C   C1217     1.0  0.67104  0.30213  0.95321  1.0000
  C   C1218     1.0  0.66915  0.25730  0.83491  1.0000
  H   H2127     1.0  0.79641  0.45949  0.88705  1.0000
  C   C1219     1.0  0.76261  0.37114  0.97977  1.0000
  H   H2128     1.0  0.70571  0.42872  0.94595  1.0000
  H   H2129     1.0  0.94202  0.31827  0.59724  1.0000
  C   C1220     1.0  0.84369  0.37877  0.66171  1.0000
  H   H2130     1.0  0.62830  0.27929  0.95754  1.0000
  H   H2131     1.0  0.68606  0.44815  0.94961  1.0000
  H   H2132     1.0  0.76386  0.30920  0.94677  1.0000
  H   H2133     1.0  0.84631  0.43275  0.60816  1.0000
  C   C1221     1.0  0.49845  0.27091  0.88284  1.0000
  H   H2134     1.0  0.93688  0.40036  0.65582  1.0000
  C   C1222     1.0  0.73356  0.31258  0.79903  1.0000
  H   H2135     1.0  0.98176  0.26675  0.62549  1.0000
  C   C1223     1.0  0.74506  0.31957  0.86712  1.0000
  C   C1224     1.0  0.63525  0.26815  0.98825  1.0000
  C   C1225     1.0  0.85051  0.44002  0.68593  1.0000
  H   H2136     1.0  0.86751  0.43384  0.59012  1.0000
  C   C1226     1.0  0.72867  0.29118  0.79342  1.0000
  H   H2137     1.0  0.77651  0.44092  0.93849  1.0000
  C   C1227     1.0  0.84896  0.28722  0.50491  1.0000
  H   H2138     1.0  0.73607  0.46004  0.92282  1.0000
  H   H2139     1.0  0.90725  0.40119  0.68022  1.0000
  Fe  Fe143     1.0  0.87521  0.25736  0.56906  1.0000
  H   H2140     1.0  0.89139  0.43620  0.61736  1.0000
  H   H2141     1.0  0.71913  0.35626  0.84614  1.0000
  H   H2142     1.0  0.50212  0.26492  0.94690  1.0000
  H   H2143     1.0  0.84331  0.37650  0.67850  1.0000
  C   C1228     1.0  0.77535  0.35914  0.78999  1.0000
  H   H2144     1.0  0.92486  0.28086  0.63725  1.0000
  H   H2145     1.0  0.87190  0.39890  0.67879  1.0000
  H   H2146     1.0  0.97830  0.47921  0.74041  1.0000
  H   H2147     1.0  0.88023  0.42891  0.69290  1.0000
  C   C1229     1.0  0.74700  0.34977  0.81562  1.0000
  H   H2148     1.0  0.76113  0.48866  0.86449  1.0000
  H   H2149     1.0  0.84396  0.42514  0.68994  1.0000
  C   C1230     1.0  0.73742  0.32459  0.96065  1.0000
  C   C1231     1.0  0.93686  0.30398  0.60482  1.0000
  H   H2150     1.0  0.75022  0.44290  0.97240  1.0000
  H   H2151     1.0  0.74722  0.31696  0.78978  1.0000
  H   H2152     1.0  0.77950  0.35024  0.82110  1.0000
  H   H2153     1.0  0.68462  0.36914  0.83849  1.0000
  H   H2154     1.0  0.76683  0.35478  0.77680  1.0000
  H   H2155     1.0  0.94552  0.27608  0.68712  1.0000
  H   H2156     1.0  0.75199  0.30441  0.82430  1.0000
  H   H2157     1.0  0.91679  0.46775  0.77136  1.0000
  H   H2158     1.0  0.53097  0.24745  0.97919  1.0000
  H   H2159     1.0  0.74587  0.31959  0.92891  1.0000
  H   H2160     1.0  0.99090  0.37317  0.70806  1.0000
  H   H2161     1.0  0.85228  0.43801  0.64399  1.0000
  C   C1232     1.0  0.68166  0.35423  0.83227  1.0000
  C   C1233     1.0  0.77717  0.45704  0.97968  1.0000
  H   H2162     1.0  0.87705  0.41381  0.62113  1.0000
  H   H2163     1.0  0.70678  0.37770  0.93837  1.0000
  C   C1234     1.0  0.71234  0.34693  0.99206  1.0000
  H   H2164     1.0  0.98963  0.42144  0.73846  1.0000
  H   H2165     1.0  0.83125  0.45478  0.70885  1.0000
  H   H2166     1.0  0.69707  0.32975  0.81736  1.0000
  H   H2167     1.0  0.74098  0.43843  0.93840  1.0000
  H   H2168     1.0  0.96473  0.34881  0.69932  1.0000
  C   C1235     1.0  0.92961  0.25211  0.49618  1.0000
  S   S286      1.0  0.59856  0.24710  0.87038  1.0000
  H   H2169     1.0  0.85516  0.44463  0.71775  1.0000
  H   H2170     1.0  0.73799  0.35125  0.80180  1.0000
  C   C1236     1.0  0.70110  0.34464  0.82282  1.0000
  C   C1237     1.0  0.73754  0.31343  0.82203  1.0000
  H   H2171     1.0  0.72929  0.31026  0.96235  1.0000
  H   H2172     1.0  0.72649  0.29088  0.77684  1.0000
  H   H2173     1.0  0.78562  0.47103  0.97678  1.0000
  H   H2174     1.0  0.67006  0.35660  0.82060  1.0000
  C   C1238     1.0  0.94169  0.27947  0.63503  1.0000
  H   H2175     1.0  0.73349  0.32845  0.87611  1.0000
  H   H2176     1.0  0.53344  0.27694  0.92956  1.0000
  C   C1239     1.0  0.75613  0.45843  0.96990  1.0000
  C   C1240     1.0  0.71670  0.45890  0.94957  1.0000
  C   C1241     1.0  0.92105  0.26374  0.53189  1.0000
  C   C1242     1.0  0.68341  0.32116  0.95070  1.0000
  H   H2177     1.0  0.76769  0.32633  0.84362  1.0000
  H   H2178     1.0  0.49946  0.28341  0.87179  1.0000
  H   H2179     1.0  0.94944  0.26778  0.51584  1.0000
  C   C1243     1.0  0.53258  0.27503  0.94638  1.0000
  H   H2180     1.0  0.75659  0.30531  0.89480  1.0000
  H   H2181     1.0  0.84933  0.40174  0.63867  1.0000
  H   H2182     1.0  0.74570  0.36509  0.82215  1.0000
  H   H2183     1.0  0.97899  0.27617  0.67096  1.0000
  H   H2184     1.0  0.92333  0.27894  0.67263  1.0000
  H   H2185     1.0  0.71780  0.34197  0.94062  1.0000
  C   C1244     1.0  0.75329  0.32229  0.94329  1.0000
  C   C1245     1.0  0.75241  0.33265  0.84842  1.0000
  H   H2186     1.0  0.72570  0.30463  0.83057  1.0000
  H   H2187     1.0  0.97033  0.33398  0.72233  1.0000
  H   H2188     1.0  0.52822  0.28993  0.95279  1.0000
  H   H2189     1.0  0.65896  0.25783  0.82194  1.0000
  H   H2190     1.0  0.66037  0.38353  0.94397  1.0000
  H   H2191     1.0  0.76228  0.33611  0.94130  1.0000
  H   H2192     1.0  0.98684  0.45990  0.72299  1.0000
  C   C1246     1.0  0.51690  0.25940  0.95277  1.0000
  C   C1247     1.0  0.98807  0.37082  0.76990  1.0000
  H   H2193     1.0  0.83792  0.41091  0.66169  1.0000
  H   H2194     1.0  0.71448  0.28637  0.80153  1.0000
  C   C1248     1.0  0.86169  0.43874  0.60525  1.0000
  H   H2195     1.0  0.73155  0.35685  0.95629  1.0000
  H   H2196     1.0  0.69970  0.44672  0.92548  1.0000
  H   H2197     1.0  0.69609  0.31795  0.93961  1.0000
  H   H2198     1.0  0.71711  0.45642  0.96625  1.0000
  C   C1249     1.0  0.90596  0.47231  0.78385  1.0000
  C   C1250     1.0  0.69223  0.36461  0.96594  1.0000
  H   H2199     1.0  0.68049  0.28908  0.95916  1.0000
  H   H2200     1.0  0.75507  0.34800  0.85388  1.0000
  H   H2201     1.0  0.70584  0.35468  0.80979  1.0000
  H   H2202     1.0  0.74134  0.28028  0.79730  1.0000
  S   S287      1.0  0.94877  0.24500  0.57597  1.0000
  H   H2203     1.0  0.71158  0.33099  0.85043  1.0000
  H   H2204     1.0  0.67883  0.40200  0.94920  1.0000
  H   H2205     1.0  0.87290  0.45408  0.64331  1.0000
  C   C1251     1.0  0.97052  0.34933  0.71485  1.0000
  H   H2206     1.0  0.94427  0.40528  0.68105  1.0000
  C   C1252     1.0  0.93919  0.30615  0.67367  1.0000
  C   C1253     1.0  0.67579  0.38891  0.93993  1.0000
  H   H2207     1.0  0.77326  0.33001  0.80567  1.0000
  H   H2208     1.0  0.98763  0.35680  0.77893  1.0000
  H   H2209     1.0  0.92809  0.31289  0.66287  1.0000
  H   H2210     1.0  0.94446  0.30868  0.70585  1.0000
  H   H2211     1.0  0.92460  0.24809  0.53784  1.0000
  C   C1254     1.0  0.98819  0.26768  0.64066  1.0000
  H   H2212     1.0  0.96012  0.35955  0.72376  1.0000
  C   C1255     1.0  0.97326  0.27906  0.65541  1.0000
  H   H2213     1.0  0.66543  0.29822  0.93829  1.0000
  C   C1256     1.0  0.93962  0.28276  0.67260  1.0000
  C   C1257     1.0  0.87606  0.43059  0.62151  1.0000
  H   H2214     1.0  0.77014  0.32722  0.88562  1.0000
  C   C1258     1.0  0.93247  0.31279  0.69491  1.0000
  C   C1259     1.0  0.70113  0.44474  0.94214  1.0000
  H   H2215     1.0  0.67950  0.27910  0.85572  1.0000
  H   H2216     1.0  0.77210  0.37544  0.79277  1.0000
  H   H2217     1.0  0.87882  0.24493  0.51344  1.0000
  H   H2218     1.0  0.90646  0.44103  0.65393  1.0000
  C   C1260     1.0  0.51600  0.25522  0.97609  1.0000
  N   N67       1.0  0.70443  0.34523  0.97103  1.0000
  H   H2219     1.0  0.90555  0.41669  0.64341  1.0000
  H   H2220     1.0  0.72089  0.32293  0.79427  1.0000
  H   H2221     1.0  0.88011  0.45226  0.67866  1.0000
  H   H2222     1.0  0.85422  0.46774  0.70204  1.0000
  H   H2223     1.0  0.67619  0.39400  0.92368  1.0000
  H   H2224     1.0  0.90453  0.26562  0.52953  1.0000
  H   H2225     1.0  0.54785  0.26994  0.95150  1.0000
  C   C1261     1.0  0.76964  0.34612  0.80885  1.0000
  C   C1262     1.0  0.73784  0.45501  0.93884  1.0000
  Fe  Fe144     1.0  0.57010  0.25334  0.89004  1.0000
  H   H2226     1.0  0.69913  0.31363  0.97844  1.0000
  H   H2227     1.0  0.99140  0.25200  0.64677  1.0000
  C   C1263     1.0  0.77455  0.45771  0.93630  1.0000
  N   N68       1.0  0.73855  0.33418  0.83068  1.0000
  H   H2228     1.0  0.82837  0.37606  0.65626  1.0000
  H   H2229     1.0  0.85465  0.36744  0.65501  1.0000
  H   H2230     1.0  0.73823  0.30548  0.86261  1.0000
  H   H2231     1.0  0.78825  0.46390  0.94249  1.0000
  H   H2232     1.0  0.94275  0.42583  0.66229  1.0000
  N   N69       1.0  0.86247  0.44436  0.81443  1.0000
  C   C1264     1.0  0.87696  0.46047  0.80728  1.0000
  C   C1265     1.0  0.84881  0.45180  0.83180  1.0000
  C   C1266     1.0  0.87503  0.42617  0.82216  1.0000
  C   C1267     1.0  0.85015  0.43749  0.79740  1.0000
  C   C1268     1.0  0.83726  0.45386  0.78578  1.0000
  C   C1269     1.0  0.89276  0.45452  0.79029  1.0000
  C   C1270     1.0  0.86332  0.40977  0.83486  1.0000
  C   C1271     1.0  0.84204  0.47459  0.83119  1.0000
  H   H2233     1.0  0.74590  0.46851  0.97919  1.0000
  C   C1272     1.0  0.82796  0.44508  0.76737  1.0000
  H   H2234     1.0  0.51621  0.27003  0.98351  1.0000
  C   C1273     1.0  0.87620  0.39013  0.83735  1.0000
  H   H2235     1.0  0.88554  0.46528  0.82035  1.0000
  H   H2236     1.0  0.86872  0.47435  0.80155  1.0000
  H   H2237     1.0  0.83500  0.44260  0.83352  1.0000
  H   H2238     1.0  0.85666  0.44949  0.84641  1.0000
  H   H2239     1.0  0.88728  0.43101  0.83182  1.0000
  H   H2240     1.0  0.88296  0.41838  0.80927  1.0000
  H   H2241     1.0  0.86009  0.42936  0.78610  1.0000
  H   H2242     1.0  0.83927  0.42610  0.80320  1.0000
  H   H2243     1.0  0.84641  0.46674  0.78017  1.0000
  H   H2244     1.0  0.82441  0.45937  0.79569  1.0000
  H   H2245     1.0  0.90312  0.44190  0.79554  1.0000
  H   H2246     1.0  0.88515  0.44988  0.77667  1.0000
  H   H2247     1.0  0.84911  0.40609  0.82782  1.0000
  H   H2248     1.0  0.85922  0.41509  0.85029  1.0000
  H   H2249     1.0  0.83653  0.47990  0.81627  1.0000
  H   H2250     1.0  0.64538  0.25733  0.95870  1.0000
  H   H2251     1.0  0.91478  0.47690  0.79674  1.0000
  C   C1274     1.0  0.98902  0.24808  0.58359  1.0000
  H   H2252     1.0  0.81128  0.47086  0.84389  1.0000
  H   H2253     1.0  0.81740  0.43301  0.77229  1.0000
  H   H2254     1.0  0.81936  0.45720  0.75882  1.0000
  H   H2255     1.0  0.83996  0.43847  0.75703  1.0000
  H   H2256     1.0  0.97495  0.29547  0.65217  1.0000
  C   C1275     1.0  0.77565  0.46266  0.91311  1.0000
  C   C1276     1.0  0.63163  0.26469  0.96592  1.0000
  H   H2257     1.0  0.86764  0.37892  0.84692  1.0000
  H   H2258     1.0  0.87975  0.38353  0.82233  1.0000
  H   H2259     1.0  0.89058  0.39292  0.84476  1.0000
  N   N70       1.0  0.87821  0.42593  0.66048  1.0000
  C   C1277     1.0  0.86909  0.43783  0.64286  1.0000
  C   C1278     1.0  0.87328  0.43708  0.67970  1.0000
  C   C1279     1.0  0.90104  0.42541  0.65705  1.0000
  C   C1280     1.0  0.87124  0.40439  0.66265  1.0000
  C   C1281     1.0  0.84971  0.40028  0.65544  1.0000
  H   H2260     1.0  0.67312  0.33330  0.94443  1.0000
  H   H2261     1.0  0.84178  0.44793  0.67378  1.0000
  C   C1282     1.0  0.69119  0.32716  0.97134  1.0000
  H   H2262     1.0  0.67386  0.28957  0.83085  1.0000
  H   H2263     1.0  0.78650  0.44417  0.97343  1.0000
  H   H2264     1.0  0.96498  0.29780  0.61902  1.0000
  C   C1283     1.0  0.66897  0.27860  0.84307  1.0000
  S   S288      1.0  0.85710  0.24823  0.59765  1.0000
  C   C1284     1.0  0.72256  0.34297  0.95645  1.0000
  H   H2265     1.0  0.98913  0.25878  0.57076  1.0000
  H   H2266     1.0  0.83011  0.47421  0.86255  1.0000
  H   H2267     1.0  0.69832  0.37764  0.97367  1.0000
  C   C1285     1.0  0.69178  0.37182  0.94325  1.0000
  H   H2268     1.0  0.86061  0.45556  0.60496  1.0000
  H   H2269     1.0  0.68860  0.35959  0.93308  1.0000
  H   H2270     1.0  0.91877  0.48903  0.71835  1.0000
  C   C1286     1.0  0.95077  0.25069  0.65809  1.0000
  C   C1287     1.0  0.79644  0.45649  0.90374  1.0000
  H   H2271     1.0  0.79988  0.44006  0.90669  1.0000
  H   H2272     1.0  0.80849  0.46536  0.91001  1.0000
  H   H2273     1.0  0.61871  0.25467  0.96448  1.0000
  C   C1288     1.0  0.82513  0.47898  0.84713  1.0000
  C   C1289     1.0  0.75167  0.48763  0.94508  1.0000
  H   H2274     1.0  0.92885  0.28373  0.50671  1.0000
  C   C1290     1.0  0.74774  0.48999  0.87443  1.0000
  H   H2275     1.0  0.65342  0.28332  0.84863  1.0000
  H   H2276     1.0  0.97695  0.48412  0.71345  1.0000
  C   C1291     1.0  0.98611  0.47644  0.72549  1.0000
  H   H2277     1.0  0.77302  0.47908  0.90967  1.0000
  C   C1292     1.0  0.51478  0.24424  0.90310  1.0000
  C   C1293     1.0  0.90407  0.49048  0.72616  1.0000
  H   H2278     1.0  0.89649  0.48550  0.77822  1.0000
  H   H2279     1.0  0.95961  0.24546  0.67150  1.0000
  H   H2280     1.0  0.92260  0.24544  0.67626  1.0000
  H   H2281     1.0  0.72298  0.35954  0.99211  1.0000
  H   H2282     1.0  0.60941  0.28969  0.98893  1.0000
  H   H2283     1.0  0.68484  0.25353  0.82921  1.0000
  H   H2284     1.0  0.99410  0.24779  0.52270  1.0000
  H   H2285     1.0  0.74810  0.49190  0.92910  1.0000
  H   H2286     1.0  0.73783  0.49255  0.95404  1.0000
  H   H2287     1.0  0.64703  0.24672  0.85791  1.0000
  H   H2288     1.0  0.52161  0.24515  0.94522  1.0000
  C   C1294     1.0  0.71316  0.49365  0.89991  1.0000
  S   S289      1.0  0.59283  0.72508  0.07506  1.0000
  S   S290      1.0  0.58661  0.72633  0.12416  1.0000
  Fe  Fe145     1.0  0.61329  0.72320  0.10167  1.0000
  S   S291      1.0  0.64448  0.70580  0.10100  1.0000
  H   H2289     1.0  0.70516  0.49640  0.02377  1.0000
  C   C1295     1.0  0.57867  0.74139  0.00123  1.0000
  Fe  Fe146     1.0  0.73390  0.55957  0.12070  1.0000
  S   S292      1.0  0.76166  0.56570  0.10122  1.0000
  S   S293      1.0  0.72429  0.52804  0.13176  1.0000
  Fe  Fe147     1.0  0.72060  0.60552  0.12153  1.0000
  S   S294      1.0  0.74819  0.61444  0.10236  1.0000
  S   S295      1.0  0.69229  0.62452  0.13251  1.0000
  Fe  Fe148     1.0  0.74197  0.58794  0.08313  1.0000
  S   S296      1.0  0.73224  0.58695  0.05020  1.0000
  Fe  Fe149     1.0  0.76585  0.59137  0.12241  1.0000
  S   S297      1.0  0.79824  0.59197  0.13466  1.0000
  S   S298      1.0  0.71388  0.58011  0.10172  1.0000
  S   S299      1.0  0.73856  0.58411  0.14255  1.0000
  Fe  Fe150     1.0  0.88772  0.61075  0.27590  1.0000
  S   S300      1.0  0.89032  0.62960  0.24684  1.0000
  S   S301      1.0  0.88529  0.62336  0.30819  1.0000
  Fe  Fe151     1.0  0.89300  0.57038  0.25257  1.0000
  S   S302      1.0  0.89623  0.58751  0.22258  1.0000
  S   S303      1.0  0.90090  0.53671  0.24848  1.0000
  Fe  Fe152     1.0  0.91637  0.60771  0.23867  1.0000
  S   S304      1.0  0.94708  0.61686  0.22479  1.0000
  Fe  Fe153     1.0  0.86981  0.60718  0.23350  1.0000
  S   S305      1.0  0.84059  0.61576  0.21631  1.0000
  S   S306      1.0  0.91459  0.58975  0.26803  1.0000
  S   S307      1.0  0.86573  0.58932  0.26330  1.0000
  C   C1296     1.0  0.89704  0.49614  0.24345  1.0000
  H   H2290     1.0  0.98252  0.52384  0.26240  1.0000
  Fe  Fe154     1.0  0.89728  0.72588  0.37842  1.0000
  S   S308      1.0  0.89441  0.70985  0.34807  1.0000
  S   S309      1.0  0.92389  0.72231  0.39891  1.0000
  H   H2291     1.0  0.99082  0.71135  0.36133  1.0000
  H   H2292     1.0  0.71759  0.55173  0.02364  1.0000
  H   H2293     1.0  0.74646  0.49538  0.04384  1.0000
  H   H2294     1.0  0.65508  0.59637  0.01192  1.0000
  C   C1297     1.0  0.88805  0.64761  0.31883  1.0000
  C   C1298     1.0  0.88924  0.66560  0.30693  1.0000
  C   C1299     1.0  0.89103  0.68437  0.31618  1.0000
  C   C1300     1.0  0.89198  0.68554  0.33742  1.0000
  C   C1301     1.0  0.89092  0.66755  0.34929  1.0000
  C   C1302     1.0  0.88888  0.64881  0.34006  1.0000
  H   H2295     1.0  0.88853  0.66507  0.29062  1.0000
  H   H2296     1.0  0.89175  0.69810  0.30674  1.0000
  H   H2297     1.0  0.89155  0.66804  0.36560  1.0000
  H   H2298     1.0  0.88792  0.63509  0.34950  1.0000
  C   C1303     1.0  0.97082  0.60811  0.23428  1.0000
  C   C1304     1.0  0.97208  0.59700  0.25269  1.0000
  H   H2299     1.0  0.80982  0.73179  0.32215  1.0000
  H   H2300     1.0  0.95839  0.59339  0.26135  1.0000
  N   N71       1.0  0.73344  0.52497  0.03553  1.0000
  C   C1305     1.0  0.86884  0.51242  0.26170  1.0000
  C   C1306     1.0  0.88772  0.51378  0.25138  1.0000
  C   C1307     1.0  0.95956  0.55121  0.19953  1.0000
  H   H2301     1.0  0.86161  0.52578  0.26816  1.0000
  H   H2302     1.0  0.49996  0.66301  0.04774  1.0000
  C   C1308     1.0  0.80947  0.59808  0.15787  1.0000
  C   C1309     1.0  0.79847  0.60768  0.17360  1.0000
  C   C1310     1.0  0.80823  0.61278  0.19130  1.0000
  C   C1311     1.0  0.82909  0.60824  0.19376  1.0000
  C   C1312     1.0  0.84004  0.59837  0.17816  1.0000
  C   C1313     1.0  0.83031  0.59340  0.16039  1.0000
  H   H2303     1.0  0.78250  0.61150  0.17198  1.0000
  H   H2304     1.0  0.79955  0.62049  0.20313  1.0000
  H   H2305     1.0  0.85611  0.59504  0.17954  1.0000
  H   H2306     1.0  0.83908  0.58614  0.14833  1.0000
  C   C1314     1.0  0.73176  0.59037  0.00872  1.0000
  C   C1315     1.0  0.74396  0.59064  0.02568  1.0000
  C   C1316     1.0  0.76490  0.59238  0.02254  1.0000
  H   H2307     1.0  0.71559  0.58898  0.01095  1.0000
  H   H2308     1.0  0.77451  0.59258  0.03541  1.0000
  C   C1317     1.0  0.73072  0.50553  0.11883  1.0000
  C   C1318     1.0  0.74553  0.50510  0.10311  1.0000
  H   H2309     1.0  0.85156  0.71188  0.33049  1.0000
  H   H2310     1.0  0.75373  0.51859  0.09915  1.0000
  H   H2311     1.0  0.96484  0.61995  0.28760  1.0000
  C   C1319     1.0  0.65744  0.68335  0.11059  1.0000
  C   C1320     1.0  0.67811  0.67995  0.10499  1.0000
  C   C1321     1.0  0.68900  0.66216  0.11157  1.0000
  C   C1322     1.0  0.67941  0.64748  0.12398  1.0000
  C   C1323     1.0  0.65883  0.65104  0.12986  1.0000
  C   C1324     1.0  0.64787  0.66876  0.12315  1.0000
  H   H2312     1.0  0.68575  0.69111  0.09536  1.0000
  H   H2313     1.0  0.70486  0.65982  0.10709  1.0000
  H   H2314     1.0  0.65124  0.63987  0.13954  1.0000
  H   H2315     1.0  0.63202  0.67105  0.12761  1.0000
  H   H2316     1.0  0.92721  0.55893  0.19813  1.0000
  C   C1325     1.0  0.65964  0.58699  0.09845  1.0000
  H   H2317     1.0  0.98801  0.71800  0.33487  1.0000
  C   C1326     1.0  0.94605  0.65335  0.27266  1.0000
  H   H2318     1.0  0.93000  0.65022  0.27709  1.0000
  H   H2319     1.0  0.85296  0.71693  0.35640  1.0000
  C   C1327     1.0  0.69481  0.69758  0.16844  1.0000
  H   H2320     1.0  0.74434  0.49979  0.01749  1.0000
  H   H2321     1.0  0.81046  0.57697  0.22570  1.0000
  H   H2322     1.0  0.93892  0.54177  0.29559  1.0000
  H   H2323     1.0  0.79591  0.53808  0.03248  1.0000
  H   H2324     1.0  0.63786  0.72632  0.18364  1.0000
  C   C1328     1.0  0.98410  0.73967  0.39729  1.0000
  H   H2325     1.0  0.83275  0.73319  0.30753  1.0000
  H   H2326     1.0  0.81610  0.70706  0.36211  1.0000
  H   H2327     1.0  0.52255  0.67739  0.08406  1.0000
  C   C1329     1.0  0.95748  0.68752  0.30786  1.0000
  C   C1330     1.0  0.94446  0.70044  0.32244  1.0000
  H   H2328     1.0  0.93731  0.68560  0.26985  1.0000
  H   H2329     1.0  0.97327  0.68701  0.31314  1.0000
  H   H2330     1.0  0.95745  0.69541  0.29276  1.0000
  H   H2331     1.0  0.95128  0.71536  0.32380  1.0000
  H   H2332     1.0  0.87184  0.73331  0.31509  1.0000
  H   H2333     1.0  0.94323  0.69291  0.33778  1.0000
  H   H2334     1.0  0.91730  0.66783  0.24546  1.0000
  H   H2335     1.0  0.94044  0.66129  0.23112  1.0000
  H   H2336     1.0  0.96048  0.67872  0.25556  1.0000
  H   H2337     1.0  0.76914  0.51856  0.14225  1.0000
  H   H2338     1.0  0.68954  0.68842  0.15606  1.0000
  H   H2339     1.0  0.98808  0.62140  0.20907  1.0000
  H   H2340     1.0  0.66765  0.59045  0.04705  1.0000
  C   C1331     1.0  0.72461  0.52874  0.05665  1.0000
  H   H2341     1.0  0.68679  0.65669  0.04498  1.0000
  H   H2342     1.0  0.95087  0.64124  0.26205  1.0000
  H   H2343     1.0  0.94427  0.54510  0.22833  1.0000
  H   H2344     1.0  0.64512  0.60128  0.07261  1.0000
  C   C1332     1.0  0.94186  0.56488  0.19221  1.0000
  H   H2345     1.0  0.96438  0.55074  0.29404  1.0000
  H   H2346     1.0  0.67941  0.62422  0.09077  1.0000
  C   C1333     1.0  0.61286  0.70332  0.16438  1.0000
  H   H2347     1.0  0.97777  0.71895  0.43852  1.0000
  H   H2348     1.0  0.95795  0.53604  0.19337  1.0000
  H   H2349     1.0  0.68522  0.60547  0.07329  1.0000
  C   C1334     1.0  0.95440  0.53910  0.28871  1.0000
  H   H2350     1.0  0.72724  0.65592  0.06878  1.0000
  N   N72       1.0  0.67001  0.63268  0.06051  1.0000
  H   H2351     1.0  0.62449  0.71640  0.01325  1.0000
  H   H2352     1.0  0.91152  0.49698  0.23537  1.0000
  Fe  Fe155     1.0  0.90144  0.72927  0.42484  1.0000
  H   H2353     1.0  0.94687  0.55581  0.26148  1.0000
  C   C1335     1.0  0.73632  0.50255  0.03230  1.0000
  H   H2354     1.0  0.69572  0.54598  0.05352  1.0000
  H   H2355     1.0  0.78880  0.55179  0.16766  1.0000
  C   C1336     1.0  0.63100  0.71423  0.15468  1.0000
  C   C1337     1.0  0.98888  0.61275  0.22332  1.0000
  H   H2356     1.0  0.81769  0.56531  0.19531  1.0000
  H   H2357     1.0  0.98159  0.67333  0.27992  1.0000
  C   C1338     1.0  0.85209  0.54960  0.20864  1.0000
  H   H2358     1.0  0.95076  0.72238  0.43623  1.0000
  H   H2359     1.0  0.76281  0.52998  0.06555  1.0000
  H   H2360     1.0  0.68388  0.72140  0.18774  1.0000
  H   H2361     1.0  0.64973  0.70512  0.01393  1.0000
  S   S310      1.0  0.53634  0.71921  0.08921  1.0000
  C   C1339     1.0  0.93300  0.67244  0.24146  1.0000
  H   H2362     1.0  0.77416  0.51137  0.04899  1.0000
  C   C1340     1.0  0.95958  0.54989  0.22303  1.0000
  H   H2363     1.0  0.61688  0.69599  0.17920  1.0000
  H   H2364     1.0  0.96050  0.56563  0.22823  1.0000
  H   H2365     1.0  0.89270  0.54567  0.17285  1.0000
  H   H2366     1.0  0.86472  0.52661  0.18742  1.0000
  H   H2367     1.0  0.65415  0.65165  0.08255  1.0000
  C   C1341     1.0  0.78225  0.55368  0.18329  1.0000
  H   H2368     1.0  0.79446  0.52585  0.19631  1.0000
  C   C1342     1.0  0.72656  0.64880  0.05388  1.0000
  H   H2369     1.0  0.64866  0.62207  0.03945  1.0000
  H   H2370     1.0  0.89355  0.54529  0.20013  1.0000
  H   H2371     1.0  0.70207  0.53967  0.09086  1.0000
  C   C1343     1.0  0.62742  0.67559  0.05753  1.0000
  C   C1344     1.0  0.81204  0.57410  0.25802  1.0000
  H   H2372     1.0  0.62527  0.67872  0.07389  1.0000
  H   H2373     1.0  0.94192  0.56548  0.17538  1.0000
  H   H2374     1.0  0.82279  0.67068  0.35708  1.0000
  H   H2375     1.0  0.99062  0.68538  0.45582  1.0000
  H   H2376     1.0  0.64360  0.70274  0.15299  1.0000
  C   C1345     1.0  0.66534  0.62343  0.04071  1.0000
  H   H2377     1.0  0.79675  0.56778  0.26025  1.0000
  H   H2378     1.0  0.73010  0.51663  0.06744  1.0000
  C   C1346     1.0  0.88479  0.55104  0.18692  1.0000
  C   C1347     1.0  0.94118  0.60086  0.31646  1.0000
  H   H2379     1.0  0.85005  0.51288  0.21785  1.0000
  H   H2380     1.0  0.76668  0.54787  0.18406  1.0000
  H   H2381     1.0  0.62695  0.72003  0.13935  1.0000
  C   C1348     1.0  0.84245  0.71790  0.34362  1.0000
  C   C1349     1.0  0.64847  0.66582  0.05313  1.0000
  H   H2382     1.0  0.66994  0.63366  0.02765  1.0000
  C   C1350     1.0  0.86332  0.54329  0.18854  1.0000
  H   H2383     1.0  0.67773  0.53168  0.08360  1.0000
  H   H2384     1.0  0.60839  0.69140  0.15426  1.0000
  H   H2385     1.0  0.97919  0.51398  0.20937  1.0000
  H   H2386     1.0  0.66826  0.59118  0.11168  1.0000
  H   H2387     1.0  0.93293  0.66663  0.30672  1.0000
  H   H2388     1.0  0.64433  0.61602  0.09496  1.0000
  C   C1351     1.0  0.94515  0.67385  0.26054  1.0000
  H   H2389     1.0  0.69331  0.51926  0.05134  1.0000
  H   H2390     1.0  0.96087  0.71220  0.45974  1.0000
  H   H2391     1.0  0.82215  0.56747  0.26984  1.0000
  C   C1352     1.0  0.83461  0.51774  0.21269  1.0000
  N   N73       1.0  0.95895  0.65216  0.29108  1.0000
  H   H2392     1.0  0.85521  0.54977  0.17521  1.0000
  C   C1353     1.0  0.68843  0.64551  0.05793  1.0000
  H   H2393     1.0  0.69807  0.51314  0.08797  1.0000
  H   H2394     1.0  0.72471  0.66078  0.04172  1.0000
  H   H2395     1.0  0.85071  0.56643  0.20769  1.0000
  C   C1354     1.0  0.70112  0.53079  0.05943  1.0000
  H   H2396     1.0  0.82323  0.50632  0.24254  1.0000
  H   H2397     1.0  0.74199  0.54497  0.99536  1.0000
  H   H2398     1.0  0.92607  0.59542  0.32172  1.0000
  H   H2399     1.0  0.61540  0.66552  0.05323  1.0000
  H   H2400     1.0  0.83565  0.57729  0.23527  1.0000
  H   H2401     1.0  0.65983  0.67721  0.05603  1.0000
  H   H2402     1.0  0.97023  0.62856  0.31193  1.0000
  H   H2403     1.0  0.68974  0.65458  0.07159  1.0000
  H   H2404     1.0  0.75229  0.55088  0.03340  1.0000
  H   H2405     1.0  0.84415  0.67592  0.34007  1.0000
  H   H2406     1.0  0.88430  0.56786  0.18619  1.0000
  C   C1355     1.0  0.94979  0.66564  0.30742  1.0000
  H   H2407     1.0  0.82319  0.54337  0.18165  1.0000
  Fe  Fe156     1.0  0.56663  0.73159  0.09733  1.0000
  C   C1356     1.0  0.81759  0.54850  0.19676  1.0000
  C   C1357     1.0  0.82562  0.70261  0.34867  1.0000
  C   C1358     1.0  0.69438  0.52871  0.08183  1.0000
  C   C1359     1.0  0.97486  0.53751  0.25524  1.0000
  H   H2408     1.0  0.92800  0.62208  0.29509  1.0000
  H   H2409     1.0  0.80958  0.53998  0.23848  1.0000
  H   H2410     1.0  0.78841  0.54550  0.21416  1.0000
  H   H2411     1.0  0.80385  0.50940  0.22429  1.0000
  H   H2412     1.0  0.56907  0.72856  0.00101  1.0000
  N   N74       1.0  0.83547  0.73961  0.33918  1.0000
  H   H2413     1.0  0.98409  0.64350  0.25603  1.0000
  H   H2414     1.0  0.78973  0.59481  0.00028  1.0000
  H   H2415     1.0  0.94229  0.51273  0.22464  1.0000
  N   N75       1.0  0.83161  0.54058  0.21305  1.0000
  H   H2416     1.0  0.74117  0.64025  0.05090  1.0000
  C   C1360     1.0  0.82420  0.54680  0.23391  1.0000
  C   C1361     1.0  0.64089  0.71956  0.01157  1.0000
  C   C1362     1.0  0.93867  0.62248  0.30756  1.0000
  H   H2417     1.0  0.83515  0.54086  0.24536  1.0000
  C   C1363     1.0  0.95934  0.63053  0.29945  1.0000
  H   H2418     1.0  0.83413  0.72951  0.38214  1.0000
  H   H2419     1.0  0.94315  0.58053  0.19741  1.0000
  H   H2420     1.0  0.70498  0.52921  0.02012  1.0000
  C   C1364     1.0  0.77458  0.50706  0.15376  1.0000
  H   H2421     1.0  0.70889  0.70513  0.16314  1.0000
  H   H2422     1.0  0.64966  0.66229  0.03683  1.0000
  H   H2423     1.0  0.66219  0.73559  0.02890  1.0000
  H   H2424     1.0  0.78813  0.51286  0.16067  1.0000
  H   H2425     1.0  0.93160  0.63200  0.31958  1.0000
  H   H2426     1.0  0.69125  0.60097  0.03911  1.0000
  H   H2427     1.0  0.51958  0.69488  0.12246  1.0000
  H   H2428     1.0  0.73009  0.54312  0.06234  1.0000
  H   H2429     1.0  0.76186  0.53040  0.01876  1.0000
  H   H2430     1.0  0.99192  0.58230  0.27444  1.0000
  C   C1365     1.0  0.52197  0.67149  0.06859  1.0000
  H   H2431     1.0  0.98953  0.65661  0.29994  1.0000
  H   H2432     1.0  0.79931  0.53472  0.05941  1.0000
  H   H2433     1.0  0.64560  0.57968  0.10424  1.0000
  H   H2434     1.0  0.81570  0.70140  0.33566  1.0000
  H   H2435     1.0  0.63792  0.63819  0.06769  1.0000
  S   S311      1.0  0.87437  0.72986  0.40475  1.0000
  C   C1366     1.0  0.99243  0.64411  0.27021  1.0000
  C   C1367     1.0  0.70916  0.63424  0.05418  1.0000
  H   H2436     1.0  0.71223  0.62263  0.06636  1.0000
  H   H2437     1.0  0.67124  0.71949  0.14318  1.0000
  H   H2438     1.0  0.98327  0.55056  0.26010  1.0000
  C   C1368     1.0  0.49994  0.67024  0.06261  1.0000
  C   C1369     1.0  0.99114  0.59068  0.26005  1.0000
  C   C1370     1.0  0.83498  0.68146  0.35338  1.0000
  S   S312      1.0  0.90839  0.71392  0.45568  1.0000
  H   H2439     1.0  0.70972  0.62721  0.03921  1.0000
  H   H2440     1.0  0.92903  0.70322  0.31658  1.0000
  H   H2441     1.0  0.64065  0.72627  0.04356  1.0000
  C   C1371     1.0  0.77350  0.59357  0.00260  1.0000
  H   H2442     1.0  0.69842  0.68713  0.18152  1.0000
  C   C1372     1.0  0.96335  0.72321  0.44679  1.0000
  H   H2443     1.0  0.66491  0.70471  0.18038  1.0000
  H   H2444     1.0  0.97122  0.73005  0.39860  1.0000
  H   H2445     1.0  0.93214  0.68742  0.23324  1.0000
  H   H2446     1.0  0.76226  0.50508  0.16556  1.0000
  H   H2447     1.0  0.95279  0.65887  0.32282  1.0000
  C   C1373     1.0  0.65225  0.64652  0.06689  1.0000
  C   C1374     1.0  0.65412  0.60586  0.08536  1.0000
  C   C1375     1.0  0.82097  0.56984  0.23683  1.0000
  C   C1376     1.0  0.67479  0.60198  0.03670  1.0000
  C   C1377     1.0  0.67330  0.61703  0.07751  1.0000
  C   C1378     1.0  0.81997  0.50479  0.22631  1.0000
  H   H2448     1.0  0.94765  0.59054  0.30478  1.0000
  C   C1379     1.0  0.78843  0.53992  0.04771  1.0000
  H   H2449     1.0  0.78110  0.57008  0.18634  1.0000
  C   C1380     1.0  0.89824  0.72048  0.48006  1.0000
  H   H2450     1.0  0.83403  0.51265  0.19686  1.0000
  H   H2451     1.0  0.84491  0.68165  0.36657  1.0000
  H   H2452     1.0  0.66893  0.57590  0.08946  1.0000
  C   C1381     1.0  0.79528  0.54223  0.19900  1.0000
  H   H2453     1.0  0.86235  0.54564  0.22138  1.0000
  H   H2454     1.0  0.81058  0.59074  0.25980  1.0000
  C   C1382     1.0  0.67329  0.72830  0.15696  1.0000
  H   H2455     1.0  0.95119  0.60033  0.32960  1.0000
  H   H2456     1.0  0.62572  0.69018  0.04869  1.0000
  C   C1383     1.0  0.67829  0.71321  0.17486  1.0000
  C   C1384     1.0  0.63665  0.73203  0.16762  1.0000
  C   C1385     1.0  0.50787  0.70566  0.11741  1.0000
  H   H2457     1.0  0.59967  0.71411  0.16673  1.0000
  C   C1386     1.0  0.82376  0.74063  0.32001  1.0000
  H   H2458     1.0  0.49956  0.70165  0.05294  1.0000
  C   C1387     1.0  0.51285  0.72110  0.10317  1.0000
  H   H2459     1.0  0.52953  0.65616  0.06870  1.0000
  C   C1388     1.0  0.67152  0.59600  0.01499  1.0000
  H   H2460     1.0  0.97367  0.55780  0.19298  1.0000
  H   H2461     1.0  0.80692  0.74030  0.35666  1.0000
  C   C1389     1.0  0.76935  0.52758  0.05009  1.0000
  C   C1390     1.0  0.98067  0.65747  0.28588  1.0000
  H   H2462     1.0  0.98753  0.50529  0.23332  1.0000
  H   H2463     1.0  0.94280  0.52925  0.26109  1.0000
  C   C1391     1.0  0.75408  0.53410  0.03350  1.0000
  C   C1392     1.0  0.97552  0.51490  0.22591  1.0000
  C   C1393     1.0  0.72025  0.53554  0.01982  1.0000
  H   H2464     1.0  0.78452  0.55625  0.04979  1.0000
  C   C1394     1.0  0.95344  0.54052  0.26562  1.0000
  H   H2465     1.0  0.95327  0.50135  0.24734  1.0000
  N   N76       1.0  0.97615  0.53651  0.23234  1.0000
  H   H2466     1.0  0.57890  0.74101  0.03399  1.0000
  H   H2467     1.0  0.53051  0.68155  0.05773  1.0000
  C   C1395     1.0  0.72855  0.53543  0.99747  1.0000
  C   C1396     1.0  0.64563  0.73328  0.02870  1.0000
  H   H2468     1.0  0.96018  0.52380  0.29386  1.0000
  C   C1397     1.0  0.87848  0.72866  0.48295  1.0000
  H   H2469     1.0  0.67942  0.60641  0.00394  1.0000
  H   H2470     1.0  0.51679  0.73124  0.02079  1.0000
  H   H2471     1.0  0.67787  0.58038  0.01280  1.0000
  H   H2472     1.0  0.86913  0.73174  0.47000  1.0000
  C   C1398     1.0  0.49725  0.73442  0.09617  1.0000
  H   H2473     1.0  0.94017  0.73867  0.47676  1.0000
  C   C1399     1.0  0.95553  0.50397  0.23073  1.0000
  H   H2474     1.0  0.68735  0.73666  0.15346  1.0000
  H   H2475     1.0  0.62315  0.74275  0.16779  1.0000
  N   N77       1.0  0.65543  0.74294  0.16050  1.0000
  H   H2476     1.0  0.64964  0.74334  0.12852  1.0000
  S   S313      1.0  0.58753  0.71800  0.90995  1.0000
  C   C1400     1.0  0.94550  0.63576  0.79004  1.0000
  C   C1401     1.0  0.49722  0.71803  0.88012  1.0000
  S   S314      1.0  0.53898  0.71978  0.87666  1.0000
  Fe  Fe157     1.0  0.61399  0.73090  0.89215  1.0000
  S   S315      1.0  0.64550  0.71492  0.88655  1.0000
  Fe  Fe158     1.0  0.72303  0.61001  0.90342  1.0000
  S   S316      1.0  0.75604  0.61752  0.90652  1.0000
  S   S317      1.0  0.69291  0.62951  0.90601  1.0000
  Fe  Fe159     1.0  0.73359  0.56369  0.90570  1.0000
  S   S318      1.0  0.76654  0.56840  0.90954  1.0000
  S   S319      1.0  0.71830  0.53325  0.90869  1.0000
  Fe  Fe160     1.0  0.75644  0.59262  0.93110  1.0000
  S   S320      1.0  0.77281  0.59412  0.96084  1.0000
  Fe  Fe161     1.0  0.76397  0.59257  0.88441  1.0000
  S   S321      1.0  0.78973  0.58711  0.85994  1.0000
  S   S322      1.0  0.72363  0.58630  0.92902  1.0000
  S   S323      1.0  0.73087  0.58660  0.87972  1.0000
  H   H2477     1.0  0.97406  0.67314  0.61420  1.0000
  S   S324      1.0  0.91235  0.72284  0.58877  1.0000
  Fe  Fe162     1.0  0.88747  0.73984  0.57209  1.0000
  H   H2478     1.0  0.92502  0.67195  0.58656  1.0000
  Fe  Fe163     1.0  0.89559  0.73156  0.61768  1.0000
  S   S325      1.0  0.89475  0.71340  0.64847  1.0000
  Fe  Fe164     1.0  0.88067  0.56655  0.74412  1.0000
  S   S326      1.0  0.89120  0.57625  0.77400  1.0000
  S   S327      1.0  0.86506  0.53621  0.74507  1.0000
  Fe  Fe165     1.0  0.89006  0.60836  0.72285  1.0000
  S   S328      1.0  0.90093  0.62033  0.75188  1.0000
  S   S329      1.0  0.89056  0.62420  0.69083  1.0000
  Fe  Fe166     1.0  0.91738  0.58983  0.75574  1.0000
  S   S330      1.0  0.94894  0.58102  0.76727  1.0000
  Fe  Fe167     1.0  0.87372  0.60548  0.76764  1.0000
  S   S331      1.0  0.85192  0.62184  0.79045  1.0000
  S   S332      1.0  0.90776  0.57828  0.72620  1.0000
  S   S333      1.0  0.86191  0.59543  0.73830  1.0000
  C   C1402     1.0  0.97342  0.59051  0.76131  1.0000
  C   C1403     1.0  0.97610  0.60929  0.75122  1.0000
  H   H2479     1.0  0.72712  0.65688  0.83900  1.0000
  H   H2480     1.0  0.96308  0.61794  0.74563  1.0000
  H   H2481     1.0  0.90797  0.63402  0.81483  1.0000
  H   H2482     1.0  0.77950  0.53036  0.72467  1.0000
  C   C1404     1.0  0.87671  0.51206  0.74031  1.0000
  C   C1405     1.0  0.89595  0.50990  0.73079  1.0000
  C   C1406     1.0  0.68348  0.59778  0.81453  1.0000
  H   H2483     1.0  0.90437  0.52321  0.72654  1.0000
  C   C1407     1.0  0.89515  0.68834  0.65985  1.0000
  C   C1408     1.0  0.89573  0.67095  0.64842  1.0000
  C   C1409     1.0  0.89451  0.65156  0.65819  1.0000
  C   C1410     1.0  0.89294  0.64914  0.67952  1.0000
  C   C1411     1.0  0.89285  0.66652  0.69095  1.0000
  C   C1412     1.0  0.89389  0.68592  0.68117  1.0000
  H   H2484     1.0  0.89679  0.67242  0.63206  1.0000
  H   H2485     1.0  0.89466  0.63827  0.64914  1.0000
  H   H2486     1.0  0.89160  0.66503  0.70733  1.0000
  H   H2487     1.0  0.89338  0.69921  0.69024  1.0000
  H   H2488     1.0  0.95140  0.66373  0.58530  1.0000
  H   H2489     1.0  0.93748  0.66093  0.68617  1.0000
  H   H2490     1.0  0.82599  0.66366  0.69537  1.0000
  H   H2491     1.0  0.84257  0.55315  0.78120  1.0000
  C   C1413     1.0  0.80736  0.59779  0.84147  1.0000
  C   C1414     1.0  0.82383  0.58548  0.83421  1.0000
  C   C1415     1.0  0.83756  0.59261  0.81877  1.0000
  C   C1416     1.0  0.83513  0.61225  0.81029  1.0000
  C   C1417     1.0  0.81901  0.62480  0.81794  1.0000
  C   C1418     1.0  0.80518  0.61763  0.83332  1.0000
  H   H2492     1.0  0.82603  0.57031  0.84070  1.0000
  H   H2493     1.0  0.85019  0.58300  0.81355  1.0000
  H   H2494     1.0  0.81706  0.64013  0.81175  1.0000
  H   H2495     1.0  0.79275  0.62742  0.83875  1.0000
  H   H2496     1.0  0.63523  0.74337  0.98891  1.0000
  C   C1419     1.0  0.78207  0.52715  0.83526  1.0000
  H   H2497     1.0  0.69927  0.53445  0.98332  1.0000
  H   H2498     1.0  0.73073  0.59130  0.97596  1.0000
  H   H2499     1.0  0.68750  0.66693  0.96936  1.0000
  C   C1420     1.0  0.74270  0.50858  0.88357  1.0000
  C   C1421     1.0  0.72534  0.51048  0.89638  1.0000
  H   H2500     1.0  0.70749  0.55974  0.98716  1.0000
  H   H2501     1.0  0.75219  0.52142  0.88070  1.0000
  H   H2502     1.0  0.79141  0.55615  0.82392  1.0000
  C   C1422     1.0  0.65853  0.69132  0.89302  1.0000
  C   C1423     1.0  0.67910  0.68839  0.88673  1.0000
  C   C1424     1.0  0.68999  0.66987  0.89091  1.0000
  C   C1425     1.0  0.68044  0.65384  0.90139  1.0000
  C   C1426     1.0  0.65994  0.65685  0.90790  1.0000
  C   C1427     1.0  0.64909  0.67542  0.90383  1.0000
  H   H2503     1.0  0.68667  0.70054  0.87843  1.0000
  H   H2504     1.0  0.70573  0.66798  0.88583  1.0000
  H   H2505     1.0  0.65231  0.64463  0.91601  1.0000
  H   H2506     1.0  0.63330  0.67729  0.90873  1.0000
  C   C1428     1.0  0.51409  0.73007  0.88194  1.0000
  H   H2507     1.0  0.80620  0.53529  0.72328  1.0000
  C   C1429     1.0  0.87042  0.73194  0.50274  1.0000
  C   C1430     1.0  0.74032  0.59159  0.98883  1.0000
  H   H2508     1.0  0.78074  0.67252  0.60247  1.0000
  S   S334      1.0  0.87087  0.73045  0.54455  1.0000
  H   H2509     1.0  0.92004  0.58870  0.82132  1.0000
  H   H2510     1.0  0.59063  0.68297  0.94411  1.0000
  H   H2511     1.0  0.98815  0.68816  0.71925  1.0000
  C   C1431     1.0  0.94088  0.63848  0.84865  1.0000
  C   C1432     1.0  0.89013  0.60084  0.82859  1.0000
  N   N78       1.0  0.64475  0.71673  0.97228  1.0000
  C   C1433     1.0  0.83733  0.66686  0.68289  1.0000
  H   H2512     1.0  0.93257  0.66707  0.79120  1.0000
  C   C1434     1.0  0.94294  0.64424  0.82573  1.0000
  C   C1435     1.0  0.94584  0.65628  0.86140  1.0000
  H   H2513     1.0  0.92501  0.63467  0.85281  1.0000
  H   H2514     1.0  0.81521  0.52015  0.76640  1.0000
  H   H2515     1.0  0.93814  0.66627  0.62073  1.0000
  H   H2516     1.0  0.98876  0.56483  0.77600  1.0000
  H   H2517     1.0  0.98755  0.59184  0.83738  1.0000
  C   C1436     1.0  0.90228  0.72045  0.51687  1.0000
  C   C1437     1.0  0.62482  0.70616  0.97411  1.0000
  H   H2518     1.0  0.77637  0.53279  0.95027  1.0000
  H   H2519     1.0  0.77870  0.53187  0.76200  1.0000
  C   C1438     1.0  0.64588  0.72987  0.99042  1.0000
  C   C1439     1.0  0.79348  0.67511  0.59126  1.0000
  Fe  Fe168     1.0  0.56731  0.73420  0.88734  1.0000
  H   H2520     1.0  0.95780  0.65139  0.82270  1.0000
  H   H2521     1.0  0.91474  0.61562  0.79674  1.0000
  C   C1440     1.0  0.95969  0.68307  0.67582  1.0000
  C   C1441     1.0  0.91308  0.60315  0.82690  1.0000
  H   H2522     1.0  0.51145  0.70898  0.95690  1.0000
  H   H2523     1.0  0.94122  0.67774  0.65129  1.0000
  H   H2524     1.0  0.94412  0.69005  0.58006  1.0000
  H   H2525     1.0  0.92516  0.70958  0.49520  1.0000
  H   H2526     1.0  0.61012  0.71371  0.94564  1.0000
  H   H2527     1.0  0.87337  0.53329  0.79183  1.0000
  H   H2528     1.0  0.70008  0.59839  0.81585  1.0000
  H   H2529     1.0  0.78717  0.55504  0.74975  1.0000
  H   H2530     1.0  0.69882  0.68674  0.95340  1.0000
  H   H2531     1.0  0.98167  0.62648  0.82267  1.0000
  H   H2532     1.0  0.91537  0.64932  0.78231  1.0000
  H   H2533     1.0  0.93061  0.69253  0.61627  1.0000
  H   H2534     1.0  0.82367  0.54288  0.75477  1.0000
  C   C1442     1.0  0.97786  0.61357  0.81355  1.0000
  H   H2535     1.0  0.64361  0.72212  0.93951  1.0000
  H   H2536     1.0  0.76371  0.52505  0.92836  1.0000
  H   H2537     1.0  0.96115  0.64140  0.78883  1.0000
  C   C1443     1.0  0.61553  0.69990  0.95421  1.0000
  N   N79       1.0  0.94048  0.62752  0.81127  1.0000
  H   H2538     1.0  0.71917  0.54506  0.96723  1.0000
  H   H2539     1.0  0.96809  0.69833  0.60505  1.0000
  C   C1444     1.0  0.83228  0.54551  0.79262  1.0000
  H   H2540     1.0  0.78716  0.68215  0.57718  1.0000
  H   H2541     1.0  0.67858  0.73194  0.94812  1.0000
  H   H2542     1.0  0.83294  0.55427  0.80648  1.0000
  C   C1445     1.0  0.59728  0.68670  0.95861  1.0000
  H   H2543     1.0  0.74951  0.52877  0.95195  1.0000
  C   C1446     1.0  0.79663  0.54013  0.82225  1.0000
  H   H2544     1.0  0.88649  0.58773  0.83897  1.0000
  H   H2545     1.0  0.95134  0.62563  0.85301  1.0000
  C   C1447     1.0  0.95520  0.71467  0.63950  1.0000
  H   H2546     1.0  0.81868  0.69045  0.66907  1.0000
  H   H2547     1.0  0.58542  0.69492  0.96788  1.0000
  H   H2548     1.0  0.54392  0.70873  0.92215  1.0000
  H   H2549     1.0  0.96181  0.66056  0.85833  1.0000
  H   H2550     1.0  0.87071  0.51058  0.80744  1.0000
  H   H2551     1.0  0.49959  0.70261  0.87536  1.0000
  C   C1448     1.0  0.94062  0.67633  0.58964  1.0000
  N   N80       1.0  0.67693  0.61858  0.84717  1.0000
  C   C1449     1.0  0.68303  0.59922  0.85869  1.0000
  C   C1450     1.0  0.69381  0.63324  0.84794  1.0000
  C   C1451     1.0  0.65845  0.62779  0.85821  1.0000
  C   C1452     1.0  0.67168  0.61527  0.82550  1.0000
  C   C1453     1.0  0.66601  0.58397  0.86303  1.0000
  C   C1454     1.0  0.65151  0.64953  0.85093  1.0000
  C   C1455     1.0  0.67478  0.56325  0.87026  1.0000
  C   C1456     1.0  0.63000  0.65505  0.85893  1.0000
  H   H2552     1.0  0.68876  0.60275  0.87373  1.0000
  H   H2553     1.0  0.69593  0.59108  0.85093  1.0000
  H   H2554     1.0  0.68954  0.64807  0.84042  1.0000
  H   H2555     1.0  0.69637  0.63653  0.86398  1.0000
  H   H2556     1.0  0.66106  0.62826  0.87476  1.0000
  H   H2557     1.0  0.64520  0.61810  0.85702  1.0000
  H   H2558     1.0  0.65531  0.61202  0.82460  1.0000
  H   H2559     1.0  0.65541  0.58950  0.87529  1.0000
  H   H2560     1.0  0.65715  0.58203  0.84937  1.0000
  H   H2561     1.0  0.65173  0.65116  0.83413  1.0000
  H   H2562     1.0  0.66171  0.66073  0.85671  1.0000
  H   H2563     1.0  0.62625  0.67128  0.85515  1.0000
  H   H2564     1.0  0.68350  0.56464  0.88417  1.0000
  H   H2565     1.0  0.66228  0.55281  0.87390  1.0000
  H   H2566     1.0  0.68498  0.55653  0.85830  1.0000
  H   H2567     1.0  0.62875  0.65268  0.87568  1.0000
  H   H2568     1.0  0.85098  0.49606  0.75279  1.0000
  H   H2569     1.0  0.61879  0.64570  0.85193  1.0000
  C   C1457     1.0  0.66256  0.70161  0.97272  1.0000
  H   H2570     1.0  0.74576  0.63635  0.83584  1.0000
  C   C1458     1.0  0.96371  0.68662  0.61690  1.0000
  C   C1459     1.0  0.95782  0.67895  0.65308  1.0000
  H   H2571     1.0  0.94516  0.62337  0.77914  1.0000
  H   H2572     1.0  0.93685  0.64690  0.75001  1.0000
  H   H2573     1.0  0.73320  0.63977  0.86024  1.0000
  C   C1460     1.0  0.99064  0.57937  0.76819  1.0000
  H   H2574     1.0  0.76630  0.52950  0.83008  1.0000
  H   H2575     1.0  0.62612  0.69253  0.98453  1.0000
  H   H2576     1.0  0.83351  0.51608  0.80953  1.0000
  H   H2577     1.0  0.95384  0.66841  0.70545  1.0000
  H   H2578     1.0  0.78364  0.49657  0.94429  1.0000
  H   H2579     1.0  0.68775  0.66572  0.94218  1.0000
  C   C1461     1.0  0.83890  0.72493  0.64659  1.0000
  H   H2580     1.0  0.76979  0.50017  0.96821  1.0000
  C   C1462     1.0  0.76128  0.59309  0.98564  1.0000
  H   H2581     1.0  0.85410  0.72647  0.63919  1.0000
  H   H2582     1.0  0.95183  0.60252  0.83071  1.0000
  H   H2583     1.0  0.84833  0.67745  0.68838  1.0000
  H   H2584     1.0  0.98269  0.61677  0.79747  1.0000
  H   H2585     1.0  0.86404  0.53483  0.81793  1.0000
  C   C1463     1.0  0.68619  0.67613  0.95497  1.0000
  H   H2586     1.0  0.94389  0.65191  0.87777  1.0000
  C   C1464     1.0  0.93148  0.65353  0.78200  1.0000
  C   C1465     1.0  0.94204  0.68048  0.61215  1.0000
  H   H2587     1.0  0.92717  0.67223  0.75456  1.0000
  H   H2588     1.0  0.65387  0.67629  0.95503  1.0000
  H   H2589     1.0  0.67365  0.62948  0.81609  1.0000
  H   H2590     1.0  0.80106  0.66033  0.58751  1.0000
  C   C1466     1.0  0.93765  0.65982  0.76013  1.0000
  C   C1467     1.0  0.53022  0.70300  0.93044  1.0000
  H   H2591     1.0  0.88232  0.61466  0.83466  1.0000
  C   C1468     1.0  0.91872  0.62092  0.81186  1.0000
  H   H2592     1.0  0.66530  0.69642  0.93969  1.0000
  H   H2593     1.0  0.95209  0.59740  0.80484  1.0000
  N   N81       1.0  0.81092  0.54608  0.78529  1.0000
  C   C1469     1.0  0.81134  0.53666  0.76485  1.0000
  C   C1470     1.0  0.80310  0.56786  0.78396  1.0000
  C   C1471     1.0  0.81470  0.58201  0.76858  1.0000
  H   H2594     1.0  0.93347  0.74098  0.66542  1.0000
  C   C1472     1.0  0.80396  0.60290  0.76674  1.0000
  H   H2595     1.0  0.84082  0.71781  0.66195  1.0000
  C   C1473     1.0  0.79141  0.53888  0.75316  1.0000
  H   H2596     1.0  0.78107  0.53624  0.79485  1.0000
  H   H2597     1.0  0.78669  0.56880  0.78061  1.0000
  H   H2598     1.0  0.80389  0.57491  0.79887  1.0000
  H   H2599     1.0  0.81599  0.57591  0.75319  1.0000
  H   H2600     1.0  0.83023  0.58422  0.77371  1.0000
  H   H2601     1.0  0.68731  0.58544  0.78460  1.0000
  C   C1474     1.0  0.64546  0.73055  0.95346  1.0000
  H   H2602     1.0  0.84292  0.51497  0.78360  1.0000
  H   H2603     1.0  0.80198  0.60970  0.78183  1.0000
  H   H2604     1.0  0.81328  0.61309  0.75673  1.0000
  H   H2605     1.0  0.78887  0.60180  0.76012  1.0000
  C   C1475     1.0  0.98897  0.69544  0.64053  1.0000
  C   C1476     1.0  0.67908  0.59836  0.79196  1.0000
  C   C1477     1.0  0.71260  0.54419  0.98299  1.0000
  H   H2606     1.0  0.71360  0.62808  0.82108  1.0000
  N   N82       1.0  0.83408  0.69165  0.62817  1.0000
  C   C1478     1.0  0.81756  0.67994  0.61954  1.0000
  C   C1479     1.0  0.84212  0.67995  0.64644  1.0000
  C   C1480     1.0  0.82532  0.71223  0.63379  1.0000
  C   C1481     1.0  0.85148  0.69458  0.61288  1.0000
  C   C1482     1.0  0.85982  0.67531  0.60213  1.0000
  C   C1483     1.0  0.80867  0.68914  0.59961  1.0000
  H   H2607     1.0  0.66128  0.69121  0.98631  1.0000
  C   C1484     1.0  0.82667  0.67622  0.66440  1.0000
  H   H2608     1.0  0.61279  0.71628  0.98113  1.0000
  C   C1485     1.0  0.87785  0.68018  0.58779  1.0000
  C   C1486     1.0  0.73111  0.64089  0.84359  1.0000
  H   H2609     1.0  0.60198  0.67233  0.96675  1.0000
  H   H2610     1.0  0.80447  0.67878  0.63063  1.0000
  H   H2611     1.0  0.82292  0.66399  0.61712  1.0000
  H   H2612     1.0  0.84828  0.66473  0.64222  1.0000
  H   H2613     1.0  0.85524  0.68758  0.65227  1.0000
  H   H2614     1.0  0.81040  0.71091  0.64212  1.0000
  H   H2615     1.0  0.82200  0.72161  0.61982  1.0000
  H   H2616     1.0  0.84728  0.70615  0.60087  1.0000
  H   H2617     1.0  0.86456  0.70088  0.62026  1.0000
  H   H2618     1.0  0.84813  0.66896  0.59290  1.0000
  H   H2619     1.0  0.86506  0.66339  0.61322  1.0000
  H   H2620     1.0  0.80055  0.70387  0.60240  1.0000
  H   H2621     1.0  0.82063  0.69171  0.58761  1.0000
  H   H2622     1.0  0.96700  0.72200  0.66939  1.0000
  H   H2623     1.0  0.96486  0.66364  0.65023  1.0000
  H   H2624     1.0  0.78221  0.53162  0.85130  1.0000
  H   H2625     1.0  0.81519  0.66550  0.66020  1.0000
  H   H2626     1.0  0.84557  0.65240  0.67910  1.0000
  C   C1487     1.0  0.79385  0.52847  0.73290  1.0000
  H   H2627     1.0  0.82122  0.49549  0.84693  1.0000
  H   H2628     1.0  0.88326  0.66637  0.57985  1.0000
  H   H2629     1.0  0.87347  0.69207  0.57618  1.0000
  H   H2630     1.0  0.89049  0.68548  0.59648  1.0000
  H   H2631     1.0  0.80073  0.51774  0.79906  1.0000
  H   H2632     1.0  0.66257  0.59712  0.78981  1.0000
  H   H2633     1.0  0.62651  0.69162  0.94421  1.0000
  H   H2634     1.0  0.68427  0.61266  0.78440  1.0000
  H   H2635     1.0  0.91146  0.71695  0.52985  1.0000
  H   H2636     1.0  0.53680  0.74340  0.98067  1.0000
  H   H2637     1.0  0.81183  0.53794  0.82874  1.0000
  C   C1488     1.0  0.86387  0.52589  0.80406  1.0000
  H   H2638     1.0  0.93549  0.66960  0.85806  1.0000
  C   C1489     1.0  0.79701  0.53429  0.79967  1.0000
  H   H2639     1.0  0.99247  0.72201  0.61941  1.0000
  H   H2640     1.0  0.71971  0.61132  0.84244  1.0000
  C   C1490     1.0  0.95484  0.60955  0.81542  1.0000
  H   H2641     1.0  0.97540  0.74266  0.53540  1.0000
  H   H2642     1.0  0.93133  0.65666  0.82311  1.0000
  C   C1491     1.0  0.84216  0.52422  0.79724  1.0000
  H   H2643     1.0  0.67886  0.58287  0.82108  1.0000
  C   C1492     1.0  0.71458  0.62690  0.83784  1.0000
  H   H2644     1.0  0.93886  0.71246  0.64345  1.0000
  H   H2645     1.0  0.88422  0.59814  0.81349  1.0000
  C   C1493     1.0  0.66568  0.68776  0.95440  1.0000
  H   H2646     1.0  0.51514  0.72859  0.98375  1.0000
  H   H2647     1.0  0.91843  0.60510  0.84231  1.0000
  C   C1494     1.0  0.52508  0.71532  0.94916  1.0000
  H   H2648     1.0  0.95334  0.66531  0.75928  1.0000
  H   H2649     1.0  0.95519  0.72318  0.62454  1.0000
  H   H2650     1.0  0.53331  0.68687  0.93507  1.0000
  H   H2651     1.0  0.51247  0.73961  0.92979  1.0000
  H   H2652     1.0  0.97542  0.68624  0.67956  1.0000
  H   H2653     1.0  0.53735  0.74291  0.93779  1.0000
  H   H2654     1.0  0.96359  0.65143  0.68638  1.0000
  H   H2655     1.0  0.78668  0.51084  0.83462  1.0000
  N   N83       1.0  0.96642  0.69433  0.63784  1.0000
  H   H2656     1.0  0.53798  0.71305  0.95947  1.0000
  H   H2657     1.0  0.94930  0.69602  0.68000  1.0000
  C   C1495     1.0  0.95327  0.66482  0.68920  1.0000
  C   C1496     1.0  0.76426  0.52323  0.94514  1.0000
  C   C1497     1.0  0.76875  0.50104  0.95147  1.0000
  H   H2658     1.0  0.67692  0.70949  0.97452  1.0000
  C   C1498     1.0  0.86595  0.49457  0.74564  1.0000
  H   H2659     1.0  0.51734  0.70387  0.92007  1.0000
  S   S335      1.0  0.57674  0.74176  0.95987  1.0000
  C   C1499     1.0  0.88226  0.72792  0.51982  1.0000
  C   C1500     1.0  0.96334  0.72948  0.65466  1.0000
  H   H2660     1.0  0.79746  0.51201  0.73539  1.0000
  C   C1501     1.0  0.52200  0.73822  0.94336  1.0000
  H   H2661     1.0  0.99223  0.70199  0.65515  1.0000
  H   H2662     1.0  0.85486  0.73753  0.50484  1.0000
  H   H2663     1.0  0.97748  0.73621  0.64828  1.0000
  C   C1502     1.0  0.91002  0.71631  0.49716  1.0000
  H   H2664     1.0  0.66127  0.73598  0.99115  1.0000
  H   H2665     1.0  0.98702  0.58152  0.81242  1.0000
  H   H2666     1.0  0.73288  0.51989  0.99280  1.0000
  H   H2667     1.0  0.98720  0.67010  0.74044  1.0000
  C   C1503     1.0  0.99055  0.59502  0.82090  1.0000
  H   H2668     1.0  0.69962  0.49501  0.90963  1.0000
  H   H2669     1.0  0.96105  0.73865  0.50240  1.0000
  C   C1504     1.0  0.66511  0.74246  0.94969  1.0000
  H   H2670     1.0  0.63230  0.74174  0.95397  1.0000
  H   H2671     1.0  0.76775  0.83626  0.46573  1.0000
  S   S336      1.0  0.60340  0.77475  0.04402  1.0000
  Fe  Fe169     1.0  0.59096  0.76018  0.12167  1.0000
  S   S337      1.0  0.58957  0.77416  0.15337  1.0000
  H   H2672     1.0  0.96007  0.82340  0.44012  1.0000
  S   S338      1.0  0.56938  0.76533  0.09593  1.0000
  Fe  Fe170     1.0  0.60595  0.87247  0.22656  1.0000
  S   S339      1.0  0.60346  0.86133  0.25934  1.0000
  S   S340      1.0  0.61206  0.85523  0.19697  1.0000
  Fe  Fe171     1.0  0.59943  0.91742  0.23881  1.0000
  S   S341      1.0  0.59557  0.90919  0.27198  1.0000
  S   S342      1.0  0.59899  0.94927  0.22430  1.0000
  Fe  Fe172     1.0  0.62260  0.88748  0.26729  1.0000
  S   S343      1.0  0.65279  0.88865  0.28401  1.0000
  Fe  Fe173     1.0  0.57678  0.88406  0.26148  1.0000
  S   S344      1.0  0.54634  0.87616  0.27677  1.0000
  S   S345      1.0  0.62699  0.89691  0.23415  1.0000
  S   S346      1.0  0.57865  0.89404  0.22867  1.0000
  S   S347      1.0  0.90489  0.76277  0.42184  1.0000
  C   C1505     1.0  0.66799  0.98372  0.35740  1.0000
  C   C1506     1.0  0.54301  0.82506  0.25090  1.0000
  C   C1507     1.0  0.53355  0.94029  0.29812  1.0000
  Fe  Fe174     1.0  0.87900  0.76360  0.40049  1.0000
  S   S348      1.0  0.85293  0.78725  0.40751  1.0000
  Fe  Fe175     1.0  0.75299  0.92524  0.38262  1.0000
  S   S349      1.0  0.72544  0.92112  0.40302  1.0000
  S   S350      1.0  0.75908  0.95594  0.36697  1.0000
  Fe  Fe176     1.0  0.76622  0.87924  0.38608  1.0000
  S   S351      1.0  0.73899  0.87262  0.40675  1.0000
  S   S352      1.0  0.78898  0.85530  0.37257  1.0000
  Fe  Fe177     1.0  0.72093  0.89335  0.38499  1.0000
  S   S353      1.0  0.68960  0.88648  0.37307  1.0000
  Fe  Fe178     1.0  0.74601  0.90114  0.42256  1.0000
  S   S354      1.0  0.75381  0.90732  0.45524  1.0000
  S   S355      1.0  0.74769  0.89844  0.36377  1.0000
  S   S356      1.0  0.77404  0.90673  0.40263  1.0000
  H   H2673     1.0  0.75361  0.97513  0.48281  1.0000
  C   C1508     1.0  0.75787  0.97930  0.37935  1.0000
  C   C1509     1.0  0.75495  0.98014  0.40040  1.0000
  H   H2674     1.0  0.55788  0.81336  0.27791  1.0000
  H   H2675     1.0  0.75229  0.96636  0.40935  1.0000
  H   H2676     1.0  0.64120  0.78383  0.16670  1.0000
  C   C1510     1.0  0.74159  0.90262  0.47934  1.0000
  C   C1511     1.0  0.63457  0.93765  0.30164  1.0000
  H   H2677     1.0  0.71503  0.88943  0.46852  1.0000
  H   H2678     1.0  0.54804  0.78306  0.18496  1.0000
  C   C1512     1.0  0.83539  0.80616  0.39729  1.0000
  C   C1513     1.0  0.82288  0.81767  0.41074  1.0000
  C   C1514     1.0  0.80878  0.83278  0.40356  1.0000
  C   C1515     1.0  0.80678  0.83658  0.38269  1.0000
  C   C1516     1.0  0.81908  0.82489  0.36922  1.0000
  C   C1517     1.0  0.83330  0.80987  0.37641  1.0000
  H   H2679     1.0  0.82423  0.81496  0.42691  1.0000
  H   H2680     1.0  0.79947  0.84148  0.41420  1.0000
  H   H2681     1.0  0.81775  0.82762  0.35305  1.0000
  H   H2682     1.0  0.84272  0.80125  0.36581  1.0000
  C   C1518     1.0  0.98091  0.76061  0.39427  1.0000
  H   H2683     1.0  0.53699  0.81003  0.24862  1.0000
  H   H2684     1.0  0.52151  0.75901  0.13247  1.0000
  C   C1519     1.0  0.94709  0.78837  0.46088  1.0000
  C   C1520     1.0  0.80730  0.76173  0.29166  1.0000
  H   H2685     1.0  0.85494  0.98578  0.39994  1.0000
  C   C1521     1.0  0.78032  0.85765  0.48566  1.0000
  C   C1522     1.0  0.66234  0.88858  0.30907  1.0000
  C   C1523     1.0  0.65019  0.88498  0.32664  1.0000
  C   C1524     1.0  0.65869  0.88478  0.34602  1.0000
  C   C1525     1.0  0.67938  0.88841  0.34825  1.0000
  C   C1526     1.0  0.69139  0.89248  0.33069  1.0000
  C   C1527     1.0  0.68299  0.89234  0.31132  1.0000
  H   H2686     1.0  0.63430  0.88208  0.32531  1.0000
  H   H2687     1.0  0.64916  0.88161  0.35940  1.0000
  H   H2688     1.0  0.70722  0.89557  0.33202  1.0000
  H   H2689     1.0  0.69259  0.89520  0.29792  1.0000
  C   C1528     1.0  0.52258  0.88079  0.26539  1.0000
  C   C1529     1.0  0.52125  0.89022  0.24614  1.0000
  H   H2690     1.0  0.54216  0.90880  0.30584  1.0000
  H   H2691     1.0  0.53487  0.89479  0.23791  1.0000
  H   H2692     1.0  0.66351  0.92288  0.22815  1.0000
  C   C1530     1.0  0.59649  0.97223  0.23719  1.0000
  C   C1531     1.0  0.59295  0.97252  0.25820  1.0000
  H   H2693     1.0  0.61314  0.92278  0.32238  1.0000
  H   H2694     1.0  0.59163  0.95843  0.26697  1.0000
  H   H2695     1.0  0.55107  0.81960  0.19404  1.0000
  C   C1532     1.0  0.59572  0.79702  0.16501  1.0000
  C   C1533     1.0  0.59188  0.79871  0.18607  1.0000
  C   C1534     1.0  0.59660  0.81634  0.19609  1.0000
  C   C1535     1.0  0.60529  0.83263  0.18520  1.0000
  C   C1536     1.0  0.60930  0.83084  0.16419  1.0000
  C   C1537     1.0  0.60452  0.81325  0.15415  1.0000
  H   H2696     1.0  0.58541  0.78618  0.19477  1.0000
  H   H2697     1.0  0.59403  0.81709  0.21231  1.0000
  H   H2698     1.0  0.61617  0.84322  0.15557  1.0000
  H   H2699     1.0  0.60771  0.81226  0.13801  1.0000
  H   H2700     1.0  0.60292  0.94545  0.30980  1.0000
  H   H2701     1.0  0.70355  0.93046  0.31261  1.0000
  C   C1538     1.0  0.59648  0.76512  0.02061  1.0000
  H   H2702     1.0  0.98572  0.81434  0.43417  1.0000
  H   H2703     1.0  0.52062  0.78506  0.18433  1.0000
  C   C1539     1.0  0.66626  0.95265  0.24049  1.0000
  H   H2704     1.0  0.81881  0.93721  0.44255  1.0000
  H   H2705     1.0  0.65933  0.98088  0.34380  1.0000
  H   H2706     1.0  0.62999  0.76850  0.18689  1.0000
  H   H2707     1.0  0.88760  0.79859  0.49183  1.0000
  H   H2708     1.0  0.68235  0.94917  0.24397  1.0000
  H   H2709     1.0  0.53895  0.92420  0.20852  1.0000
  H   H2710     1.0  0.71523  0.95327  0.30281  1.0000
  H   H2711     1.0  0.55062  0.85264  0.23514  1.0000
  H   H2712     1.0  0.50954  0.85066  0.23528  1.0000
  C   C1540     1.0  0.63991  0.95918  0.29350  1.0000
  H   H2713     1.0  0.55216  0.89317  0.19080  1.0000
  C   C1541     1.0  0.51232  0.76985  0.14189  1.0000
  H   H2714     1.0  0.64483  0.94184  0.21947  1.0000
  C   C1542     1.0  0.68237  0.95631  0.30784  1.0000
  H   H2715     1.0  0.67122  0.95107  0.31974  1.0000
  C   C1543     1.0  0.72820  0.96456  0.45356  1.0000
  H   H2716     1.0  0.79632  0.92996  0.35980  1.0000
  H   H2717     1.0  0.62028  0.94718  0.33024  1.0000
  C   C1544     1.0  0.66767  0.76916  0.13283  1.0000
  H   H2718     1.0  0.53822  0.95529  0.30266  1.0000
  S   S357      1.0  0.95613  0.77212  0.39259  1.0000
  H   H2719     1.0  0.56723  0.85982  0.20327  1.0000
  C   C1545     1.0  0.81062  0.94585  0.39502  1.0000
  C   C1546     1.0  0.66093  0.93909  0.22348  1.0000
  H   H2720     1.0  0.75423  0.86066  0.46631  1.0000
  C   C1547     1.0  0.70320  0.94719  0.31333  1.0000
  H   H2721     1.0  0.53154  0.92280  0.27128  1.0000
  H   H2722     1.0  0.96667  0.75481  0.44060  1.0000
  H   H2723     1.0  0.51839  0.79694  0.21932  1.0000
  H   H2724     1.0  0.63625  0.95349  0.25520  1.0000
  H   H2725     1.0  0.56764  0.83664  0.26740  1.0000
  H   H2726     1.0  0.79772  0.98342  0.38966  1.0000
  H   H2727     1.0  0.88344  0.77733  0.32040  1.0000
  H   H2728     1.0  0.73018  0.94779  0.45340  1.0000
  C   C1548     1.0  0.61660  0.93844  0.31696  1.0000
  H   H2729     1.0  0.52410  0.98816  0.23435  1.0000
  C   C1549     1.0  0.85405  0.75224  0.33694  1.0000
  H   H2730     1.0  0.84987  0.76867  0.33794  1.0000
  C   C1550     1.0  0.55548  0.86017  0.19174  1.0000
  N   N84       1.0  0.65748  0.96011  0.27821  1.0000
  C   C1551     1.0  0.55608  0.88074  0.18036  1.0000
  H   H2731     1.0  0.53142  0.83378  0.26007  1.0000
  H   H2732     1.0  0.97570  0.76961  0.48522  1.0000
  C   C1552     1.0  0.53568  0.93838  0.27476  1.0000
  H   H2733     1.0  0.66479  0.96855  0.23452  1.0000
  H   H2734     1.0  0.96479  0.80236  0.42364  1.0000
  H   H2735     1.0  0.61269  0.78749  0.00250  1.0000
  H   H2736     1.0  0.55988  0.93960  0.20042  1.0000
  Fe  Fe179     1.0  0.59619  0.75852  0.07454  1.0000
  H   H2737     1.0  0.64255  0.96863  0.30663  1.0000
  H   H2738     1.0  0.65203  0.93263  0.26285  1.0000
  H   H2739     1.0  0.63030  0.92829  0.28909  1.0000
  H   H2740     1.0  0.54580  0.79448  0.22062  1.0000
  H   H2741     1.0  0.55984  0.84853  0.18057  1.0000
  H   H2742     1.0  0.64751  0.92983  0.30926  1.0000
  C   C1553     1.0  0.53298  0.79833  0.21058  1.0000
  C   C1554     1.0  0.80319  0.94323  0.43967  1.0000
  C   C1555     1.0  0.96015  0.77088  0.49216  1.0000
  H   H2743     1.0  0.71574  0.96940  0.44339  1.0000
  H   H2744     1.0  0.57166  0.88295  0.17382  1.0000
  H   H2745     1.0  0.54534  0.88153  0.16779  1.0000
  H   H2746     1.0  0.84107  0.96603  0.42855  1.0000
  H   H2747     1.0  0.87844  0.94466  0.40327  1.0000
  C   C1556     1.0  0.88690  0.76107  0.31761  1.0000
  H   H2748     1.0  0.65457  0.78079  0.21082  1.0000
  H   H2749     1.0  0.81891  0.75632  0.28023  1.0000
  C   C1557     1.0  0.50220  0.89394  0.23754  1.0000
  H   H2750     1.0  0.52051  0.78417  0.14206  1.0000
  H   H2751     1.0  0.90217  0.76245  0.46649  1.0000
  H   H2752     1.0  0.97965  0.78186  0.45231  1.0000
  C   C1558     1.0  0.80347  0.96323  0.42648  1.0000
  C   C1559     1.0  0.76946  0.85284  0.46652  1.0000
  C   C1560     1.0  0.81254  0.92627  0.36274  1.0000
  H   H2753     1.0  0.85365  0.96561  0.38298  1.0000
  H   H2754     1.0  0.67390  0.79042  0.10766  1.0000
  H   H2755     1.0  0.79991  0.95750  0.46892  1.0000
  H   H2756     1.0  0.63635  0.76284  0.14164  1.0000
  H   H2757     1.0  0.94001  0.78505  0.44637  1.0000
  C   C1561     1.0  0.83886  0.95969  0.41345  1.0000
  S   S358      1.0  0.61801  0.75678  0.10001  1.0000
  H   H2758     1.0  0.85920  0.75518  0.30368  1.0000
  H   H2759     1.0  0.64004  0.80124  0.19874  1.0000
  H   H2760     1.0  0.89542  0.75991  0.30282  1.0000
  C   C1562     1.0  0.51097  0.83800  0.22464  1.0000
  H   H2761     1.0  0.53424  0.94991  0.19872  1.0000
  H   H2762     1.0  0.89677  0.75445  0.32960  1.0000
  H   H2763     1.0  0.68259  0.76109  0.13041  1.0000
  C   C1563     1.0  0.86741  0.74945  0.31721  1.0000
  H   H2764     1.0  0.86412  0.74878  0.34988  1.0000
  H   H2765     1.0  0.81374  0.91161  0.37157  1.0000
  H   H2766     1.0  0.82199  0.75253  0.40872  1.0000
  C   C1564     1.0  0.52453  0.94762  0.24053  1.0000
  H   H2767     1.0  0.77615  0.95180  0.45787  1.0000
  H   H2768     1.0  0.77844  0.85817  0.45287  1.0000
  N   N85       1.0  0.52389  0.95408  0.26220  1.0000
  H   H2769     1.0  0.55014  0.97275  0.26041  1.0000
  Fe  Fe180     1.0  0.92610  0.75595  0.39535  1.0000
  C   C1565     1.0  0.82166  0.94317  0.37412  1.0000
  C   C1566     1.0  0.81323  0.98279  0.39572  1.0000
  H   H2770     1.0  0.81304  0.93105  0.40335  1.0000
  H   H2771     1.0  0.79401  0.94756  0.39250  1.0000
  H   H2772     1.0  0.97503  0.80261  0.46873  1.0000
  H   H2773     1.0  0.66509  0.99000  0.28699  1.0000
  N   N86       1.0  0.72619  0.83170  0.34836  1.0000
  C   C1567     1.0  0.74140  0.83257  0.36474  1.0000
  C   C1568     1.0  0.72763  0.85054  0.33472  1.0000
  C   C1569     1.0  0.70522  0.83226  0.35852  1.0000
  C   C1570     1.0  0.72889  0.81277  0.33626  1.0000
  C   C1571     1.0  0.75079  0.80334  0.33362  1.0000
  C   C1572     1.0  0.73912  0.81665  0.38255  1.0000
  C   C1573     1.0  0.68707  0.83336  0.34419  1.0000
  C   C1574     1.0  0.74820  0.85387  0.32324  1.0000
  C   C1575     1.0  0.74768  0.87400  0.31095  1.0000
  C   C1576     1.0  0.75179  0.78687  0.31800  1.0000
  C   C1577     1.0  0.75827  0.81438  0.39483  1.0000
  C   C1578     1.0  0.66693  0.83115  0.35621  1.0000
  H   H2774     1.0  0.74039  0.84776  0.37148  1.0000
  H   H2775     1.0  0.75718  0.83123  0.35839  1.0000
  H   H2776     1.0  0.71633  0.85066  0.32269  1.0000
  H   H2777     1.0  0.72384  0.86418  0.34374  1.0000
  H   H2778     1.0  0.70335  0.84536  0.36864  1.0000
  H   H2779     1.0  0.70312  0.81853  0.36856  1.0000
  H   H2780     1.0  0.71967  0.80041  0.34334  1.0000
  H   H2781     1.0  0.72271  0.81565  0.32090  1.0000
  H   H2782     1.0  0.75581  0.79621  0.34819  1.0000
  H   H2783     1.0  0.76202  0.81468  0.32875  1.0000
  H   H2784     1.0  0.72641  0.82152  0.39306  1.0000
  H   H2785     1.0  0.73574  0.80158  0.37704  1.0000
  H   H2786     1.0  0.68853  0.82122  0.33305  1.0000
  H   H2787     1.0  0.68602  0.84818  0.33577  1.0000
  H   H2788     1.0  0.76085  0.85419  0.33377  1.0000
  H   H2789     1.0  0.75137  0.84185  0.31221  1.0000
  H   H2790     1.0  0.76252  0.87598  0.30270  1.0000
  H   H2791     1.0  0.73560  0.87433  0.29968  1.0000
  H   H2792     1.0  0.74486  0.88690  0.32106  1.0000
  H   H2793     1.0  0.74780  0.79341  0.30283  1.0000
  H   H2794     1.0  0.76744  0.78005  0.31681  1.0000
  H   H2795     1.0  0.74122  0.77472  0.32260  1.0000
  H   H2796     1.0  0.77144  0.80898  0.38520  1.0000
  H   H2797     1.0  0.76175  0.82911  0.40113  1.0000
  H   H2798     1.0  0.75598  0.80321  0.40766  1.0000
  H   H2799     1.0  0.66635  0.81601  0.36408  1.0000
  H   H2800     1.0  0.66491  0.84308  0.36759  1.0000
  H   H2801     1.0  0.65418  0.83292  0.34572  1.0000
  H   H2802     1.0  0.67519  0.93306  0.28738  1.0000
  H   H2803     1.0  0.62588  0.96587  0.28671  1.0000
  H   H2804     1.0  0.71951  0.98787  0.47414  1.0000
  H   H2805     1.0  0.50838  0.82422  0.23435  1.0000
  C   C1579     1.0  0.81521  0.75382  0.39356  1.0000
  H   H2806     1.0  0.67548  0.76390  0.17306  1.0000
  H   H2807     1.0  0.66943  0.78129  0.14365  1.0000
  H   H2808     1.0  0.51080  0.76308  0.15752  1.0000
  H   H2809     1.0  0.93248  0.75153  0.45442  1.0000
  C   C1580     1.0  0.54563  0.94759  0.22932  1.0000
  C   C1581     1.0  0.53406  0.85663  0.20163  1.0000
  C   C1582     1.0  0.72276  0.89368  0.48174  1.0000
  H   H2810     1.0  0.68314  0.97295  0.30855  1.0000
  H   H2811     1.0  0.57396  0.81307  0.25514  1.0000
  C   C1583     1.0  0.54450  0.93985  0.20793  1.0000
  C   C1584     1.0  0.66213  0.77956  0.11261  1.0000
  S   S359      1.0  0.90065  0.75982  0.37346  1.0000
  H   H2812     1.0  0.80449  0.76838  0.32314  1.0000
  H   H2813     1.0  0.66596  0.79615  0.19033  1.0000
  H   H2814     1.0  0.74239  0.97140  0.44754  1.0000
  H   H2815     1.0  0.97764  0.74494  0.46394  1.0000
  H   H2816     1.0  0.53703  0.74887  0.01843  1.0000
  H   H2817     1.0  0.55219  0.93886  0.27066  1.0000
  C   C1585     1.0  0.64447  0.77463  0.18069  1.0000
  H   H2818     1.0  0.51358  0.75581  0.03165  1.0000
  C   C1586     1.0  0.90519  0.77693  0.47345  1.0000
  H   H2819     1.0  0.64731  0.78810  0.11416  1.0000
  H   H2820     1.0  0.55672  0.93754  0.23749  1.0000
  C   C1587     1.0  0.88609  0.78328  0.48588  1.0000
  H   H2821     1.0  0.52965  0.87000  0.21074  1.0000
  H   H2822     1.0  0.56267  0.83103  0.22422  1.0000
  C   C1588     1.0  0.66165  0.98206  0.27313  1.0000
  H   H2823     1.0  0.79424  0.75163  0.29216  1.0000
  H   H2824     1.0  0.66238  0.74872  0.19139  1.0000
  C   C1589     1.0  0.54689  0.92423  0.30907  1.0000
  C   C1590     1.0  0.79210  0.94639  0.46014  1.0000
  H   H2825     1.0  0.67071  0.94239  0.20975  1.0000
  C   C1591     1.0  0.54783  0.83696  0.23058  1.0000
  C   C1592     1.0  0.96989  0.80966  0.43730  1.0000
  C   C1593     1.0  0.65206  0.94930  0.25956  1.0000
  C   C1594     1.0  0.65180  0.78901  0.19611  1.0000
  N   N87       1.0  0.81704  0.96299  0.40744  1.0000
  C   C1595     1.0  0.81644  0.76219  0.31253  1.0000
  C   C1596     1.0  0.53367  0.78247  0.19434  1.0000
  H   H2826     1.0  0.52539  0.82164  0.18764  1.0000
  H   H2827     1.0  0.79184  0.93177  0.46904  1.0000
  H   H2828     1.0  0.50547  0.86780  0.29086  1.0000
  H   H2829     1.0  0.56311  0.92570  0.30427  1.0000
  C   C1597     1.0  0.74086  0.96615  0.48925  1.0000
  N   N88       1.0  0.53197  0.83738  0.21459  1.0000
  C   C1598     1.0  0.56184  0.82184  0.26353  1.0000
  H   H2830     1.0  0.81825  0.76408  0.35344  1.0000
  H   H2831     1.0  0.81129  0.77008  0.39013  1.0000
  H   H2832     1.0  0.68432  0.98000  0.35396  1.0000
  H   H2833     1.0  0.52350  0.85707  0.18889  1.0000
  C   C1599     1.0  0.83051  0.74555  0.37765  1.0000
  C   C1600     1.0  0.53537  0.81979  0.20083  1.0000
  C   C1601     1.0  0.52030  0.74748  0.01857  1.0000
  C   C1602     1.0  0.66050  0.75720  0.17663  1.0000
  C   C1603     1.0  0.58430  0.74837  0.01999  1.0000
  H   H2834     1.0  0.49788  0.92367  0.27860  1.0000
  H   H2835     1.0  0.51632  0.77247  0.99754  1.0000
  H   H2836     1.0  0.80793  0.97522  0.43656  1.0000
  H   H2837     1.0  0.78751  0.96722  0.42260  1.0000
  H   H2838     1.0  0.67553  0.98333  0.26308  1.0000
  H   H2839     1.0  0.79496  0.93157  0.43207  1.0000
  H   H2840     1.0  0.90739  0.78864  0.46115  1.0000
  H   H2841     1.0  0.82895  0.77288  0.31135  1.0000
  H   H2842     1.0  0.82084  0.92446  0.34790  1.0000
  H   H2843     1.0  0.84265  0.94317  0.41556  1.0000
  H   H2844     1.0  0.70658  0.95108  0.32902  1.0000
  H   H2845     1.0  0.55158  0.96305  0.22786  1.0000
  C   C1604     1.0  0.67643  0.94984  0.28656  1.0000
  H   H2846     1.0  0.82338  0.98404  0.38197  1.0000
  H   H2847     1.0  0.83784  0.93864  0.37616  1.0000
  C   C1605     1.0  0.50462  0.87509  0.27593  1.0000
  N   N89       1.0  0.94428  0.77095  0.47627  1.0000
  C   C1606     1.0  0.87670  0.96132  0.40486  1.0000
  H   H2848     1.0  0.80185  0.77723  0.28681  1.0000
  C   C1607     1.0  0.92380  0.77408  0.48710  1.0000
  C   C1608     1.0  0.53350  0.97421  0.26383  1.0000
  H   H2849     1.0  0.63766  0.98735  0.25064  1.0000
  H   H2850     1.0  0.68968  0.95260  0.27600  1.0000
  C   C1609     1.0  0.72293  0.97129  0.47508  1.0000
  C   C1610     1.0  0.85549  0.96904  0.39902  1.0000
  H   H2851     1.0  0.66137  0.76822  0.10074  1.0000
  H   H2852     1.0  0.51363  0.95699  0.23131  1.0000
  H   H2853     1.0  0.51923  0.93198  0.23992  1.0000
  H   H2854     1.0  0.82048  0.95717  0.36434  1.0000
  C   C1611     1.0  0.65124  0.75426  0.14070  1.0000
  H   H2855     1.0  0.49498  0.75629  0.00027  1.0000
  C   C1612     1.0  0.82183  0.74761  0.35618  1.0000
  H   H2856     1.0  0.66250  0.97360  0.37014  1.0000
  H   H2857     1.0  0.54531  0.92608  0.32571  1.0000
  H   H2858     1.0  0.53208  0.97925  0.27970  1.0000
  C   C1613     1.0  0.50199  0.95603  0.26962  1.0000
  H   H2859     1.0  0.87955  0.96500  0.42074  1.0000
  H   H2860     1.0  0.51767  0.93815  0.30372  1.0000
  H   H2861     1.0  0.50077  0.96247  0.28496  1.0000
  H   H2862     1.0  0.53280  0.76708  0.20165  1.0000
  H   H2863     1.0  0.78304  0.87415  0.48487  1.0000
  C   C1614     1.0  0.96913  0.79486  0.45569  1.0000
  H   H2864     1.0  0.88828  0.96866  0.39467  1.0000
  C   C1615     1.0  0.94441  0.75111  0.46582  1.0000
  H   H2865     1.0  0.93892  0.80240  0.46624  1.0000
  H   H2866     1.0  0.70894  0.96362  0.48036  1.0000
  C   C1616     1.0  0.60326  0.77453  0.00218  1.0000
  C   C1617     1.0  0.51179  0.75652  0.99881  1.0000
  H   H2867     1.0  0.58857  0.99126  0.28415  1.0000
  C   C1618     1.0  0.52457  0.99203  0.25048  1.0000
  H   H2868     1.0  0.74554  0.94991  0.48733  1.0000
  H   H2869     1.0  0.79529  0.84934  0.48548  1.0000
  C   C1619     1.0  0.59118  0.99114  0.26787  1.0000
  H   H2870     1.0  0.87275  0.78370  0.47612  1.0000
  H   H2871     1.0  0.50135  0.90134  0.22266  1.0000
  C   C1620     1.0  0.96434  0.74468  0.45426  1.0000
  H   H2872     1.0  0.84448  0.75423  0.37820  1.0000
  H   H2873     1.0  0.50087  0.74617  0.08488  1.0000
  H   H2874     1.0  0.63750  0.74825  0.02683  1.0000
  C   C1621     1.0  0.59808  0.99069  0.22599  1.0000
  H   H2875     1.0  0.60080  0.99058  0.20972  1.0000
  H   H2876     1.0  0.80118  0.74509  0.39420  1.0000
  C   C1622     1.0  0.80762  0.90074  0.64504  1.0000
  H   H2877     1.0  0.52809  0.80888  0.91590  1.0000
  Fe  Fe181     1.0  0.59152  0.77261  0.88565  1.0000
  S   S360      1.0  0.58584  0.80486  0.87183  1.0000
  S   S361      1.0  0.56421  0.76249  0.90458  1.0000
  S   S362      1.0  0.86900  0.74614  0.60100  1.0000
  Fe  Fe182     1.0  0.88544  0.77523  0.60027  1.0000
  S   S363      1.0  0.87070  0.80665  0.60700  1.0000
  H   H2878     1.0  0.80458  0.91662  0.64953  1.0000
  H   H2879     1.0  0.80545  0.90303  0.54382  1.0000
  S   S364      1.0  0.90286  0.76945  0.57077  1.0000
  H   H2880     1.0  0.54497  0.81337  0.83877  1.0000
  Fe  Fe183     1.0  0.76312  0.87889  0.59804  1.0000
  S   S365      1.0  0.72954  0.87351  0.59902  1.0000
  S   S366      1.0  0.78163  0.84844  0.59813  1.0000
  Fe  Fe184     1.0  0.75426  0.92539  0.59233  1.0000
  S   S367      1.0  0.72052  0.92233  0.59300  1.0000
  S   S368      1.0  0.76723  0.95530  0.58099  1.0000
  Fe  Fe185     1.0  0.72526  0.90002  0.61945  1.0000
  S   S369      1.0  0.71017  0.90028  0.65174  1.0000
  Fe  Fe186     1.0  0.72792  0.89622  0.57260  1.0000
  S   S370      1.0  0.71239  0.89052  0.54320  1.0000
  S   S371      1.0  0.75916  0.90446  0.61973  1.0000
  S   S372      1.0  0.76129  0.90025  0.57075  1.0000
  Fe  Fe187     1.0  0.60535  0.87775  0.77202  1.0000
  S   S373      1.0  0.59331  0.86695  0.74312  1.0000
  S   S374      1.0  0.62134  0.85565  0.79442  1.0000
  Fe  Fe188     1.0  0.59131  0.92179  0.76197  1.0000
  S   S375      1.0  0.57758  0.91372  0.73290  1.0000
  S   S376      1.0  0.58467  0.95322  0.77413  1.0000
  Fe  Fe189     1.0  0.56543  0.88662  0.75052  1.0000
  S   S377      1.0  0.53417  0.87316  0.75558  1.0000
  Fe  Fe190     1.0  0.60676  0.89485  0.72778  1.0000
  S   S378      1.0  0.62109  0.89546  0.69528  1.0000
  S   S379      1.0  0.57713  0.89599  0.77998  1.0000
  S   S380      1.0  0.62090  0.90437  0.75624  1.0000
  C   C1623     1.0  0.59737  0.97631  0.77034  1.0000
  C   C1624     1.0  0.54469  0.83660  0.80246  1.0000
  C   C1625     1.0  0.61831  0.97692  0.76615  1.0000
  H   H2881     1.0  0.57698  0.81109  0.80474  1.0000
  H   H2882     1.0  0.62730  0.96299  0.76482  1.0000
  C   C1626     1.0  0.50995  0.89655  0.72934  1.0000
  C   C1627     1.0  0.51078  0.88298  0.74615  1.0000
  H   H2883     1.0  0.79682  0.86397  0.63542  1.0000
  H   H2884     1.0  0.52388  0.90169  0.72203  1.0000
  H   H2885     1.0  0.53196  0.87686  0.80669  1.0000
  C   C1628     1.0  0.68518  0.89898  0.66342  1.0000
  C   C1629     1.0  0.66780  0.89696  0.65231  1.0000
  C   C1630     1.0  0.64847  0.89583  0.66234  1.0000
  C   C1631     1.0  0.64609  0.89673  0.68362  1.0000
  C   C1632     1.0  0.66345  0.89883  0.69474  1.0000
  C   C1633     1.0  0.68279  0.89994  0.68471  1.0000
  H   H2886     1.0  0.66925  0.89614  0.63598  1.0000
  H   H2887     1.0  0.63526  0.89407  0.65351  1.0000
  H   H2888     1.0  0.66201  0.89944  0.71107  1.0000
  H   H2889     1.0  0.69605  0.90147  0.69354  1.0000
  C   C1634     1.0  0.72377  0.89555  0.51874  1.0000
  C   C1635     1.0  0.66419  0.75559  0.93013  1.0000
  C   C1636     1.0  0.74252  0.90461  0.51626  1.0000
  H   H2890     1.0  0.53919  0.98225  0.72470  1.0000
  H   H2891     1.0  0.75022  0.90893  0.52942  1.0000
  C   C1637     1.0  0.76362  0.97923  0.59211  1.0000
  H   H2892     1.0  0.61100  0.88636  0.83265  1.0000
  H   H2893     1.0  0.49707  0.83445  0.87659  1.0000
  H   H2894     1.0  0.66592  0.93979  0.77268  1.0000
  H   H2895     1.0  0.75924  0.83841  0.50253  1.0000
  C   C1638     1.0  0.84616  0.81827  0.60273  1.0000
  C   C1639     1.0  0.84296  0.83921  0.60553  1.0000
  C   C1640     1.0  0.82360  0.84892  0.60339  1.0000
  C   C1641     1.0  0.80697  0.83771  0.59882  1.0000
  C   C1642     1.0  0.81021  0.81685  0.59571  1.0000
  C   C1643     1.0  0.82965  0.80721  0.59748  1.0000
  H   H2896     1.0  0.85560  0.84797  0.60950  1.0000
  H   H2897     1.0  0.82153  0.86499  0.60568  1.0000
  H   H2898     1.0  0.79752  0.80797  0.59216  1.0000
  H   H2899     1.0  0.83178  0.79113  0.59527  1.0000
  H   H2900     1.0  0.53704  0.82950  0.76596  1.0000
  H   H2901     1.0  0.82663  0.88905  0.53186  1.0000
  H   H2902     1.0  0.83143  0.79398  0.65107  1.0000
  H   H2903     1.0  0.67785  0.92307  0.79129  1.0000
  H   H2904     1.0  0.77851  0.89179  0.65732  1.0000
  H   H2905     1.0  0.96724  0.76906  0.61870  1.0000
  C   C1644     1.0  0.59549  0.81798  0.84953  1.0000
  C   C1645     1.0  0.58533  0.83602  0.84274  1.0000
  C   C1646     1.0  0.59257  0.84729  0.82547  1.0000
  C   C1647     1.0  0.61048  0.84098  0.81508  1.0000
  C   C1648     1.0  0.62075  0.82305  0.82197  1.0000
  C   C1649     1.0  0.61315  0.81144  0.83886  1.0000
  H   H2906     1.0  0.57177  0.84136  0.85098  1.0000
  H   H2907     1.0  0.58459  0.86113  0.82055  1.0000
  H   H2908     1.0  0.63473  0.81809  0.81421  1.0000
  H   H2909     1.0  0.62128  0.79772  0.84393  1.0000
  H   H2910     1.0  0.56406  0.96505  0.70212  1.0000
  H   H2911     1.0  0.80347  0.84830  0.68831  1.0000
  C   C1650     1.0  0.78188  0.83396  0.72055  1.0000
  H   H2912     1.0  0.52210  0.92721  0.75606  1.0000
  C   C1651     1.0  0.75139  0.90803  0.49672  1.0000
  N   N90       1.0  0.78420  0.84908  0.66249  1.0000
  C   C1652     1.0  0.78990  0.82864  0.65401  1.0000
  C   C1653     1.0  0.76256  0.85548  0.65746  1.0000
  C   C1654     1.0  0.77608  0.83313  0.69842  1.0000
  C   C1655     1.0  0.74713  0.83847  0.65636  1.0000
  C   C1656     1.0  0.72535  0.84719  0.65549  1.0000
  H   H2913     1.0  0.78704  0.82901  0.63750  1.0000
  H   H2914     1.0  0.78006  0.81674  0.66069  1.0000
  H   H2915     1.0  0.75614  0.86681  0.66828  1.0000
  H   H2916     1.0  0.76215  0.86348  0.64226  1.0000
  H   H2917     1.0  0.63197  0.94577  0.83589  1.0000
  H   H2918     1.0  0.75942  0.83601  0.69811  1.0000
  H   H2919     1.0  0.75041  0.82993  0.64235  1.0000
  H   H2920     1.0  0.74779  0.82756  0.66947  1.0000
  H   H2921     1.0  0.72367  0.85763  0.64202  1.0000
  H   H2922     1.0  0.71472  0.83475  0.65435  1.0000
  H   H2923     1.0  0.72105  0.85557  0.66937  1.0000
  H   H2924     1.0  0.64949  0.94347  0.80670  1.0000
  H   H2925     1.0  0.78008  0.81760  0.69350  1.0000
  H   H2926     1.0  0.75517  0.96772  0.62209  1.0000
  H   H2927     1.0  0.79655  0.82711  0.54111  1.0000
  C   C1657     1.0  0.81223  0.82080  0.65641  1.0000
  H   H2928     1.0  0.69342  0.94005  0.56286  1.0000
  H   H2929     1.0  0.66094  0.91315  0.77359  1.0000
  H   H2930     1.0  0.67545  0.94262  0.86962  1.0000
  C   C1658     1.0  0.65352  0.94475  0.72675  1.0000
  H   H2931     1.0  0.55406  0.83747  0.81591  1.0000
  C   C1659     1.0  0.50342  0.81377  0.75491  1.0000
  H   H2932     1.0  0.75515  0.86430  0.50651  1.0000
  H   H2933     1.0  0.69087  0.93260  0.53724  1.0000
  S   S381      1.0  0.91099  0.76132  0.61892  1.0000
  C   C1660     1.0  0.63300  0.93034  0.84330  1.0000
  H   H2934     1.0  0.79081  0.96472  0.54507  1.0000
  C   C1661     1.0  0.54703  0.79874  0.83115  1.0000
  C   C1662     1.0  0.66026  0.94552  0.86318  1.0000
  H   H2935     1.0  0.63070  0.97999  0.72061  1.0000
  H   H2936     1.0  0.81442  0.74569  0.65700  1.0000
  C   C1663     1.0  0.65441  0.92704  0.85188  1.0000
  H   H2937     1.0  0.79843  0.83070  0.72199  1.0000
  C   C1664     1.0  0.71606  0.95218  0.54134  1.0000
  C   C1665     1.0  0.64076  0.87935  0.84265  1.0000
  C   C1666     1.0  0.55502  0.97963  0.72958  1.0000
  H   H2938     1.0  0.56346  0.79450  0.83003  1.0000
  H   H2939     1.0  0.77999  0.88277  0.52574  1.0000
  C   C1667     1.0  0.52418  0.86599  0.81737  1.0000
  C   C1668     1.0  0.81555  0.88918  0.54498  1.0000
  H   H2940     1.0  0.70424  0.96856  0.51487  1.0000
  H   H2941     1.0  0.72385  0.82002  0.56181  1.0000
  S   S382      1.0  0.59387  0.74450  0.86745  1.0000
  H   H2942     1.0  0.75688  0.94497  0.52069  1.0000
  H   H2943     1.0  0.51482  0.83530  0.81873  1.0000
  H   H2944     1.0  0.62205  0.85522  0.85561  1.0000
  H   H2945     1.0  0.52059  0.78571  0.84713  1.0000
  H   H2946     1.0  0.75299  0.96310  0.53934  1.0000
  C   C1669     1.0  0.53718  0.78252  0.84503  1.0000
  C   C1670     1.0  0.64576  0.93040  0.79776  1.0000
  C   C1671     1.0  0.95908  0.75379  0.50902  1.0000
  N   N91       1.0  0.77887  0.85012  0.52456  1.0000
  N   N92       1.0  0.60746  0.97250  0.70030  1.0000
  C   C1672     1.0  0.62802  0.96857  0.70921  1.0000
  H   H2947     1.0  0.63310  0.94387  0.67629  1.0000
  C   C1673     1.0  0.59155  0.97283  0.71734  1.0000
  C   C1674     1.0  0.60279  0.95617  0.68608  1.0000
  H   H2948     1.0  0.49664  0.80722  0.87902  1.0000
  C   C1675     1.0  0.63160  0.94759  0.72018  1.0000
  C   C1676     1.0  0.79461  0.88655  0.65846  1.0000
  C   C1677     1.0  0.79370  0.83203  0.52507  1.0000
  C   C1678     1.0  0.79051  0.86914  0.52643  1.0000
  C   C1679     1.0  0.61179  0.93698  0.65417  1.0000
  H   H2949     1.0  0.65558  0.92985  0.73495  1.0000
  C   C1680     1.0  0.59772  0.76745  0.98336  1.0000
  C   C1681     1.0  0.80307  0.87019  0.54578  1.0000
  C   C1682     1.0  0.56941  0.97755  0.71099  1.0000
  C   C1683     1.0  0.73386  0.99266  0.51360  1.0000
  H   H2950     1.0  0.62241  0.93125  0.85679  1.0000
  H   H2951     1.0  0.74101  0.83006  0.52945  1.0000
  H   H2952     1.0  0.59134  0.95791  0.72572  1.0000
  H   H2953     1.0  0.59941  0.94175  0.69468  1.0000
  H   H2954     1.0  0.58865  0.96043  0.67803  1.0000
  H   H2955     1.0  0.50237  0.78766  0.93327  1.0000
  C   C1684     1.0  0.51078  0.75002  0.88788  1.0000
  H   H2956     1.0  0.62154  0.94611  0.73396  1.0000
  H   H2957     1.0  0.62872  0.93499  0.71034  1.0000
  H   H2958     1.0  0.94449  0.75456  0.51795  1.0000
  H   H2959     1.0  0.52351  0.75961  0.88879  1.0000
  H   H2960     1.0  0.64910  0.94869  0.87584  1.0000
  H   H2961     1.0  0.58365  0.90854  0.84114  1.0000
  H   H2962     1.0  0.66418  0.94498  0.71328  1.0000
  H   H2963     1.0  0.95927  0.78567  0.49975  1.0000
  H   H2964     1.0  0.52659  0.81314  0.94275  1.0000
  H   H2965     1.0  0.50367  0.81828  0.78684  1.0000
  H   H2966     1.0  0.62429  0.93293  0.64310  1.0000
  H   H2967     1.0  0.60250  0.91304  0.80782  1.0000
  H   H2968     1.0  0.65723  0.95684  0.73701  1.0000
  H   H2969     1.0  0.61566  0.89754  0.85591  1.0000
  N   N93       1.0  0.62632  0.91474  0.82916  1.0000
  H   H2970     1.0  0.51454  0.84795  0.79383  1.0000
  H   H2971     1.0  0.77357  0.82242  0.72992  1.0000
  H   H2972     1.0  0.72402  0.84720  0.55876  1.0000
  C   C1685     1.0  0.53096  0.80189  0.93115  1.0000
  H   H2973     1.0  0.53901  0.78471  0.80363  1.0000
  N   N94       1.0  0.54605  0.81546  0.79468  1.0000
  H   H2974     1.0  0.54323  0.80323  0.76487  1.0000
  C   C1686     1.0  0.56826  0.80965  0.79085  1.0000
  C   C1687     1.0  0.57972  0.82244  0.77410  1.0000
  H   H2975     1.0  0.71944  0.96422  0.55169  1.0000
  C   C1688     1.0  0.53748  0.80009  0.80997  1.0000
  C   C1689     1.0  0.60058  0.81268  0.76884  1.0000
  H   H2976     1.0  0.99102  0.75522  0.51613  1.0000
  H   H2977     1.0  0.71701  0.94486  0.51028  1.0000
  H   H2978     1.0  0.56999  0.79341  0.78692  1.0000
  H   H2979     1.0  0.55133  0.84749  0.79099  1.0000
  H   H2980     1.0  0.78143  0.86418  0.69094  1.0000
  H   H2981     1.0  0.58213  0.83779  0.77952  1.0000
  H   H2982     1.0  0.57139  0.82418  0.75985  1.0000
  C   C1690     1.0  0.81503  0.79855  0.65112  1.0000
  H   H2983     1.0  0.75402  0.86339  0.54261  1.0000
  C   C1691     1.0  0.62247  0.89480  0.84050  1.0000
  H   H2984     1.0  0.80674  0.78878  0.66245  1.0000
  C   C1692     1.0  0.75513  0.96158  0.52272  1.0000
  H   H2985     1.0  0.60897  0.82273  0.75783  1.0000
  H   H2986     1.0  0.60966  0.81041  0.78259  1.0000
  H   H2987     1.0  0.59900  0.79785  0.76189  1.0000
  H   H2988     1.0  0.82255  0.82946  0.64593  1.0000
  H   H2989     1.0  0.81370  0.85683  0.54753  1.0000
  H   H2990     1.0  0.81426  0.86031  0.65520  1.0000
  C   C1693     1.0  0.61944  0.95130  0.66948  1.0000
  H   H2991     1.0  0.79901  0.88816  0.67434  1.0000
  H   H2992     1.0  0.53247  0.86450  0.83171  1.0000
  H   H2993     1.0  0.56530  0.92518  0.81205  1.0000
  H   H2994     1.0  0.77778  0.84912  0.72655  1.0000
  H   H2995     1.0  0.82401  0.89678  0.64675  1.0000
  H   H2996     1.0  0.83965  0.75485  0.65863  1.0000
  H   H2997     1.0  0.62416  0.96517  0.66089  1.0000
  H   H2998     1.0  0.50367  0.83019  0.75060  1.0000
  H   H2999     1.0  0.77999  0.96861  0.50042  1.0000
  H   H3000     1.0  0.52290  0.77267  0.92216  1.0000
  H   H3001     1.0  0.59905  0.94431  0.64575  1.0000
  H   H3002     1.0  0.64885  0.85108  0.85883  1.0000
  H   H3003     1.0  0.74199  0.99346  0.54577  1.0000
  H   H3004     1.0  0.60284  0.77499  0.96933  1.0000
  H   H3005     1.0  0.65161  0.76724  0.93130  1.0000
  S   S383      1.0  0.61315  0.75992  0.90940  1.0000
  C   C1694     1.0  0.98179  0.76500  0.61160  1.0000
  H   H3006     1.0  0.79855  0.78189  0.50970  1.0000
  H   H3007     1.0  0.75836  0.81676  0.54655  1.0000
  H   H3008     1.0  0.70512  0.97165  0.66364  1.0000
  H   H3009     1.0  0.80162  0.87102  0.51345  1.0000
  H   H3010     1.0  0.79362  0.94439  0.52752  1.0000
  C   C1695     1.0  0.63622  0.86274  0.85879  1.0000
  C   C1696     1.0  0.78704  0.84936  0.68503  1.0000
  H   H3011     1.0  0.80941  0.79618  0.63581  1.0000
  H   H3012     1.0  0.82408  0.88967  0.55912  1.0000
  C   C1697     1.0  0.73375  0.83321  0.56103  1.0000
  H   H3013     1.0  0.68329  0.95807  0.54443  1.0000
  H   H3014     1.0  0.97367  0.76981  0.53235  1.0000
  H   H3015     1.0  0.52098  0.80297  0.81292  1.0000
  H   H3016     1.0  0.79313  0.87092  0.55963  1.0000
  H   H3017     1.0  0.52258  0.95157  0.76715  1.0000
  H   H3018     1.0  0.64400  0.87195  0.82798  1.0000
  H   H3019     1.0  0.65482  0.88643  0.84668  1.0000
  H   H3020     1.0  0.66626  0.92448  0.83979  1.0000
  C   C1698     1.0  0.79296  0.96110  0.52885  1.0000
  C   C1699     1.0  0.79810  0.86427  0.65217  1.0000
  H   H3021     1.0  0.72679  0.93910  0.54446  1.0000
  H   H3022     1.0  0.51618  0.78361  0.96682  1.0000
  H   H3023     1.0  0.77525  0.98742  0.51929  1.0000
  H   H3024     1.0  0.80399  0.89978  0.62883  1.0000
  H   H3025     1.0  0.64030  0.97049  0.69729  1.0000
  H   H3026     1.0  0.51527  0.94969  0.74113  1.0000
  C   C1700     1.0  0.66371  0.92626  0.78294  1.0000
  H   H3027     1.0  0.65456  0.91403  0.86303  1.0000
  C   C1701     1.0  0.60657  0.92265  0.82036  1.0000
  H   H3028     1.0  0.94503  0.75592  0.64483  1.0000
  H   H3029     1.0  0.66098  0.95908  0.85268  1.0000
  C   C1702     1.0  0.64134  0.91144  0.81161  1.0000
  H   H3030     1.0  0.92032  0.76089  0.49748  1.0000
  C   C1703     1.0  0.76370  0.84912  0.54230  1.0000
  C   C1704     1.0  0.77578  0.97095  0.51657  1.0000
  H   H3031     1.0  0.65612  0.90511  0.81684  1.0000
  C   C1705     1.0  0.53557  0.81481  0.77471  1.0000
  H   H3032     1.0  0.54404  0.78224  0.86015  1.0000
  C   C1706     1.0  0.71808  0.95912  0.51861  1.0000
  H   H3033     1.0  0.57248  0.94963  0.81995  1.0000
  C   C1707     1.0  0.94800  0.74686  0.65896  1.0000
  H   H3034     1.0  0.50857  0.87218  0.82079  1.0000
  H   H3035     1.0  0.60818  0.93815  0.81333  1.0000
  C   C1708     1.0  0.69459  0.94533  0.54672  1.0000
  H   H3036     1.0  0.82839  0.75449  0.63429  1.0000
  C   C1709     1.0  0.51438  0.94244  0.75660  1.0000
  H   H3037     1.0  0.67865  0.76346  0.92743  1.0000
  H   H3038     1.0  0.63236  0.93477  0.78869  1.0000
  C   C1710     1.0  0.52318  0.84540  0.80783  1.0000
  H   H3039     1.0  0.63583  0.89964  0.80177  1.0000
  H   H3040     1.0  0.74137  0.83377  0.57569  1.0000
  H   H3041     1.0  0.81714  0.82210  0.67214  1.0000
  C   C1711     1.0  0.74946  0.83109  0.54350  1.0000
  H   H3042     1.0  0.60659  0.92280  0.66195  1.0000
  H   H3043     1.0  0.92392  0.78747  0.49684  1.0000
  H   H3044     1.0  0.63461  0.86918  0.87407  1.0000
  C   C1712     1.0  0.75805  0.98113  0.61265  1.0000
  N   N95       1.0  0.73694  0.97008  0.51152  1.0000
  H   H3045     1.0  0.77155  0.84803  0.55683  1.0000
  C   C1713     1.0  0.80256  0.79506  0.51843  1.0000
  H   H3046     1.0  0.53986  0.76729  0.83869  1.0000
  H   H3047     1.0  0.80882  0.83626  0.51845  1.0000
  H   H3048     1.0  0.80771  0.96708  0.52319  1.0000
  Fe  Fe191     1.0  0.58586  0.74727  0.92634  1.0000
  H   H3049     1.0  0.77245  0.80851  0.51733  1.0000
  C   C1714     1.0  0.71392  0.89017  0.50135  1.0000
  C   C1715     1.0  0.76742  0.85228  0.50519  1.0000
  C   C1716     1.0  0.58786  0.92389  0.83543  1.0000
  C   C1717     1.0  0.78810  0.81314  0.51357  1.0000
  C   C1718     1.0  0.58520  0.75095  0.98283  1.0000
  H   H3050     1.0  0.81849  0.79874  0.51420  1.0000
  S   S384      1.0  0.96047  0.75122  0.57952  1.0000
  H   H3051     1.0  0.69938  0.88319  0.50307  1.0000
  H   H3052     1.0  0.80140  0.79069  0.53486  1.0000
  C   C1719     1.0  0.52239  0.77259  0.95573  1.0000
  H   H3053     1.0  0.51188  0.80505  0.74301  1.0000
  C   C1720     1.0  0.97587  0.75554  0.52405  1.0000
  C   C1721     1.0  0.51862  0.78292  0.93457  1.0000
  Fe  Fe192     1.0  0.92682  0.75302  0.58947  1.0000
  N   N96       1.0  0.51344  0.75204  0.95968  1.0000
  H   H3054     1.0  0.76600  0.91486  0.49508  1.0000
  H   H3055     1.0  0.66194  0.74615  0.91692  1.0000
  C   C1722     1.0  0.98264  0.75650  0.59250  1.0000
  H   H3056     1.0  0.95416  0.75699  0.67000  1.0000
  H   H3057     1.0  0.51136  0.79320  0.77963  1.0000
  C   C1723     1.0  0.71325  0.98606  0.66277  1.0000
  H   H3058     1.0  0.88334  0.77234  0.49882  1.0000
  H   H3059     1.0  0.55576  0.96563  0.73948  1.0000
  H   H3060     1.0  0.66736  0.75271  0.96221  1.0000
  H   H3061     1.0  0.53914  0.77140  0.95774  1.0000
  C   C1724     1.0  0.51281  0.80956  0.77554  1.0000
  H   H3062     1.0  0.59085  0.93302  0.84859  1.0000
  C   C1725     1.0  0.56937  0.93384  0.82523  1.0000
  H   H3063     1.0  0.59535  0.98380  0.72880  1.0000
  H   H3064     1.0  0.54747  0.79797  0.93188  1.0000
  H   H3065     1.0  0.50438  0.81954  0.85508  1.0000
  H   H3066     1.0  0.55618  0.93430  0.83621  1.0000
  H   H3067     1.0  0.72742  0.98377  0.67125  1.0000
  H   H3068     1.0  0.78932  0.81631  0.49693  1.0000
  H   H3069     1.0  0.71725  0.98975  0.64655  1.0000
  C   C1726     1.0  0.82966  0.74627  0.64925  1.0000
  H   H3070     1.0  0.55903  0.99272  0.73843  1.0000
  H   H3071     1.0  0.62099  0.99300  0.67775  1.0000
  C   C1727     1.0  0.60758  0.99256  0.68849  1.0000
  H   H3072     1.0  0.56803  0.99185  0.70170  1.0000
  C   C1728     1.0  0.51990  0.74428  0.98040  1.0000
