data_image0
_chemical_formula_structural       H4S2CH2S2FeSHCFeSC2H3CSCHC2HC6H9CH5CH2C3HCH4SHCH6CH4C2HCH2CH3SCHCH4CH3CH2C2FeHCH2C2H2NHCH4SH2SHC2HFeH3C2H11SCH2C2NH2C2H3CHSH2C2H3CHCNC3H3CHCSCFeC2HFeHCH3CHC2HCH5CS2H4C5HC2H4CHCSHSHFeSCH2CH2SHFeS2C8H6FeH2CHC2H2C2H5C2H2C5H3C3H2C3SHCHFeHCSHNH3CH6NC2H2C2H2CH2CFeH2CH5CFeHCHCH4CH4C2H5C2HSCHC2H3CH4C2H5SH3CSCHCH2C2H7NHCH2CHFeC2H2CHCHSCHCH2CH4CHCHCHSCH6NH3SHSH2CNCHCHC2H2FeCSHC2H2CHCSH4FeSH3SHCSCFeSHSH3FeSCHC2FeS2FeSCHS2HFeS2C2H2CH3SC6H3C2HC2NCHC3SH2CSH2C2H3C2HCHC6H6C2HCHCHFeHCH5CFeCH2C2NSHSHCHC2SH3C3H2S3CH2CH4FeH5CH7C4FeH2CH2CH3SCH4C4NCHCH2CH3NC6HC3SH11FeC2H6CNC3H2C4H5FeH10CHCH2C2H14CH5SHCFeC2H8SHCH3C2H5C2H3CH3C4FeSCFeHFeSFeS2H2FeS2FeS2HFeSHCHFeSCFeHSHCSHFeSHC2HC2H3CHCH2CHC6H8C2HCFeHFeCNC3SH2SH2C6H14CH5C2H2CH3C2H2NCFeC4H3C2HCH7CHSCH4NH3NC8HC2SH26CSHC3H3CH3CHCH4CH2C3HSH2CHC5H4C2H4C2H3C5H6CSC2HCH3CH4C2HCSH2SH3CH2CHS2H3CFeCSCH3CH2CH3CSH2C2FeH2CH2SH2CHFeS2FeS2HCSCHFeSFeSHSH2FeSCSCH3CH3C6H5CH5C3HCH4SHCH2SFeCH3C6H4C2H5FeCH4CHC4HC3FeHC2H2SHSH5SC2H4CH2SH2CNCH2CH5NSHC2H4C2H2CHCHC2HCH2C2SH3CH2CH5CH4C2H2CH4CNH8CH2C2HCH4SCHC2H2SH5CHCNC7HC4H17SHC4H5CH3CH5C2NC2H5CH2C3H6C2HSHC2HFeSCSHFeS2FeHSFeCFeS2CHNHCHCHC2HC3NH3C6H4CH2SC2H5C2HC6H4CH2C2HCSC3HCH6CH2CH4FeHCHCSHCHCH2C2H3NC9HC2H19CH5FeH3CH3CH2C4SCHSHCHNH4SHC2H2C2HSCH2CH7NHC2HC2HCHNH3CH3CH9CH2CFeH2C2H3SH3SCH2SHCH4CHCH2CSCHCH3SCH3C2HCHSNFeHFe2H2CHCHSH4FeH2CH2SH4CH2CH2CHFeHCH3C2H2SHFeSCFeSNSHFeS2HFeSFeCS2HSCFeSFeSCH3CHSC6H4CH3NCHC3HCSHC5H3CHC5H3C3HFeC2H3CH2CNC4HCSC4H9NH10SCHSHFeCH2NC11H27C3H2CHC4H5FeH4CHCHCHCH3CHCH4S2HCH3CHSC2H5S2H2C2SH3CHC3HC2HFeH4C2H3C2HFeCHC2H3CH6C2H7SHFeHSHSH2FeCH2SFe2HCSHSH2SFeSFeSHCSH2FeSH2CH2C6H6CHC3HCH6C4HCHSNHCHCH3C2HCH2C2SNC10HCH5CH4CH11CH3SCSC2H2CH2SHCHCH2C2SHCHSH2C3H2NCSHC3HFeC3H3CHCHFeCH8FeC2HCFeH2SCHCNC8HC2H16CH9CH13SC2H5Fe2HCHC4HCH3CH5FeSFeSFeS2FeS2FeSFeS3CSHCSHSHSHCH2CH5CH6NHC6H4C6H4C6H4FeC3H2CHNH2C2H7C2H3NHCH5CH10NH4CHCSH4SCHCH2CH7CH3NC8NC2H7CH7CHC2H8CHC2H2C2H2C2H3CH2CH3FeHC2HC4H3CHC2HCFeHNC12H20C2H2CH2CH2CHCH6CFeH3CH2CHC2H3CNH4CH2CHCHCSCH5CH4CH7C2H3SH6CHNHCH4CH3CHFeSHFeS2FeS2FeSFeS3FeHSHC2H2CHSHS2FeH5C2HCH3C2H3CHCHC6H4C6H4C6H7NHCHC2HSH6CNH3CH4CHSH3NC8HC2H15C2HFeH4SHNC7HCH15CH4C2HSCHCHNCHC4H2C3FeH3C2H7CHNH5C2H2CH3C2H4C3HCH5CH2CHCH6CH7CH2SC2H2SH3C3H5CHFeHSH3CHC2H2CHCH2CH6SHSHCHCSFeS2FeS2H3CHFeS2FeS2FeSFeS3H2C7H3C6H5C6H4CH3CHCFeHCHNHNH4CHCH7CH2CHCHNCHC2H12C2H3C2HC2HCH4C2H11CH9CH2CSCH2SCHC5HC3H4CH2CHCH5C2H2CH3CHCHCSCH5CH3FeH4FeC3H3FeS2FeS2FeSFeS3NH2FeSH2FeS2NHC6H4C6H4C4SCH4C3H11SH9SCHCHCHCHCH6CH2C3HSH3FeCHC2HC3H7CHC2HCHCH2CH3C3H4CH2CH3C2H5CH3CHCH2CH4C2H4CH3C2HNHC2HNHCSH5CH2CH2CFeCH5C2H2CHCHC3H3CH6CHSCH4CSC2H3CHC2H3FeS2FeS2FeSFeS5H3FeSH3C7H4C6H4C6H4C6H3C2H3C4SH6CH4C2H4CH4CH2CH2NH6CHCH2NH3CFeH4CSHCHNH4CHCHCHCHCH4CH3CH3CHCH3CH3FeHCH9CHCHNH4C4NC12H18CHCH3CHCH2CH2CHSH10CHCH8CSFeSCFeS2FeS2FeSFeS3HSCFeHSFeSC6H4C6H4C6H4C6H4C2H2C2HCH4CH4CH7CH5C3H7CH5CH3CHCH2SH2CNH3CH10NH6CH3CH2C2HNC11H20CH3NHCH2CH2C2H2CH4CHC3H3CHNHC2H2CH2CFeCH2CFeHSHFeSFeS2FeSFeS2CHCFeSHFeS2FeHFeSCSH2SHC2HSH4CH2CHCHCHC6H4C6H2C6H4C6H2CH2SHNC12H28CHNH6CSHC3NHC2H2CHCH2CH2CHCH2SC2H2CSH2C3H3CSC2H2C2NCSH4S2H3CH5CH6C2H4CHCH2FeH7CH5CHCH2CH4C2NH2SH4CH5SH2SHCHCHFeCH2CH2SCHCH4CH2C3H3C2H2C2H3CH3FeHCHFeSFeSHFeS2FeSFeS3FeS2HC3FeS2H2CHSCH2C2SHC4HCH2C2H3CH2C8H4C6H4C7H3CFeH5NC11H26CH2NC9H19SHCHSHC3H3SHCHCHSH3CHCHCH7CHC3NC5HCH3FeCH9CH5NC2H3C2H3CH8CH2CSH4NCHCH2CH2FeH11CH2C3FeSHCH3SH2SHCHFeHSHCH2CHCH2C2H2CH2FeS2H2SHFeSC2HS2CHSHCH2CHC6H6NH4CHSHCHC6H6CH3CH2CHCHCHCHC3H4SH2SHCSHCH4CH2SC2HC2H4SH2FeC2H5CFeSHNHCH2CHCHCNCH9CH2C2HCH3C4FeH2CH3C2H3CH3CHC2H4FeCH3CH3CH2C2H2FeH2NH3CH4CH7CH2CH5SH4CHCHCHCH2C2H2C2HCHCH2CHSFeSH2C2SH3FeHSHSHS2HSH4C7H7C2HCHSHCSH3C2HC6HFeHC2H2CH2CHCHNCH3CH4SHCH4NCHCH2FeCH3C2H12CH8C2HCH3NHC4SC4HCHSH8CH12CH2C3H2CHCH2FeCHCH2CH2NH6CH2CNHSCH3CHCH2CFeCH2CH6NH4CH4CHC3HC4HSH3C2H4CH2FeSHFeSHCSHFeSNFeS3H2CFeSH3SH3CSC3H2C2H3FeS2HFeNH3C6H4CH2CHCH2C6HCHCH4CH2CFeHCH2C3H4CHCHNC9H20NC12H21CH8CH3C2H2SH2C2H2CSH2C2H2SCS2H3CSCSC2H2C2H13CHCH3CH2CH3CSHCH2FeCHCHC2FeC3H4CH2CHC2SHCHCH4CHC2HCFeH5CFeH3FeHC2HSHC3NH3SCFeCHS2C2SFeSHCSC2FeHSFeSFeCS2FeS2H6CSCHC6H4CH3C2HSH2C4H2CHC3HFeCH5C2FeC3H4FeHCSH3SH4CHC2H3CH4CH5CH3CH2CH2NC3HC2HCH3CNSCFeC2HSH8CHCHC2H3CHN2H4CHCH4CH6CNCHC5HC4H3CH10C2H7CH6C2HCH6CH2C3H3C2H6CSCH3CFeHCFeHCH2C3H2FeH2CH2CH2NCSCHCHSCH2CHCH2CH3CHNH3CSHC2HC2HSH9CHSHC2HCH6CSCH2CHCH2SCH3SCFeHSC2H3S2CFeSH2S3CH3CH3C6H4CHC2HSCH3C6H5CH7CH7C2H4CFeHC2H2NCH2C3HSHC2H3CH2CH6CFeCH3CH6CHCNSC8HC3H6SH6CH2SH6Fe2HCHCHCH2CH10C2NC2SC5HC3H2CH14CH2CHSH6CH5CFeSHSCHCHFeCHC2SFeSCHSCFe2SH2SCHCS2HC6H4FeC2H2CSH3C6H6CHCH7CNC2HC3HCHC2H6CH4SH3SHCSH4CH5NC7HCH14CH5SCHCHCNHNC8H2C2H17CSFeCH9C2HCHCH4C2FeHSHCH6CH3CHC2H3CH7SC2H2CH4CHCHCHC2H4C5H2FeHFeS2HS2FeSHFeS2HFe2HSC2S2HSCHFeSCHFeH2C6H5CH2C2NH2C3HC4H3C6H4FeC2H2C2SH4SCH8C2H2CH5CH4C2H3NH3C2H9CH9C2H2CNH3SCHC2HCHCH5CHFeHC3H4C3HSH2NSCHC2H2CH4CH3CH3C2H5CHCH3C2H4CH3SC2H2CHCH2CSH4CH6NH3C2H3CHFeHCHCH2CFeH7CHC2SNHC4H2C2FeH2C3NHCSCHSHCHCSFeCSCHS2H2FeSCS2HSH2FeS2CH2SCH2SCHFeSH4FeH2C6H4FeC4H3FeC6H2CHC6H4CH4CSHCHSCNHCHCH10CH5CH2C2HNH2C2HC3HCH10CH3CHSHC3H2C2NC2FeH3C3HCHCHFeHCSH2C2HCH2CH2CHSH2CH4SH11C2H3NFeC2H2SCSCH4C5H6SH4SH2CHCH2C2H3CH2
_chemical_formula_sum              "H3840 S480 C2160 Fe240 N120"
_cell_length_a       64.0139
_cell_length_b       64.0771
_cell_length_c       64.0135
_cell_angle_alpha    87.2017
_cell_angle_beta     86.5423
_cell_angle_gamma    86.6979

_space_group_name_H-M_alt    "P 1"
_space_group_IT_number       1

loop_
  _space_group_symop_operation_xyz
  'x, y, z'

loop_
  _atom_site_type_symbol
  _atom_site_label
  _atom_site_symmetry_multiplicity
  _atom_site_fract_x
  _atom_site_fract_y
  _atom_site_fract_z
  _atom_site_occupancy
  H   H1        1.0  0.07195  0.18072  0.43142  1.0000
  H   H2        1.0  0.07968  0.04186  0.34763  1.0000
  H   H3        1.0  0.21723  0.22338  0.48226  1.0000
  H   H4        1.0  0.29716  0.00125  0.20769  1.0000
  S   S1        1.0  0.29782  0.02643  0.10690  1.0000
  S   S2        1.0  0.31167  0.99959  0.16142  1.0000
  C   C1        1.0  0.19157  0.05684  0.29479  1.0000
  H   H5        1.0  0.15633  0.09395  0.20240  1.0000
  H   H6        1.0  0.32484  0.04403  0.47239  1.0000
  S   S3        1.0  0.01040  0.10754  0.33525  1.0000
  S   S4        1.0  0.13695  0.03928  0.31887  1.0000
  Fe  Fe1       1.0  0.00621  0.22686  0.47029  1.0000
  S   S5        1.0  0.03808  0.14365  0.31001  1.0000
  H   H7        1.0  0.13320  0.03492  0.23131  1.0000
  C   C2        1.0  0.01922  0.16712  0.39043  1.0000
  Fe  Fe2       1.0  0.02945  0.11063  0.30475  1.0000
  S   S6        1.0  0.04806  0.08086  0.29427  1.0000
  C   C3        1.0  0.13924  0.22935  0.49259  1.0000
  C   C4        1.0  0.29909  0.09426  0.48746  1.0000
  H   H8        1.0  0.04014  0.15491  0.41380  1.0000
  H   H9        1.0  0.29486  0.04370  0.15932  1.0000
  H   H10       1.0  0.33062  0.07759  0.45115  1.0000
  C   C5        1.0  0.17362  0.02360  0.24116  1.0000
  S   S7        1.0  0.26473  0.17099  0.00667  1.0000
  C   C6        1.0  0.13767  0.04012  0.24660  1.0000
  H   H11       1.0  0.10247  0.21117  0.41170  1.0000
  C   C7        1.0  0.09451  0.22670  0.41483  1.0000
  C   C8        1.0  0.30556  0.03322  0.20631  1.0000
  H   H12       1.0  0.12656  0.01993  0.37518  1.0000
  C   C9        1.0  0.11221  0.05043  0.31170  1.0000
  C   C10       1.0  0.10810  0.07215  0.31298  1.0000
  C   C11       1.0  0.08856  0.08172  0.30782  1.0000
  C   C12       1.0  0.07288  0.06965  0.30126  1.0000
  C   C13       1.0  0.07708  0.04794  0.29976  1.0000
  C   C14       1.0  0.09661  0.03835  0.30497  1.0000
  H   H13       1.0  0.12010  0.08166  0.31805  1.0000
  H   H14       1.0  0.08570  0.09847  0.30873  1.0000
  H   H15       1.0  0.06512  0.03847  0.29453  1.0000
  H   H16       1.0  0.09955  0.02163  0.30383  1.0000
  H   H17       1.0  0.07090  0.13497  0.34873  1.0000
  H   H18       1.0  0.01873  0.05030  0.32703  1.0000
  H   H19       1.0  0.31696  0.08350  0.14430  1.0000
  H   H20       1.0  0.05103  0.06517  0.33898  1.0000
  H   H21       1.0  0.05930  0.10080  0.34075  1.0000
  C   C15       1.0  0.01607  0.19999  0.21113  1.0000
  H   H22       1.0  0.22767  0.19239  0.02502  1.0000
  H   H23       1.0  0.26101  0.99998  0.20459  1.0000
  H   H24       1.0  0.02041  0.17277  0.23225  1.0000
  H   H25       1.0  0.03085  0.22393  0.07870  1.0000
  H   H26       1.0  0.04855  0.21146  0.44082  1.0000
  C   C16       1.0  0.30886  0.04284  0.08617  1.0000
  H   H27       1.0  0.11126  0.01740  0.35286  1.0000
  H   H28       1.0  0.03018  0.24115  0.43366  1.0000
  C   C17       1.0  0.32882  0.03859  0.07667  1.0000
  C   C18       1.0  0.30534  0.07457  0.06310  1.0000
  C   C19       1.0  0.29719  0.06089  0.07919  1.0000
  H   H29       1.0  0.03479  0.23877  0.10137  1.0000
  C   C20       1.0  0.07942  0.12070  0.35513  1.0000
  H   H30       1.0  0.18972  0.02716  0.23492  1.0000
  H   H31       1.0  0.28167  0.06433  0.08627  1.0000
  H   H32       1.0  0.02289  0.19208  0.19760  1.0000
  H   H33       1.0  0.05444  0.18020  0.46689  1.0000
  S   S8        1.0  0.02908  0.14862  0.37176  1.0000
  H   H34       1.0  0.06864  0.22363  0.45234  1.0000
  C   C21       1.0  0.11033  0.02037  0.36985  1.0000
  H   H35       1.0  0.16177  0.07908  0.17935  1.0000
  H   H36       1.0  0.09544  0.04022  0.25807  1.0000
  H   H37       1.0  0.09342  0.11716  0.34451  1.0000
  H   H38       1.0  0.19853  0.03674  0.26920  1.0000
  H   H39       1.0  0.02488  0.06230  0.42466  1.0000
  H   H40       1.0  0.32061  0.06998  0.16912  1.0000
  C   C22       1.0  0.06494  0.10248  0.35664  1.0000
  H   H41       1.0  0.03866  0.20791  0.36724  1.0000
  H   H42       1.0  0.08446  0.12398  0.37088  1.0000
  H   H43       1.0  0.04892  0.04714  0.39664  1.0000
  H   H44       1.0  0.23862  0.01204  0.23526  1.0000
  C   C23       1.0  0.06090  0.24674  0.41836  1.0000
  C   C24       1.0  0.02794  0.16668  0.41017  1.0000
  H   H45       1.0  0.06344  0.19327  0.36318  1.0000
  C   C25       1.0  0.06535  0.22274  0.37870  1.0000
  H   H46       1.0  0.31584  0.03233  0.19175  1.0000
  H   H47       1.0  0.28399  0.06540  0.48341  1.0000
  C   C26       1.0  0.23066  0.19977  0.00966  1.0000
  H   H48       1.0  0.17607  0.01373  0.25566  1.0000
  H   H49       1.0  0.18321  0.07206  0.29825  1.0000
  H   H50       1.0  0.18214  0.21893  0.48758  1.0000
  S   S9        1.0  0.32363  0.14845  0.01550  1.0000
  C   C27       1.0  0.29447  0.07327  0.49265  1.0000
  H   H51       1.0  0.19319  0.24220  0.45753  1.0000
  C   C28       1.0  0.15787  0.24333  0.48991  1.0000
  H   H52       1.0  0.04694  0.20866  0.40467  1.0000
  H   H53       1.0  0.17048  0.04738  0.20083  1.0000
  H   H54       1.0  0.13378  0.02707  0.25813  1.0000
  H   H55       1.0  0.20321  0.22125  0.01240  1.0000
  C   C29       1.0  0.05670  0.06196  0.39242  1.0000
  H   H56       1.0  0.03052  0.24016  0.40565  1.0000
  H   H57       1.0  0.15963  0.01691  0.21143  1.0000
  H   H58       1.0  0.04067  0.02994  0.35287  1.0000
  C   C30       1.0  0.16706  0.06141  0.23142  1.0000
  H   H59       1.0  0.31158  0.04479  0.21649  1.0000
  H   H60       1.0  0.15034  0.00153  0.23390  1.0000
  C   C31       1.0  0.05567  0.20924  0.36316  1.0000
  C   C32       1.0  0.03440  0.07631  0.42314  1.0000
  Fe  Fe3       1.0  0.00848  0.15433  0.29371  1.0000
  H   H61       1.0  0.08003  0.16709  0.46689  1.0000
  C   C33       1.0  0.06353  0.21251  0.40114  1.0000
  H   H62       1.0  0.02505  0.04177  0.37409  1.0000
  H   H63       1.0  0.09849  0.04369  0.39100  1.0000
  C   C34       1.0  0.07149  0.18255  0.46468  1.0000
  C   C35       1.0  0.06566  0.21377  0.43909  1.0000
  H   H64       1.0  0.12631  0.07327  0.24214  1.0000
  H   H65       1.0  0.02440  0.09000  0.42852  1.0000
  N   N1        1.0  0.07115  0.22493  0.41834  1.0000
  H   H66       1.0  0.14414  0.05787  0.20742  1.0000
  C   C36       1.0  0.16557  0.04908  0.26818  1.0000
  H   H67       1.0  0.02733  0.18026  0.44059  1.0000
  H   H68       1.0  0.14270  0.21461  0.48430  1.0000
  H   H69       1.0  0.18436  0.06260  0.23056  1.0000
  H   H70       1.0  0.24094  0.23750  0.03430  1.0000
  S   S10       1.0  0.32662  0.23466  0.48713  1.0000
  H   H71       1.0  0.07048  0.06135  0.40221  1.0000
  H   H72       1.0  0.26574  0.22657  0.02388  1.0000
  S   S11       1.0  0.00261  0.18537  0.27394  1.0000
  H   H73       1.0  0.29200  0.10237  0.47422  1.0000
  C   C37       1.0  0.01306  0.04744  0.34364  1.0000
  C   C38       1.0  0.09933  0.04174  0.37388  1.0000
  H   H74       1.0  0.20845  0.05792  0.29746  1.0000
  Fe  Fe4       1.0  0.01722  0.14111  0.33980  1.0000
  H   H75       1.0  0.09759  0.05262  0.23208  1.0000
  H   H76       1.0  0.09413  0.19252  0.44105  1.0000
  H   H77       1.0  0.16065  0.07662  0.23746  1.0000
  C   C39       1.0  0.00923  0.22128  0.20879  1.0000
  C   C40       1.0  0.00055  0.23118  0.22661  1.0000
  H   H78       1.0  0.19565  0.06421  0.26196  1.0000
  H   H79       1.0  0.07236  0.19708  0.40034  1.0000
  H   H80       1.0  0.12349  0.06288  0.26876  1.0000
  H   H81       1.0  0.15719  0.06407  0.27254  1.0000
  H   H82       1.0  0.05751  0.21650  0.34709  1.0000
  H   H83       1.0  0.10948  0.05375  0.36630  1.0000
  H   H84       1.0  0.08929  0.06788  0.25432  1.0000
  H   H85       1.0  0.08844  0.07843  0.35122  1.0000
  H   H86       1.0  0.28954  0.03873  0.20202  1.0000
  H   H87       1.0  0.00383  0.03324  0.34472  1.0000
  H   H88       1.0  0.00328  0.11381  0.24052  1.0000
  S   S12       1.0  0.03380  0.21634  0.48896  1.0000
  C   C41       1.0  0.30474  0.01175  0.21780  1.0000
  H   H89       1.0  0.15969  0.03693  0.27976  1.0000
  H   H90       1.0  0.18271  0.08347  0.19593  1.0000
  C   C42       1.0  0.16105  0.06023  0.20848  1.0000
  C   C43       1.0  0.02081  0.18114  0.42538  1.0000
  N   N2        1.0  0.16085  0.04356  0.24632  1.0000
  H   H91       1.0  0.10182  0.00770  0.37852  1.0000
  H   H92       1.0  0.05706  0.23839  0.37782  1.0000
  C   C44       1.0  0.18902  0.05143  0.27212  1.0000
  C   C45       1.0  0.03154  0.04430  0.35777  1.0000
  H   H93       1.0  0.13635  0.22130  0.42585  1.0000
  H   H94       1.0  0.05097  0.09491  0.39981  1.0000
  H   H95       1.0  0.02816  0.08321  0.39105  1.0000
  C   C46       1.0  0.32548  0.07056  0.05392  1.0000
  H   H96       1.0  0.07617  0.19297  0.47676  1.0000
  S   S13       1.0  0.01130  0.23427  0.18320  1.0000
  H   H97       1.0  0.08593  0.08516  0.37774  1.0000
  H   H98       1.0  0.06916  0.02925  0.37103  1.0000
  C   C47       1.0  0.16579  0.08045  0.19585  1.0000
  C   C48       1.0  0.07686  0.19182  0.44272  1.0000
  H   H99       1.0  0.29613  0.08837  0.05801  1.0000
  H   H100      1.0  0.18520  0.04455  0.30582  1.0000
  H   H101      1.0  0.29043  0.05989  0.13592  1.0000
  C   C49       1.0  0.12261  0.05918  0.25210  1.0000
  H   H102      1.0  0.12525  0.23764  0.48592  1.0000
  C   C50       1.0  0.29539  0.05982  0.15226  1.0000
  N   N3        1.0  0.06370  0.06301  0.36948  1.0000
  C   C51       1.0  0.04532  0.06350  0.35570  1.0000
  C   C52       1.0  0.07666  0.08182  0.36422  1.0000
  C   C53       1.0  0.07721  0.04342  0.36490  1.0000
  H   H103      1.0  0.00255  0.06095  0.34855  1.0000
  H   H104      1.0  0.00969  0.22841  0.09817  1.0000
  H   H105      1.0  0.05116  0.10682  0.36707  1.0000
  C   C54       1.0  0.20820  0.15175  0.00449  1.0000
  H   H106      1.0  0.03467  0.07741  0.35839  1.0000
  C   C55       1.0  0.16438  0.00869  0.22611  1.0000
  S   S14       1.0  0.31862  0.13099  0.49114  1.0000
  C   C56       1.0  0.04219  0.08044  0.40035  1.0000
  Fe  Fe5       1.0  0.32388  0.11346  0.01156  1.0000
  C   C57       1.0  0.01456  0.18890  0.23083  1.0000
  C   C58       1.0  0.00334  0.18235  0.38607  1.0000
  H   H107      1.0  0.32794  0.04728  0.12779  1.0000
  Fe  Fe6       1.0  0.15059  0.00557  0.31619  1.0000
  H   H108      1.0  0.20073  0.13677  0.00866  1.0000
  C   C59       1.0  0.09987  0.05462  0.24891  1.0000
  H   H109      1.0  0.04780  0.07395  0.43341  1.0000
  H   H110      1.0  0.01659  0.13453  0.22628  1.0000
  H   H111      1.0  0.28402  0.07015  0.16129  1.0000
  C   C60       1.0  0.00508  0.19654  0.42091  1.0000
  H   H112      1.0  0.19687  0.16490  0.00863  1.0000
  C   C61       1.0  0.21667  0.21618  0.00251  1.0000
  C   C62       1.0  0.31735  0.06790  0.15253  1.0000
  H   H113      1.0  0.22214  0.15266  0.01386  1.0000
  C   C63       1.0  0.02341  0.23544  0.08967  1.0000
  H   H114      1.0  0.08204  0.22440  0.37346  1.0000
  H   H115      1.0  0.09807  0.23656  0.40040  1.0000
  H   H116      1.0  0.26522  0.24713  0.04218  1.0000
  H   H117      1.0  0.10332  0.22724  0.44780  1.0000
  H   H118      1.0  0.13636  0.24452  0.44067  1.0000
  C   C64       1.0  0.32697  0.00292  0.22266  1.0000
  S   S15       1.0  0.18506  0.00018  0.32160  1.0000
  S   S16       1.0  0.00136  0.12134  0.28631  1.0000
  H   H119      1.0  0.29498  0.01404  0.23247  1.0000
  H   H120      1.0  0.23654  0.19119  0.49411  1.0000
  H   H121      1.0  0.23825  0.00621  0.39534  1.0000
  H   H122      1.0  0.23069  0.24113  0.49646  1.0000
  C   C65       1.0  0.00569  0.19873  0.24860  1.0000
  C   C66       1.0  0.10548  0.23644  0.43277  1.0000
  C   C67       1.0  0.12905  0.23730  0.42768  1.0000
  C   C68       1.0  0.21671  0.23136  0.49736  1.0000
  C   C69       1.0  0.25719  0.24123  0.02892  1.0000
  H   H123      1.0  0.32327  0.04147  0.44467  1.0000
  C   C70       1.0  0.00122  0.12739  0.22923  1.0000
  C   C71       1.0  0.03665  0.24823  0.41874  1.0000
  H   H124      1.0  0.28354  0.99854  0.28040  1.0000
  H   H125      1.0  0.13219  0.24696  0.41305  1.0000
  H   H126      1.0  0.16018  0.24759  0.47296  1.0000
  H   H127      1.0  0.99932  0.02286  0.30314  1.0000
  C   C72       1.0  0.24459  0.09598  0.95438  1.0000
  H   H128      1.0  0.00964  0.19822  0.68124  1.0000
  C   C73       1.0  0.25436  0.11745  0.94955  1.0000
  S   S17       1.0  0.00271  0.11009  0.71091  1.0000
  H   H129      1.0  0.25530  0.10811  0.55406  1.0000
  S   S18       1.0  0.31336  0.15440  0.96576  1.0000
  H   H130      1.0  0.26707  0.06301  0.54167  1.0000
  Fe  Fe7       1.0  0.31406  0.11910  0.96493  1.0000
  S   S19       1.0  0.30738  0.10582  0.93332  1.0000
  C   C74       1.0  0.20546  0.04379  0.52493  1.0000
  H   H131      1.0  0.19594  0.04836  0.72121  1.0000
  H   H132      1.0  0.01985  0.20742  0.84504  1.0000
  C   C75       1.0  0.21996  0.22577  0.98253  1.0000
  H   H133      1.0  0.26280  0.07959  0.92958  1.0000
  H   H134      1.0  0.22199  0.12114  0.97798  1.0000
  S   S20       1.0  0.02975  0.14825  0.68863  1.0000
  H   H135      1.0  0.18142  0.14889  0.92731  1.0000
  Fe  Fe8       1.0  0.02701  0.11384  0.68411  1.0000
  S   S21       1.0  0.05472  0.09190  0.67290  1.0000
  S   S22       1.0  0.12012  0.02493  0.71402  1.0000
  C   C76       1.0  0.32998  0.19342  0.58579  1.0000
  C   C77       1.0  0.00619  0.16783  0.60253  1.0000
  C   C78       1.0  0.07302  0.07378  0.68488  1.0000
  C   C79       1.0  0.07290  0.06981  0.70657  1.0000
  C   C80       1.0  0.08756  0.05497  0.71517  1.0000
  C   C81       1.0  0.10248  0.04389  0.70226  1.0000
  C   C82       1.0  0.10267  0.04793  0.68058  1.0000
  C   C83       1.0  0.08802  0.06275  0.67198  1.0000
  H   H136      1.0  0.06150  0.07816  0.71670  1.0000
  H   H137      1.0  0.08730  0.05204  0.73197  1.0000
  H   H138      1.0  0.11412  0.03966  0.67045  1.0000
  H   H139      1.0  0.08829  0.06573  0.65519  1.0000
  H   H140      1.0  0.26389  0.15571  0.96258  1.0000
  H   H141      1.0  0.19472  0.05191  0.74904  1.0000
  Fe  Fe9       1.0  0.00411  0.15414  0.66602  1.0000
  H   H142      1.0  0.28479  0.04225  0.56282  1.0000
  H   H143      1.0  0.19857  0.06679  0.62268  1.0000
  C   C84       1.0  0.24621  0.06823  0.57031  1.0000
  H   H144      1.0  0.20494  0.02662  0.52341  1.0000
  C   C85       1.0  0.19389  0.15625  0.91712  1.0000
  C   C86       1.0  0.04448  0.22281  0.66350  1.0000
  H   H145      1.0  0.05111  0.03040  0.70860  1.0000
  H   H146      1.0  0.02569  0.17414  0.78322  1.0000
  C   C87       1.0  0.00340  0.20495  0.69597  1.0000
  C   C88       1.0  0.21332  0.15856  0.92937  1.0000
  H   H147      1.0  0.01427  0.18005  0.84698  1.0000
  H   H148      1.0  0.07564  0.20136  0.72806  1.0000
  H   H149      1.0  0.02740  0.22421  0.66126  1.0000
  H   H150      1.0  0.23153  0.04790  0.73578  1.0000
  H   H151      1.0  0.19783  0.14658  0.90334  1.0000
  C   C89       1.0  0.23770  0.21881  0.97006  1.0000
  C   C90       1.0  0.25551  0.07482  0.54809  1.0000
  H   H152      1.0  0.22370  0.22084  0.52957  1.0000
  H   H153      1.0  0.24060  0.22611  0.95464  1.0000
  C   C91       1.0  0.31154  0.08050  0.92273  1.0000
  C   C92       1.0  0.30557  0.07761  0.90226  1.0000
  C   C93       1.0  0.30827  0.05785  0.89323  1.0000
  C   C94       1.0  0.31699  0.04062  0.90459  1.0000
  C   C95       1.0  0.01369  0.20600  0.78774  1.0000
  H   H154      1.0  0.19469  0.24133  0.53398  1.0000
  H   H155      1.0  0.29875  0.09077  0.89332  1.0000
  H   H156      1.0  0.30357  0.05596  0.87752  1.0000
  C   C96       1.0  0.22907  0.01761  0.72076  1.0000
  C   C97       1.0  0.05519  0.21455  0.64331  1.0000
  C   C98       1.0  0.04804  0.24057  0.73234  1.0000
  H   H157      1.0  0.01298  0.21795  0.61433  1.0000
  H   H158      1.0  0.03544  0.20105  0.73490  1.0000
  C   C99       1.0  0.00993  0.19035  0.57046  1.0000
  C   C100      1.0  0.04324  0.19696  0.71957  1.0000
  C   C101      1.0  0.26683  0.15690  0.92881  1.0000
  S   S23       1.0  0.32111  0.01524  0.89412  1.0000
  H   H159      1.0  0.24181  0.18729  0.52140  1.0000
  C   C102      1.0  0.32180  0.09407  0.51624  1.0000
  H   H160      1.0  0.26548  0.19780  0.96764  1.0000
  Fe  Fe10      1.0  0.00389  0.14540  0.71409  1.0000
  H   H161      1.0  0.25792  0.07122  0.58185  1.0000
  C   C103      1.0  0.00456  0.18413  0.75925  1.0000
  S   S24       1.0  0.00920  0.19296  0.54261  1.0000
  H   H162      1.0  0.28093  0.14604  0.92996  1.0000
  N   N4        1.0  0.04072  0.21495  0.70371  1.0000
  H   H163      1.0  0.01807  0.03503  0.67555  1.0000
  H   H164      1.0  0.27965  0.07618  0.69486  1.0000
  H   H165      1.0  0.30488  0.00848  0.56216  1.0000
  C   C104      1.0  0.02466  0.03853  0.69057  1.0000
  H   H166      1.0  0.29528  0.05231  0.69068  1.0000
  H   H167      1.0  0.33012  0.22907  0.56194  1.0000
  H   H168      1.0  0.08520  0.00920  0.68297  1.0000
  H   H169      1.0  0.26079  0.02597  0.74577  1.0000
  H   H170      1.0  0.24254  0.03899  0.54044  1.0000
  H   H171      1.0  0.02446  0.24345  0.93843  1.0000
  N   N5        1.0  0.23985  0.13669  0.95247  1.0000
  C   C105      1.0  0.01137  0.20464  0.60493  1.0000
  C   C106      1.0  0.06606  0.18878  0.72318  1.0000
  H   H172      1.0  0.23722  0.03610  0.61948  1.0000
  H   H173      1.0  0.03504  0.18330  0.71482  1.0000
  C   C107      1.0  0.23101  0.03792  0.55402  1.0000
  C   C108      1.0  0.20824  0.05269  0.62770  1.0000
  H   H174      1.0  0.06961  0.23032  0.70692  1.0000
  H   H175      1.0  0.27434  0.07763  0.95478  1.0000
  C   C109      1.0  0.19917  0.04063  0.73668  1.0000
  H   H176      1.0  0.00374  0.15255  0.60993  1.0000
  H   H177      1.0  0.07250  0.21369  0.64415  1.0000
  C   C110      1.0  0.23922  0.19931  0.50858  1.0000
  Fe  Fe11      1.0  0.01208  0.22007  0.51791  1.0000
  H   H178      1.0  0.21297  0.05471  0.64386  1.0000
  H   H179      1.0  0.07359  0.18220  0.70869  1.0000
  C   C111      1.0  0.26636  0.09545  0.54817  1.0000
  H   H180      1.0  0.18930  0.02694  0.73945  1.0000
  H   H181      1.0  0.19678  0.04266  0.55772  1.0000
  H   H182      1.0  0.24337  0.13487  0.98591  1.0000
  H   H183      1.0  0.29732  0.01507  0.58873  1.0000
  H   H184      1.0  0.19988  0.15235  0.97267  1.0000
  C   C112      1.0  0.25305  0.15551  0.94959  1.0000
  Fe  Fe12      1.0  0.27897  0.01017  0.50548  1.0000
  H   H185      1.0  0.20636  0.20443  0.51736  1.0000
  C   C113      1.0  0.01147  0.19525  0.85462  1.0000
  H   H186      1.0  0.20975  0.06582  0.54841  1.0000
  C   C114      1.0  0.26482  0.04815  0.70711  1.0000
  H   H187      1.0  0.25204  0.06283  0.95046  1.0000
  H   H188      1.0  0.27210  0.10003  0.53194  1.0000
  H   H189      1.0  0.24327  0.17027  0.95088  1.0000
  H   H190      1.0  0.27140  0.04947  0.72257  1.0000
  C   C115      1.0  0.25187  0.20266  0.97737  1.0000
  H   H191      1.0  0.05951  0.17717  0.75540  1.0000
  H   H192      1.0  0.28009  0.09367  0.55805  1.0000
  H   H193      1.0  0.01318  0.03511  0.70381  1.0000
  H   H194      1.0  0.17376  0.22409  0.51368  1.0000
  C   C116      1.0  0.01247  0.20733  0.58286  1.0000
  C   C117      1.0  0.20989  0.04858  0.54731  1.0000
  H   H195      1.0  0.01125  0.22566  0.71907  1.0000
  H   H196      1.0  0.22062  0.16908  0.97759  1.0000
  H   H197      1.0  0.22467  0.02668  0.75350  1.0000
  H   H198      1.0  0.26101  0.19050  0.92268  1.0000
  H   H199      1.0  0.27117  0.02274  0.55014  1.0000
  C   C118      1.0  0.27605  0.02780  0.56528  1.0000
  C   C119      1.0  0.29135  0.01067  0.57371  1.0000
  H   H200      1.0  0.25360  0.20825  0.50596  1.0000
  S   S25       1.0  0.00583  0.18276  0.64283  1.0000
  C   C120      1.0  0.00816  0.18490  0.61492  1.0000
  H   H201      1.0  0.32445  0.06488  0.53452  1.0000
  C   C121      1.0  0.22032  0.21392  0.51464  1.0000
  C   C122      1.0  0.06646  0.17132  0.74032  1.0000
  H   H202      1.0  0.05315  0.22816  0.74393  1.0000
  H   H203      1.0  0.21768  0.05005  0.51366  1.0000
  H   H204      1.0  0.27303  0.05910  0.67498  1.0000
  C   C123      1.0  0.05238  0.23344  0.70952  1.0000
  H   H205      1.0  0.04994  0.19874  0.64050  1.0000
  H   H206      1.0  0.22897  0.12904  0.92239  1.0000
  H   H207      1.0  0.05751  0.15800  0.73588  1.0000
  H   H208      1.0  0.24174  0.09316  0.97154  1.0000
  C   C124      1.0  0.04536  0.02594  0.69355  1.0000
  C   C125      1.0  0.31729  0.07305  0.52136  1.0000
  H   H209      1.0  0.25099  0.01595  0.58567  1.0000
  H   H210      1.0  0.06687  0.20572  0.68252  1.0000
  H   H211      1.0  0.23687  0.06390  0.61295  1.0000
  H   H212      1.0  0.01545  0.23615  0.69327  1.0000
  H   H213      1.0  0.20875  0.16886  0.94243  1.0000
  S   S26       1.0  0.20273  0.24645  0.97230  1.0000
  H   H214      1.0  0.19003  0.05122  0.52092  1.0000
  H   H215      1.0  0.23288  0.07975  0.57368  1.0000
  H   H216      1.0  0.25826  0.15245  0.91530  1.0000
  C   C126      1.0  0.23056  0.13562  0.97474  1.0000
  S   S27       1.0  0.31295  0.00857  0.83038  1.0000
  C   C127      1.0  0.22175  0.04542  0.59047  1.0000
  H   H217      1.0  0.24285  0.07702  0.53695  1.0000
  C   C128      1.0  0.21442  0.15345  0.98105  1.0000
  H   H218      1.0  0.26107  0.11716  0.93311  1.0000
  H   H219      1.0  0.24916  0.05649  0.70694  1.0000
  C   C129      1.0  0.25937  0.07796  0.94679  1.0000
  C   C130      1.0  0.01774  0.22156  0.70323  1.0000
  H   H220      1.0  0.04997  0.23865  0.66549  1.0000
  H   H221      1.0  0.22958  0.09527  0.94671  1.0000
  H   H222      1.0  0.03115  0.24459  0.73580  1.0000
  H   H223      1.0  0.08289  0.16551  0.74257  1.0000
  H   H224      1.0  0.32499  0.06516  0.94978  1.0000
  H   H225      1.0  0.29278  0.22917  0.52031  1.0000
  H   H226      1.0  0.20881  0.05707  0.58665  1.0000
  N   N6        1.0  0.23928  0.04605  0.57352  1.0000
  H   H227      1.0  0.26805  0.11793  0.95940  1.0000
  C   C131      1.0  0.22294  0.13683  0.93692  1.0000
  H   H228      1.0  0.09022  0.02134  0.64571  1.0000
  H   H229      1.0  0.19862  0.03876  0.62799  1.0000
  C   C132      1.0  0.27908  0.05955  0.69086  1.0000
  H   H230      1.0  0.21828  0.00672  0.79529  1.0000
  Fe  Fe13      1.0  0.14441  0.00092  0.70025  1.0000
  C   C133      1.0  0.22239  0.03377  0.73757  1.0000
  C   C134      1.0  0.28882  0.24309  0.51080  1.0000
  H   H231      1.0  0.22865  0.02089  0.55627  1.0000
  H   H232      1.0  0.05655  0.03092  0.68060  1.0000
  C   C135      1.0  0.25701  0.03148  0.58087  1.0000
  H   H233      1.0  0.28427  0.17926  0.90927  1.0000
  C   C136      1.0  0.27448  0.17890  0.92419  1.0000
  H   H234      1.0  0.21470  0.02984  0.59133  1.0000
  S   S28       1.0  0.29936  0.03567  0.51636  1.0000
  C   C137      1.0  0.32035  0.06329  0.93404  1.0000
  H   H235      1.0  0.26359  0.03733  0.59502  1.0000
  C   C138      1.0  0.00077  0.22280  0.78029  1.0000
  H   H236      1.0  0.28421  0.18334  0.93688  1.0000
  H   H237      1.0  0.01503  0.22257  0.57546  1.0000
  C   C139      1.0  0.30371  0.06245  0.50954  1.0000
  H   H238      1.0  0.02739  0.05553  0.69018  1.0000
  H   H239      1.0  0.18770  0.17194  0.91147  1.0000
  H   H240      1.0  0.05097  0.22516  0.62980  1.0000
  H   H241      1.0  0.00503  0.15730  0.57110  1.0000
  C   C140      1.0  0.04950  0.20791  0.68262  1.0000
  H   H242      1.0  0.20991  0.12722  0.94344  1.0000
  C   C141      1.0  0.01552  0.18688  0.77732  1.0000
  H   H243      1.0  0.22293  0.02367  0.70557  1.0000
  C   C142      1.0  0.22775  0.04968  0.61293  1.0000
  H   H244      1.0  0.02239  0.20773  0.80146  1.0000
  S   S29       1.0  0.00820  0.15977  0.74628  1.0000
  C   C143      1.0  0.00693  0.17059  0.58047  1.0000
  H   H245      1.0  0.04414  0.19219  0.67948  1.0000
  H   H246      1.0  0.22478  0.16689  0.91881  1.0000
  H   H247      1.0  0.25479  0.02580  0.68678  1.0000
  H   H248      1.0  0.29279  0.02101  0.76528  1.0000
  H   H249      1.0  0.08745  0.00288  0.62586  1.0000
  H   H250      1.0  0.01812  0.19375  0.87029  1.0000
  N   N7        1.0  0.19678  0.24509  0.50007  1.0000
  H   H251      1.0  0.04854  0.24726  0.69896  1.0000
  H   H252      1.0  0.00201  0.19185  0.70783  1.0000
  H   H253      1.0  0.21985  0.00375  0.72555  1.0000
  S   S30       1.0  0.00302  0.12013  0.65982  1.0000
  H   H254      1.0  0.13539  0.22561  0.50946  1.0000
  S   S31       1.0  0.17958  0.00360  0.69839  1.0000
  H   H255      1.0  0.07533  0.00750  0.71826  1.0000
  H   H256      1.0  0.27909  0.01836  0.69730  1.0000
  C   C144      1.0  0.26226  0.01049  0.73866  1.0000
  N   N8        1.0  0.25217  0.01109  0.71788  1.0000
  C   C145      1.0  0.26308  0.02511  0.70159  1.0000
  H   H257      1.0  0.31395  0.19991  0.58266  1.0000
  C   C146      1.0  0.32307  0.04354  0.92500  1.0000
  H   H258      1.0  0.01078  0.24606  0.91433  1.0000
  C   C147      1.0  0.24833  0.19273  0.99714  1.0000
  C   C148      1.0  0.04252  0.00203  0.69350  1.0000
  H   H259      1.0  0.29531  0.01308  0.72729  1.0000
  H   H260      1.0  0.32940  0.18468  0.60121  1.0000
  Fe  Fe14      1.0  0.29466  0.15094  0.99645  1.0000
  C   C149      1.0  0.31290  0.10476  0.49908  1.0000
  S   S32       1.0  0.29367  0.11563  0.99482  1.0000
  H   H261      1.0  0.03510  0.99939  0.67874  1.0000
  C   C150      1.0  0.29436  0.00466  0.76014  1.0000
  C   C151      1.0  0.09074  0.00441  0.64253  1.0000
  H   H262      1.0  0.05900  0.00123  0.65357  1.0000
  H   H263      1.0  0.32988  0.03038  0.93396  1.0000
  C   C152      1.0  0.28581  0.00321  0.73848  1.0000
  H   H264      1.0  0.25372  0.99994  0.75007  1.0000
  C   C153      1.0  0.17808  0.23197  0.49825  1.0000
  S   S33       1.0  0.24488  0.01216  0.49825  1.0000
  H   H265      1.0  0.33220  0.10198  0.52552  1.0000
  H   H266      1.0  0.32688  0.24800  0.53154  1.0000
  H   H267      1.0  0.31122  0.99941  0.75967  1.0000
  H   H268      1.0  0.30878  0.39351  0.09916  1.0000
  Fe  Fe15      1.0  0.20072  0.35161  0.47054  1.0000
  S   S34       1.0  0.20089  0.36322  0.43605  1.0000
  H   H269      1.0  0.03376  0.27992  0.43005  1.0000
  H   H270      1.0  0.06100  0.34750  0.19654  1.0000
  H   H271      1.0  0.14417  0.46954  0.30008  1.0000
  S   S35       1.0  0.19534  0.31740  0.47876  1.0000
  H   H272      1.0  0.33181  0.42099  0.17506  1.0000
  C   C154      1.0  0.01404  0.28839  0.04087  1.0000
  S   S36       1.0  0.19568  0.46923  0.33846  1.0000
  C   C155      1.0  0.14274  0.48029  0.01154  1.0000
  Fe  Fe16      1.0  0.20493  0.47721  0.37033  1.0000
  S   S37       1.0  0.21308  0.45678  0.39936  1.0000
  H   H273      1.0  0.27421  0.29332  0.47693  1.0000
  S   S38       1.0  0.23857  0.48388  0.29614  1.0000
  H   H274      1.0  0.01666  0.30096  0.02853  1.0000
  H   H275      1.0  0.03165  0.41313  0.24708  1.0000
  H   H276      1.0  0.28416  0.46139  0.07573  1.0000
  Fe  Fe17      1.0  0.28193  0.47668  0.01775  1.0000
  S   S39       1.0  0.24699  0.48334  0.02201  1.0000
  C   C156      1.0  0.11415  0.45432  0.37691  1.0000
  H   H277      1.0  0.06307  0.33079  0.21988  1.0000
  C   C157      1.0  0.02610  0.30232  0.07393  1.0000
  C   C158      1.0  0.31703  0.47645  0.11215  1.0000
  Fe  Fe18      1.0  0.14192  0.28457  0.01774  1.0000
  S   S40       1.0  0.12480  0.27125  0.04759  1.0000
  S   S41       1.0  0.17702  0.28759  0.01273  1.0000
  Fe  Fe19      1.0  0.03474  0.29828  0.13881  1.0000
  S   S42       1.0  0.06232  0.31120  0.11864  1.0000
  C   C159      1.0  0.28178  0.48348  0.33867  1.0000
  H   H278      1.0  0.29407  0.48040  0.32607  1.0000
  S   S43       1.0  0.03225  0.29262  0.17401  1.0000
  S   S44       1.0  0.27905  0.44616  0.00193  1.0000
  H   H279      1.0  0.10133  0.38790  0.23314  1.0000
  Fe  Fe20      1.0  0.04189  0.47286  0.26265  1.0000
  S   S45       1.0  0.03848  0.47957  0.22824  1.0000
  S   S46       1.0  0.07576  0.46246  0.27031  1.0000
  C   C160      1.0  0.12517  0.29327  0.48512  1.0000
  C   C161      1.0  0.14231  0.46122  0.40970  1.0000
  H   H280      1.0  0.13484  0.40337  0.23986  1.0000
  H   H281      1.0  0.16974  0.45118  0.42691  1.0000
  C   C162      1.0  0.30967  0.48145  0.06855  1.0000
  H   H282      1.0  0.01951  0.39906  0.28162  1.0000
  H   H283      1.0  0.27343  0.26050  0.00564  1.0000
  H   H284      1.0  0.01419  0.41055  0.17093  1.0000
  S   S47       1.0  0.13402  0.31451  0.99923  1.0000
  C   C163      1.0  0.10713  0.28286  0.06681  1.0000
  C   C164      1.0  0.10444  0.30454  0.06860  1.0000
  C   C165      1.0  0.09072  0.31290  0.08458  1.0000
  C   C166      1.0  0.07927  0.29976  0.09874  1.0000
  C   C167      1.0  0.08170  0.27811  0.09674  1.0000
  C   C168      1.0  0.09563  0.26974  0.08095  1.0000
  H   H285      1.0  0.11324  0.31483  0.05793  1.0000
  H   H286      1.0  0.08905  0.32967  0.08604  1.0000
  H   H287      1.0  0.07319  0.26779  0.10763  1.0000
  C   C169      1.0  0.04134  0.40023  0.25438  1.0000
  C   C170      1.0  0.12875  0.42008  0.39015  1.0000
  H   H288      1.0  0.25401  0.41523  0.41412  1.0000
  C   C171      1.0  0.06130  0.27918  0.02825  1.0000
  C   C172      1.0  0.19736  0.27345  0.44466  1.0000
  N   N9        1.0  0.03105  0.28763  0.05632  1.0000
  C   C173      1.0  0.20242  0.25572  0.46070  1.0000
  H   H289      1.0  0.08643  0.27814  0.00378  1.0000
  C   C174      1.0  0.02593  0.32598  0.06738  1.0000
  C   C175      1.0  0.29687  0.46911  0.08198  1.0000
  C   C176      1.0  0.01611  0.33951  0.08475  1.0000
  S   S48       1.0  0.32124  0.47204  0.13949  1.0000
  H   H290      1.0  0.15448  0.47311  0.43745  1.0000
  H   H291      1.0  0.07259  0.30330  0.00551  1.0000
  C   C177      1.0  0.14648  0.40883  0.40280  1.0000
  S   S49       1.0  0.01425  0.45227  0.26519  1.0000
  H   H292      1.0  0.22570  0.34477  0.05318  1.0000
  H   H293      1.0  0.30671  0.27162  0.46808  1.0000
  C   C178      1.0  0.28694  0.48352  0.25087  1.0000
  C   C179      1.0  0.26867  0.47886  0.26348  1.0000
  H   H294      1.0  0.29163  0.47432  0.23748  1.0000
  H   H295      1.0  0.25955  0.46606  0.25953  1.0000
  H   H296      1.0  0.04227  0.33080  0.06414  1.0000
  C   C180      1.0  0.09212  0.47140  0.28928  1.0000
  C   C181      1.0  0.11385  0.46625  0.28751  1.0000
  H   H297      1.0  0.11794  0.47014  0.37021  1.0000
  C   C182      1.0  0.99938  0.39825  0.22162  1.0000
  H   H298      1.0  0.03625  0.38522  0.24906  1.0000
  C   C183      1.0  0.20377  0.38943  0.42616  1.0000
  C   C184      1.0  0.20715  0.40561  0.43924  1.0000
  C   C185      1.0  0.20974  0.42609  0.43073  1.0000
  C   C186      1.0  0.20867  0.43080  0.40910  1.0000
  C   C187      1.0  0.20523  0.41465  0.39598  1.0000
  C   C188      1.0  0.20287  0.39409  0.40447  1.0000
  H   H299      1.0  0.20797  0.40230  0.45592  1.0000
  H   H300      1.0  0.21261  0.43838  0.44102  1.0000
  H   H301      1.0  0.20497  0.41785  0.37928  1.0000
  H   H302      1.0  0.20044  0.38166  0.39419  1.0000
  H   H303      1.0  0.30554  0.32251  0.99973  1.0000
  H   H304      1.0  0.17540  0.42948  0.36010  1.0000
  C   C189      1.0  0.27811  0.27941  0.48647  1.0000
  C   C190      1.0  0.09780  0.49063  0.32021  1.0000
  H   H305      1.0  0.13836  0.37689  0.39788  1.0000
  C   C191      1.0  0.30061  0.46656  0.10355  1.0000
  H   H306      1.0  0.09917  0.25268  0.43518  1.0000
  C   C192      1.0  0.24410  0.27776  0.01658  1.0000
  H   H307      1.0  0.03334  0.27852  0.40186  1.0000
  Fe  Fe21      1.0  0.00415  0.31553  0.17391  1.0000
  H   H308      1.0  0.15343  0.37970  0.42035  1.0000
  C   C193      1.0  0.23130  0.31383  0.00924  1.0000
  H   H309      1.0  0.29569  0.42910  0.37266  1.0000
  H   H310      1.0  0.17104  0.47687  0.41398  1.0000
  H   H311      1.0  0.27657  0.29819  0.01316  1.0000
  H   H312      1.0  0.31283  0.42088  0.09377  1.0000
  H   H313      1.0  0.01721  0.32950  0.05307  1.0000
  C   C194      1.0  0.00515  0.41076  0.20392  1.0000
  Fe  Fe22      1.0  0.21806  0.49368  0.32555  1.0000
  C   C195      1.0  0.11956  0.48580  0.31824  1.0000
  H   H314      1.0  0.12021  0.45682  0.27482  1.0000
  H   H315      1.0  0.21931  0.25093  0.45805  1.0000
  C   C196      1.0  0.12751  0.47344  0.30183  1.0000
  C   C197      1.0  0.32085  0.40505  0.09509  1.0000
  N   N10       1.0  0.24579  0.29627  0.00107  1.0000
  S   S50       1.0  0.00614  0.43853  0.20462  1.0000
  H   H316      1.0  0.04945  0.27444  0.01772  1.0000
  S   S51       1.0  0.17680  0.36340  0.49504  1.0000
  H   H317      1.0  0.11533  0.42280  0.40180  1.0000
  C   C198      1.0  0.26199  0.49063  0.28096  1.0000
  H   H318      1.0  0.18110  0.46665  0.01756  1.0000
  C   C199      1.0  0.14060  0.38704  0.41105  1.0000
  C   C200      1.0  0.10958  0.28140  0.47736  1.0000
  S   S52       1.0  0.01399  0.27231  0.13284  1.0000
  H   H319      1.0  0.06863  0.26493  0.03603  1.0000
  H   H320      1.0  0.09769  0.25295  0.07980  1.0000
  H   H321      1.0  0.20640  0.47957  0.04621  1.0000
  C   C201      1.0  0.09666  0.44654  0.36392  1.0000
  C   C202      1.0  0.06920  0.36326  0.22425  1.0000
  C   C203      1.0  0.00835  0.37926  0.18322  1.0000
  H   H322      1.0  0.00365  0.37085  0.13140  1.0000
  H   H323      1.0  0.16467  0.44258  0.39030  1.0000
  S   S53       1.0  0.01272  0.26099  0.47134  1.0000
  S   S54       1.0  0.21828  0.43166  0.01606  1.0000
  S   S55       1.0  0.00797  0.32253  0.13946  1.0000
  C   C204      1.0  0.03660  0.40032  0.27806  1.0000
  H   H324      1.0  0.14376  0.45117  0.34673  1.0000
  H   H325      1.0  0.23030  0.49639  0.46700  1.0000
  C   C205      1.0  0.09164  0.27605  0.48995  1.0000
  H   H326      1.0  0.04826  0.26540  0.07608  1.0000
  H   H327      1.0  0.26818  0.33521  0.00619  1.0000
  H   H328      1.0  0.25119  0.32013  0.03512  1.0000
  H   H329      1.0  0.10113  0.44830  0.34690  1.0000
  Fe  Fe23      1.0  0.17128  0.49590  0.34112  1.0000
  H   H330      1.0  0.26660  0.48622  0.33128  1.0000
  H   H331      1.0  0.18536  0.40478  0.03049  1.0000
  H   H332      1.0  0.14956  0.41783  0.41655  1.0000
  H   H333      1.0  0.12319  0.40869  0.37941  1.0000
  H   H334      1.0  0.14587  0.46314  0.01279  1.0000
  C   C206      1.0  0.16056  0.46586  0.42273  1.0000
  H   H335      1.0  0.17412  0.37078  0.01910  1.0000
  H   H336      1.0  0.20662  0.34108  0.03429  1.0000
  H   H337      1.0  0.13872  0.29734  0.47517  1.0000
  H   H338      1.0  0.04060  0.34870  0.21735  1.0000
  H   H339      1.0  0.26491  0.39737  0.39501  1.0000
  H   H340      1.0  0.07830  0.47629  0.36396  1.0000
  H   H341      1.0  0.11128  0.47759  0.02566  1.0000
  C   C207      1.0  0.14989  0.45218  0.38826  1.0000
  C   C208      1.0  0.00207  0.36684  0.20080  1.0000
  C   C209      1.0  0.21133  0.40689  0.00754  1.0000
  C   C210      1.0  0.00968  0.40108  0.18474  1.0000
  Fe  Fe24      1.0  0.00932  0.26813  0.16843  1.0000
  H   H342      1.0  0.18068  0.27918  0.44671  1.0000
  H   H343      1.0  0.09384  0.42986  0.36798  1.0000
  C   C211      1.0  0.05777  0.34663  0.21381  1.0000
  H   H344      1.0  0.18325  0.41033  0.32785  1.0000
  H   H345      1.0  0.26734  0.46968  0.36674  1.0000
  C   C212      1.0  0.31778  0.41460  0.30791  1.0000
  H   H346      1.0  0.04899  0.30970  0.03683  1.0000
  H   H347      1.0  0.15468  0.46564  0.37774  1.0000
  H   H348      1.0  0.06751  0.48744  0.30764  1.0000
  S   S56       1.0  0.07260  0.26076  0.47929  1.0000
  C   C213      1.0  0.07604  0.45942  0.36767  1.0000
  H   H349      1.0  0.12998  0.42774  0.34774  1.0000
  H   H350      1.0  0.06516  0.36175  0.24131  1.0000
  H   H351      1.0  0.04585  0.38742  0.21444  1.0000
  H   H352      1.0  0.29068  0.45681  0.11367  1.0000
  C   C214      1.0  0.19800  0.26266  0.48355  1.0000
  C   C215      1.0  0.14171  0.43606  0.35582  1.0000
  C   C216      1.0  0.22367  0.34115  0.03666  1.0000
  C   C217      1.0  0.23436  0.31980  0.03202  1.0000
  N   N11       1.0  0.13390  0.44023  0.37805  1.0000
  C   C218      1.0  0.02821  0.27101  0.41717  1.0000
  H   H353      1.0  0.31257  0.41064  0.34126  1.0000
  C   C219      1.0  0.16232  0.42248  0.35289  1.0000
  H   H354      1.0  0.00829  0.26609  0.08931  1.0000
  H   H355      1.0  0.11138  0.27648  0.46142  1.0000
  C   C220      1.0  0.29658  0.26699  0.48145  1.0000
  H   H356      1.0  0.08827  0.48242  0.21999  1.0000
  H   H357      1.0  0.06504  0.25487  0.43240  1.0000
  H   H358      1.0  0.12603  0.38803  0.42139  1.0000
  N   N12       1.0  0.27815  0.44369  0.34756  1.0000
  C   C221      1.0  0.28014  0.42809  0.36592  1.0000
  C   C222      1.0  0.29549  0.43958  0.33082  1.0000
  C   C223      1.0  0.28064  0.46519  0.35555  1.0000
  C   C224      1.0  0.25694  0.44376  0.33851  1.0000
  C   C225      1.0  0.25072  0.42273  0.33049  1.0000
  C   C226      1.0  0.26301  0.43020  0.38405  1.0000
  H   H359      1.0  0.22715  0.30812  0.04325  1.0000
  C   C227      1.0  0.30339  0.41649  0.32776  1.0000
  C   C228      1.0  0.22778  0.42387  0.32504  1.0000
  C   C229      1.0  0.26626  0.41310  0.40123  1.0000
  S   S57       1.0  0.30598  0.48530  0.04106  1.0000
  H   H360      1.0  0.27989  0.41179  0.36098  1.0000
  H   H361      1.0  0.29075  0.44651  0.31536  1.0000
  H   H362      1.0  0.30981  0.44763  0.33425  1.0000
  H   H363      1.0  0.29505  0.46509  0.36452  1.0000
  H   H364      1.0  0.30909  0.41956  0.29381  1.0000
  H   H365      1.0  0.24441  0.44967  0.34991  1.0000
  H   H366      1.0  0.25614  0.45503  0.32485  1.0000
  H   H367      1.0  0.25276  0.40967  0.34229  1.0000
  H   H368      1.0  0.26023  0.41914  0.31591  1.0000
  H   H369      1.0  0.26325  0.44546  0.39146  1.0000
  H   H370      1.0  0.24722  0.42860  0.37829  1.0000
  Fe  Fe25      1.0  0.00972  0.46085  0.23122  1.0000
  C   C230      1.0  0.19394  0.39724  0.01760  1.0000
  C   C231      1.0  0.03497  0.26572  0.06557  1.0000
  H   H371      1.0  0.07399  0.39038  0.25753  1.0000
  H   H372      1.0  0.22403  0.40895  0.31835  1.0000
  H   H373      1.0  0.21741  0.42631  0.33935  1.0000
  H   H374      1.0  0.22471  0.43683  0.31323  1.0000
  H   H375      1.0  0.01192  0.37210  0.16839  1.0000
  H   H376      1.0  0.02568  0.33761  0.09870  1.0000
  C   C232      1.0  0.18748  0.37792  0.01116  1.0000
  N   N13       1.0  0.07163  0.40340  0.22571  1.0000
  C   C233      1.0  0.06322  0.38547  0.21496  1.0000
  C   C234      1.0  0.06313  0.42368  0.21568  1.0000
  C   C235      1.0  0.09527  0.40165  0.22355  1.0000
  H   H377      1.0  0.06880  0.41777  0.25574  1.0000
  H   H378      1.0  0.17111  0.43581  0.32171  1.0000
  C   C236      1.0  0.10651  0.42090  0.23024  1.0000
  C   C237      1.0  0.06926  0.42734  0.19199  1.0000
  C   C238      1.0  0.06309  0.44964  0.18431  1.0000
  C   C239      1.0  0.13029  0.41674  0.22906  1.0000
  H   H379      1.0  0.06905  0.38552  0.19823  1.0000
  H   H380      1.0  0.06998  0.45730  0.38422  1.0000
  H   H381      1.0  0.04578  0.42452  0.21706  1.0000
  H   H382      1.0  0.06754  0.43730  0.22432  1.0000
  H   H383      1.0  0.10089  0.39833  0.20719  1.0000
  Fe  Fe26      1.0  0.24414  0.45375  0.00438  1.0000
  H   H384      1.0  0.08629  0.35961  0.22157  1.0000
  H   H385      1.0  0.13226  0.45033  0.41914  1.0000
  H   H386      1.0  0.10162  0.42480  0.24657  1.0000
  H   H387      1.0  0.10298  0.43484  0.21981  1.0000
  H   H388      1.0  0.08634  0.42478  0.18850  1.0000
  H   H389      1.0  0.06097  0.41659  0.18264  1.0000
  H   H390      1.0  0.07147  0.46105  0.19268  1.0000
  H   H391      1.0  0.06731  0.45167  0.16728  1.0000
  H   H392      1.0  0.04594  0.45298  0.18684  1.0000
  H   H393      1.0  0.21071  0.27303  0.48681  1.0000
  C   C240      1.0  0.06497  0.40296  0.24876  1.0000
  H   H394      1.0  0.13789  0.43081  0.23375  1.0000
  C   C241      1.0  0.18825  0.47969  0.00820  1.0000
  H   H395      1.0  0.13610  0.41327  0.21282  1.0000
  H   H396      1.0  0.29785  0.33456  0.49526  1.0000
  C   C242      1.0  0.05129  0.29407  0.04497  1.0000
  C   C243      1.0  0.16853  0.42027  0.32961  1.0000
  H   H397      1.0  0.04506  0.38685  0.28601  1.0000
  H   H398      1.0  0.10698  0.45693  0.39291  1.0000
  H   H399      1.0  0.32366  0.39807  0.30638  1.0000
  H   H400      1.0  0.06340  0.29589  0.05642  1.0000
  H   H401      1.0  0.23063  0.35365  0.02627  1.0000
  H   H402      1.0  0.04131  0.41511  0.28436  1.0000
  H   H403      1.0  0.29044  0.40600  0.32660  1.0000
  H   H404      1.0  0.09094  0.29463  0.02479  1.0000
  H   H405      1.0  0.16139  0.40702  0.39333  1.0000
  H   H406      1.0  0.01091  0.29921  0.08245  1.0000
  H   H407      1.0  0.28184  0.41393  0.40780  1.0000
  H   H408      1.0  0.16026  0.40643  0.35966  1.0000
  H   H409      1.0  0.03775  0.29949  0.08609  1.0000
  H   H410      1.0  0.01487  0.27359  0.03234  1.0000
  C   C244      1.0  0.30218  0.24876  0.49355  1.0000
  H   H411      1.0  0.14786  0.48673  0.02606  1.0000
  H   H412      1.0  0.33145  0.42443  0.30856  1.0000
  H   H413      1.0  0.15612  0.41274  0.32172  1.0000
  H   H414      1.0  0.01575  0.35623  0.07930  1.0000
  H   H415      1.0  0.20020  0.26773  0.42858  1.0000
  S   S58       1.0  0.22812  0.35180  0.49107  1.0000
  H   H416      1.0  0.20762  0.28662  0.44625  1.0000
  C   C245      1.0  0.32612  0.49131  0.07714  1.0000
  Fe  Fe27      1.0  0.03968  0.25061  0.49128  1.0000
  C   C246      1.0  0.08417  0.48350  0.30588  1.0000
  C   C247      1.0  0.07879  0.28951  0.01480  1.0000
  H   H417      1.0  0.20468  0.47373  0.00454  1.0000
  H   H418      1.0  0.13289  0.47613  0.40698  1.0000
  H   H419      1.0  0.32870  0.40127  0.07968  1.0000
  H   H420      1.0  0.06699  0.25648  0.40471  1.0000
  H   H421      1.0  0.18347  0.27296  0.48406  1.0000
  H   H422      1.0  0.17856  0.48334  0.05217  1.0000
  H   H423      1.0  0.32777  0.40754  0.12702  1.0000
  H   H424      1.0  0.21470  0.30973  0.00876  1.0000
  S   S59       1.0  0.13584  0.49588  0.33659  1.0000
  H   H425      1.0  0.06418  0.45423  0.35735  1.0000
  C   C248      1.0  0.11904  0.48466  0.01123  1.0000
  H   H426      1.0  0.23233  0.32817  0.99891  1.0000
  H   H427      1.0  0.24951  0.28172  0.03201  1.0000
  H   H428      1.0  0.00471  0.25137  0.06662  1.0000
  C   C249      1.0  0.19270  0.49096  0.04528  1.0000
  C   C250      1.0  0.32966  0.48901  0.09877  1.0000
  H   H429      1.0  0.01080  0.27159  0.41851  1.0000
  H   H430      1.0  0.22738  0.27376  0.01941  1.0000
  H   H431      1.0  0.27039  0.32949  0.49656  1.0000
  H   H432      1.0  0.25829  0.49661  0.46208  1.0000
  H   H433      1.0  0.03988  0.25465  0.05315  1.0000
  C   C251      1.0  0.01625  0.25560  0.07776  1.0000
  C   C252      1.0  0.25695  0.25739  0.01055  1.0000
  H   H434      1.0  0.99982  0.33519  0.08918  1.0000
  H   H435      1.0  0.07791  0.49801  0.19834  1.0000
  H   H436      1.0  0.10539  0.49822  0.20296  1.0000
  C   C253      1.0  0.08943  0.49746  0.21069  1.0000
  H   H437      1.0  0.15337  0.25795  0.49789  1.0000
  H   H438      1.0  0.17608  0.44055  0.99867  1.0000
  H   H439      1.0  0.25495  0.49833  0.06317  1.0000
  C   C254      1.0  0.18953  0.49836  0.02256  1.0000
  C   C255      1.0  0.26841  0.30204  0.99844  1.0000
  C   C256      1.0  0.02389  0.35102  0.88377  1.0000
  C   C257      1.0  0.17925  0.27098  0.52707  1.0000
  Fe  Fe28      1.0  0.19154  0.48439  0.67313  1.0000
  S   S60       1.0  0.21654  0.45824  0.67432  1.0000
  C   C258      1.0  0.26507  0.27407  0.50403  1.0000
  Fe  Fe29      1.0  0.23925  0.48301  0.66483  1.0000
  H   H440      1.0  0.26064  0.25132  0.52965  1.0000
  Fe  Fe30      1.0  0.21203  0.45533  0.63981  1.0000
  S   S61       1.0  0.20610  0.42294  0.62794  1.0000
  Fe  Fe31      1.0  0.00162  0.31121  0.83678  1.0000
  S   S62       1.0  0.18558  0.47986  0.63973  1.0000
  S   S63       1.0  0.19851  0.32905  0.52759  1.0000
  H   H441      1.0  0.23559  0.40395  0.98295  1.0000
  H   H442      1.0  0.05175  0.41552  0.81647  1.0000
  Fe  Fe32      1.0  0.20386  0.36209  0.51625  1.0000
  S   S64       1.0  0.21199  0.39039  0.53445  1.0000
  S   S65       1.0  0.27164  0.48444  0.67905  1.0000
  Fe  Fe33      1.0  0.27872  0.46553  0.97130  1.0000
  S   S66       1.0  0.24369  0.47146  0.97319  1.0000
  S   S67       1.0  0.29245  0.45304  0.94008  1.0000
  H   H443      1.0  0.08917  0.31451  0.79066  1.0000
  Fe  Fe34      1.0  0.17311  0.32925  0.50452  1.0000
  S   S68       1.0  0.16788  0.29745  0.96310  1.0000
  H   H444      1.0  0.07469  0.38031  0.85738  1.0000
  C   C259      1.0  0.08964  0.28265  0.51053  1.0000
  H   H445      1.0  0.29518  0.34377  0.53264  1.0000
  Fe  Fe35      1.0  0.13350  0.29391  0.97152  1.0000
  S   S69       1.0  0.10387  0.30158  0.95282  1.0000
  C   C260      1.0  0.17105  0.44544  0.98284  1.0000
  Fe  Fe36      1.0  0.03378  0.27961  0.85516  1.0000
  H   H446      1.0  0.00107  0.30631  0.98663  1.0000
  S   S70       1.0  0.06687  0.27551  0.86725  1.0000
  H   H447      1.0  0.29125  0.30218  0.59975  1.0000
  C   C261      1.0  0.08292  0.43232  0.68322  1.0000
  S   S71       1.0  0.02778  0.29110  0.82187  1.0000
  H   H448      1.0  0.03835  0.25050  0.91398  1.0000
  Fe  Fe37      1.0  0.04242  0.48435  0.72862  1.0000
  S   S72       1.0  0.04559  0.47579  0.76289  1.0000
  H   H449      1.0  0.25270  0.37779  0.54763  1.0000
  C   C262      1.0  0.01986  0.36128  0.79887  1.0000
  C   C263      1.0  0.29961  0.30301  0.58403  1.0000
  H   H450      1.0  0.21200  0.29432  0.94723  1.0000
  C   C264      1.0  0.01895  0.39810  0.78591  1.0000
  C   C265      1.0  0.19653  0.25394  0.52155  1.0000
  H   H451      1.0  0.20537  0.47936  0.55521  1.0000
  H   H452      1.0  0.15126  0.47130  0.59969  1.0000
  H   H453      1.0  0.30409  0.44560  0.83796  1.0000
  C   C266      1.0  0.29908  0.43093  0.74792  1.0000
  H   H454      1.0  0.26083  0.41247  0.56362  1.0000
  C   C267      1.0  0.12313  0.29989  0.50571  1.0000
  H   H455      1.0  0.05368  0.36447  0.88263  1.0000
  H   H456      1.0  0.13776  0.48387  0.66701  1.0000
  C   C268      1.0  0.23804  0.28971  0.98068  1.0000
  H   H457      1.0  0.01196  0.34719  0.87293  1.0000
  C   C269      1.0  0.09385  0.29369  0.92911  1.0000
  C   C270      1.0  0.10499  0.27974  0.91582  1.0000
  C   C271      1.0  0.09645  0.27433  0.89706  1.0000
  C   C272      1.0  0.07658  0.28253  0.89141  1.0000
  C   C273      1.0  0.06543  0.29649  0.90468  1.0000
  C   C274      1.0  0.07404  0.30206  0.92333  1.0000
  H   H458      1.0  0.05657  0.26461  0.75244  1.0000
  H   H459      1.0  0.05033  0.30319  0.90043  1.0000
  H   H460      1.0  0.06537  0.31303  0.93332  1.0000
  H   H461      1.0  0.28651  0.40323  0.57170  1.0000
  H   H462      1.0  0.26570  0.43889  0.75168  1.0000
  H   H463      1.0  0.27180  0.30281  0.56694  1.0000
  H   H464      1.0  0.22963  0.32089  0.96621  1.0000
  H   H465      1.0  0.00062  0.32967  0.95580  1.0000
  C   C275      1.0  0.21574  0.37752  0.98446  1.0000
  C   C276      1.0  0.07604  0.30879  0.80115  1.0000
  H   H466      1.0  0.27542  0.42059  0.77161  1.0000
  C   C277      1.0  0.30818  0.46482  0.91935  1.0000
  Fe  Fe38      1.0  0.00460  0.26563  0.82184  1.0000
  H   H467      1.0  0.29000  0.47522  0.85967  1.0000
  Fe  Fe39      1.0  0.17507  0.26879  0.98422  1.0000
  C   C278      1.0  0.29372  0.45179  0.82552  1.0000
  N   N14       1.0  0.07407  0.34914  0.84541  1.0000
  C   C279      1.0  0.02316  0.25246  0.92325  1.0000
  C   C280      1.0  0.22856  0.29788  0.94321  1.0000
  C   C281      1.0  0.26945  0.40360  0.57606  1.0000
  S   S73       1.0  0.14040  0.26386  0.99034  1.0000
  H   H468      1.0  0.09884  0.48483  0.66808  1.0000
  H   H469      1.0  0.22166  0.28462  0.98327  1.0000
  S   S74       1.0  0.01918  0.46008  0.72444  1.0000
  H   H470      1.0  0.07676  0.29142  0.80133  1.0000
  H   H471      1.0  0.06858  0.38103  0.81012  1.0000
  C   C282      1.0  0.20677  0.41465  0.60167  1.0000
  C   C283      1.0  0.21419  0.42713  0.58459  1.0000
  C   C284      1.0  0.21524  0.41955  0.56418  1.0000
  C   C285      1.0  0.20868  0.39952  0.56043  1.0000
  C   C286      1.0  0.20072  0.38724  0.57746  1.0000
  C   C287      1.0  0.20000  0.39468  0.59794  1.0000
  H   H472      1.0  0.21945  0.44251  0.58714  1.0000
  H   H473      1.0  0.22137  0.42925  0.55117  1.0000
  H   H474      1.0  0.19536  0.37193  0.57489  1.0000
  H   H475      1.0  0.19430  0.38484  0.61099  1.0000
  H   H476      1.0  0.17965  0.28450  0.51563  1.0000
  H   H477      1.0  0.30563  0.43923  0.89917  1.0000
  H   H478      1.0  0.13941  0.49785  0.62924  1.0000
  H   H479      1.0  0.07708  0.25663  0.73346  1.0000
  H   H480      1.0  0.25485  0.30934  0.95708  1.0000
  H   H481      1.0  0.02886  0.33676  0.89314  1.0000
  H   H482      1.0  0.05456  0.41186  0.84426  1.0000
  H   H483      1.0  0.10728  0.40842  0.68673  1.0000
  H   H484      1.0  0.21973  0.49796  0.56796  1.0000
  H   H485      1.0  0.24751  0.27594  0.97476  1.0000
  C   C288      1.0  0.10676  0.48554  0.68246  1.0000
  H   H486      1.0  0.07839  0.34067  0.89065  1.0000
  H   H487      1.0  0.29829  0.34498  0.98314  1.0000
  H   H488      1.0  0.17075  0.45089  0.60570  1.0000
  H   H489      1.0  0.05483  0.27325  0.72536  1.0000
  H   H490      1.0  0.10348  0.29936  0.53428  1.0000
  C   C289      1.0  0.31217  0.45425  0.90060  1.0000
  C   C290      1.0  0.02742  0.37733  0.78498  1.0000
  H   H491      1.0  0.11124  0.34086  0.90786  1.0000
  H   H492      1.0  0.27838  0.36054  0.51689  1.0000
  C   C291      1.0  0.27902  0.43481  0.76173  1.0000
  H   H493      1.0  0.31437  0.41099  0.77014  1.0000
  H   H494      1.0  0.25131  0.48345  0.72192  1.0000
  H   H495      1.0  0.14812  0.44506  0.59186  1.0000
  C   C292      1.0  0.06163  0.40776  0.82862  1.0000
  C   C293      1.0  0.11164  0.33666  0.89120  1.0000
  H   H496      1.0  0.26647  0.41195  0.59085  1.0000
  H   H497      1.0  0.02635  0.34539  0.79775  1.0000
  N   N15       1.0  0.26093  0.34650  0.56014  1.0000
  C   C294      1.0  0.23948  0.34355  0.57066  1.0000
  Fe  Fe40      1.0  0.02110  0.45235  0.75913  1.0000
  C   C295      1.0  0.27794  0.33583  0.57293  1.0000
  C   C296      1.0  0.28107  0.48604  0.70483  1.0000
  C   C297      1.0  0.23263  0.32080  0.57400  1.0000
  C   C298      1.0  0.21029  0.32038  0.58392  1.0000
  H   H498      1.0  0.19779  0.46265  0.97103  1.0000
  H   H499      1.0  0.23830  0.34992  0.58655  1.0000
  H   H500      1.0  0.22739  0.35258  0.56155  1.0000
  C   C299      1.0  0.26124  0.33888  0.53818  1.0000
  C   C300      1.0  0.12883  0.48511  0.68179  1.0000
  H   H501      1.0  0.27307  0.33603  0.58993  1.0000
  C   C301      1.0  0.30266  0.48813  0.70696  1.0000
  H   H502      1.0  0.27110  0.37300  0.59145  1.0000
  H   H503      1.0  0.24524  0.38293  0.58507  1.0000
  H   H504      1.0  0.23294  0.31277  0.55902  1.0000
  H   H505      1.0  0.24289  0.31186  0.58499  1.0000
  H   H506      1.0  0.20937  0.32719  0.59960  1.0000
  H   H507      1.0  0.19905  0.32936  0.57389  1.0000
  H   H508      1.0  0.20554  0.30396  0.58580  1.0000
  C   C302      1.0  0.18217  0.27932  0.54863  1.0000
  H   H509      1.0  0.31813  0.43796  0.77337  1.0000
  S   S75       1.0  0.01965  0.25364  0.52152  1.0000
  C   C303      1.0  0.26189  0.38140  0.57919  1.0000
  H   H510      1.0  0.30475  0.28686  0.57971  1.0000
  H   H511      1.0  0.06501  0.30927  0.83365  1.0000
  H   H512      1.0  0.14566  0.48730  0.97794  1.0000
  H   H513      1.0  0.07758  0.41378  0.82642  1.0000
  N   N16       1.0  0.17733  0.48464  0.98818  1.0000
  H   H514      1.0  0.12608  0.34255  0.88302  1.0000
  H   H515      1.0  0.32714  0.26648  0.55150  1.0000
  H   H516      1.0  0.27982  0.37288  0.55110  1.0000
  N   N17       1.0  0.13789  0.42028  0.65451  1.0000
  C   C304      1.0  0.13817  0.39669  0.65652  1.0000
  C   C305      1.0  0.11577  0.42909  0.65910  1.0000
  C   C306      1.0  0.14407  0.42614  0.63189  1.0000
  C   C307      1.0  0.15297  0.42941  0.66849  1.0000
  C   C308      1.0  0.15675  0.41737  0.68976  1.0000
  C   C309      1.0  0.15899  0.38522  0.64860  1.0000
  C   C310      1.0  0.14162  0.44970  0.62526  1.0000
  C   C311      1.0  0.10616  0.42519  0.68163  1.0000
  H   H517      1.0  0.15369  0.44724  0.98326  1.0000
  C   C312      1.0  0.16722  0.43076  0.70474  1.0000
  C   C313      1.0  0.16060  0.36248  0.65699  1.0000
  S   S76       1.0  0.19115  0.34338  0.98554  1.0000
  H   H518      1.0  0.12549  0.39087  0.64749  1.0000
  H   H519      1.0  0.13442  0.39105  0.67286  1.0000
  H   H520      1.0  0.11487  0.44641  0.65665  1.0000
  H   H521      1.0  0.10509  0.42309  0.64790  1.0000
  H   H522      1.0  0.13482  0.41762  0.62113  1.0000
  H   H523      1.0  0.16076  0.42113  0.62816  1.0000
  H   H524      1.0  0.16878  0.43064  0.66034  1.0000
  H   H525      1.0  0.14779  0.44584  0.67182  1.0000
  H   H526      1.0  0.16720  0.40320  0.68716  1.0000
  H   H527      1.0  0.14211  0.41224  0.69795  1.0000
  H   H528      1.0  0.15973  0.38510  0.63122  1.0000
  H   H529      1.0  0.17288  0.39313  0.65318  1.0000
  H   H530      1.0  0.14740  0.45943  0.63725  1.0000
  H   H531      1.0  0.12486  0.45438  0.62322  1.0000
  H   H532      1.0  0.08989  0.32194  0.86019  1.0000
  H   H533      1.0  0.11418  0.43442  0.69270  1.0000
  H   H534      1.0  0.27700  0.29227  0.98643  1.0000
  H   H535      1.0  0.27842  0.44438  0.82768  1.0000
  H   H536      1.0  0.15631  0.44392  0.70970  1.0000
  H   H537      1.0  0.17139  0.42118  0.71896  1.0000
  H   H538      1.0  0.18174  0.43707  0.69720  1.0000
  H   H539      1.0  0.17531  0.35465  0.65040  1.0000
  H   H540      1.0  0.16097  0.36175  0.67434  1.0000
  H   H541      1.0  0.14712  0.35395  0.65233  1.0000
  H   H542      1.0  0.16996  0.29196  0.55198  1.0000
  H   H543      1.0  0.00063  0.31321  0.91238  1.0000
  C   C314      1.0  0.12727  0.48808  0.71932  1.0000
  S   S77       1.0  0.14232  0.31471  0.51669  1.0000
  H   H544      1.0  0.04628  0.37885  0.82824  1.0000
  C   C315      1.0  0.15367  0.45446  0.60435  1.0000
  C   C316      1.0  0.27628  0.48581  0.74307  1.0000
  C   C317      1.0  0.01819  0.27567  0.92679  1.0000
  H   H545      1.0  0.08062  0.44900  0.67788  1.0000
  H   H546      1.0  0.31912  0.28369  0.51730  1.0000
  H   H547      1.0  0.12024  0.27322  0.91992  1.0000
  C   C318      1.0  0.09481  0.48700  0.70159  1.0000
  H   H548      1.0  0.17380  0.46954  0.95907  1.0000
  H   H549      1.0  0.31391  0.49251  0.93530  1.0000
  H   H550      1.0  0.31372  0.31222  0.58471  1.0000
  C   C319      1.0  0.05991  0.25995  0.73602  1.0000
  H   H551      1.0  0.03127  0.28139  0.93517  1.0000
  C   C320      1.0  0.23843  0.30611  0.96214  1.0000
  H   H552      1.0  0.01671  0.36280  0.89457  1.0000
  H   H553      1.0  0.30118  0.44754  0.81008  1.0000
  H   H554      1.0  0.01864  0.28723  0.97368  1.0000
  H   H555      1.0  0.30073  0.31940  0.97246  1.0000
  C   C321      1.0  0.26401  0.36978  0.55837  1.0000
  H   H556      1.0  0.29401  0.31259  0.55231  1.0000
  H   H557      1.0  0.28110  0.48094  0.81274  1.0000
  C   C322      1.0  0.03262  0.31536  0.98079  1.0000
  C   C323      1.0  0.27255  0.32537  0.99264  1.0000
  C   C324      1.0  0.27980  0.48218  0.84739  1.0000
  H   H558      1.0  0.28832  0.31335  0.51203  1.0000
  S   S78       1.0  0.30773  0.48672  0.77102  1.0000
  H   H559      1.0  0.19781  0.28589  0.54907  1.0000
  H   H560      1.0  0.29244  0.34476  0.57124  1.0000
  C   C325      1.0  0.32462  0.46289  0.88373  1.0000
  H   H561      1.0  0.22888  0.30991  0.93013  1.0000
  C   C326      1.0  0.18066  0.46606  0.97446  1.0000
  C   C327      1.0  0.27055  0.25574  0.51607  1.0000
  C   C328      1.0  0.00295  0.40265  0.80114  1.0000
  C   C329      1.0  0.29572  0.32814  0.98664  1.0000
  C   C330      1.0  0.13920  0.48671  0.70021  1.0000
  H   H562      1.0  0.11225  0.31932  0.89081  1.0000
  H   H563      1.0  0.24725  0.34567  0.53022  1.0000
  H   H564      1.0  0.09247  0.36348  0.88160  1.0000
  H   H565      1.0  0.07674  0.43076  0.69979  1.0000
  C   C331      1.0  0.17764  0.42755  0.96846  1.0000
  C   C332      1.0  0.19833  0.36789  0.99448  1.0000
  H   H566      1.0  0.07374  0.42262  0.67362  1.0000
  H   H567      1.0  0.09340  0.37519  0.83680  1.0000
  H   H568      1.0  0.30624  0.48212  0.82351  1.0000
  H   H569      1.0  0.18057  0.26668  0.56103  1.0000
  C   C333      1.0  0.15425  0.49061  0.99193  1.0000
  C   C334      1.0  0.09211  0.34627  0.88098  1.0000
  H   H570      1.0  0.03979  0.37361  0.77328  1.0000
  H   H571      1.0  0.03682  0.37454  0.86292  1.0000
  H   H572      1.0  0.25957  0.32175  0.53826  1.0000
  C   C335      1.0  0.06251  0.38411  0.82638  1.0000
  C   C336      1.0  0.31811  0.42583  0.76143  1.0000
  C   C337      1.0  0.00640  0.31326  0.95305  1.0000
  C   C338      1.0  0.07692  0.37236  0.84236  1.0000
  C   C339      1.0  0.07662  0.34011  0.82394  1.0000
  H   H573      1.0  0.17170  0.43086  0.95263  1.0000
  H   H574      1.0  0.19499  0.42520  0.96702  1.0000
  H   H575      1.0  0.06092  0.31473  0.79483  1.0000
  H   H576      1.0  0.07606  0.27867  0.52049  1.0000
  H   H577      1.0  0.02887  0.33247  0.98143  1.0000
  H   H578      1.0  0.32779  0.39989  0.68244  1.0000
  C   C340      1.0  0.31680  0.48420  0.92101  1.0000
  S   S79       1.0  0.02926  0.41760  0.76793  1.0000
  C   C341      1.0  0.09132  0.33918  0.85829  1.0000
  C   C342      1.0  0.04261  0.35996  0.87128  1.0000
  H   H579      1.0  0.30119  0.44500  0.73748  1.0000
  C   C343      1.0  0.10529  0.29439  0.51833  1.0000
  H   H580      1.0  0.06333  0.34583  0.81433  1.0000
  H   H581      1.0  0.16359  0.26442  0.52793  1.0000
  H   H582      1.0  0.23729  0.28342  0.93790  1.0000
  C   C344      1.0  0.05274  0.34423  0.85533  1.0000
  H   H583      1.0  0.04638  0.31253  0.96963  1.0000
  H   H584      1.0  0.10688  0.34156  0.84999  1.0000
  H   H585      1.0  0.17117  0.41277  0.97514  1.0000
  H   H586      1.0  0.05344  0.32829  0.86316  1.0000
  C   C345      1.0  0.28450  0.32952  0.50583  1.0000
  C   C346      1.0  0.07776  0.31591  0.82341  1.0000
  H   H587      1.0  0.29651  0.41746  0.73830  1.0000
  C   C347      1.0  0.28513  0.31294  0.56773  1.0000
  S   S80       1.0  0.23664  0.47819  0.62994  1.0000
  H   H588      1.0  0.03697  0.30932  0.99654  1.0000
  H   H589      1.0  0.31875  0.38515  0.70558  1.0000
  S   S81       1.0  0.01264  0.25274  0.85393  1.0000
  H   H590      1.0  0.09108  0.34560  0.81529  1.0000
  H   H591      1.0  0.09300  0.30923  0.82883  1.0000
  H   H592      1.0  0.04109  0.34335  0.84316  1.0000
  C   C348      1.0  0.01381  0.30408  0.97429  1.0000
  H   H593      1.0  0.02038  0.31471  0.94194  1.0000
  H   H594      1.0  0.32759  0.45453  0.86949  1.0000
  C   C349      1.0  0.28077  0.34437  0.52380  1.0000
  H   H595      1.0  0.18585  0.49769  0.94323  1.0000
  S   S82       1.0  0.24227  0.28991  0.51222  1.0000
  S   S83       1.0  0.16689  0.48766  0.70021  1.0000
  H   H596      1.0  0.28064  0.44803  0.77202  1.0000
  H   H597      1.0  0.26481  0.47408  0.84956  1.0000
  H   H598      1.0  0.22430  0.36999  0.97154  1.0000
  C   C350      1.0  0.26792  0.48500  0.72313  1.0000
  Fe  Fe41      1.0  0.22111  0.31849  0.50122  1.0000
  C   C351      1.0  0.21792  0.49067  0.55280  1.0000
  S   S84       1.0  0.00881  0.30085  0.86988  1.0000
  C   C352      1.0  0.31099  0.48907  0.72690  1.0000
  H   H599      1.0  0.26587  0.48479  0.75699  1.0000
  H   H600      1.0  0.09622  0.48924  0.73487  1.0000
  H   H601      1.0  0.31304  0.48916  0.69302  1.0000
  C   C353      1.0  0.10521  0.48806  0.72006  1.0000
  H   H602      1.0  0.26342  0.33184  0.97946  1.0000
  H   H603      1.0  0.10533  0.26362  0.88690  1.0000
  C   C354      1.0  0.29792  0.48759  0.74520  1.0000
  H   H604      1.0  0.13513  0.48926  0.73368  1.0000
  H   H605      1.0  0.33015  0.39404  0.74013  1.0000
  H   H606      1.0  0.21189  0.26062  0.52375  1.0000
  C   C355      1.0  0.00380  0.36585  0.81404  1.0000
  S   S85       1.0  0.06704  0.48831  0.70133  1.0000
  H   H607      1.0  0.32754  0.49088  0.72807  1.0000
  H   H608      1.0  0.01794  0.28363  0.91112  1.0000
  C   C356      1.0  0.29060  0.47559  0.82612  1.0000
  C   C357      1.0  0.22223  0.39681  0.99092  1.0000
  Fe  Fe42      1.0  0.16896  0.31619  0.99194  1.0000
  H   H609      1.0  0.26400  0.49659  0.92391  1.0000
  H   H610      1.0  0.23278  0.48191  0.54801  1.0000
  C   C358      1.0  0.32942  0.49272  0.90423  1.0000
  H   H611      1.0  0.27477  0.48204  0.89015  1.0000
  H   H612      1.0  0.31917  0.42333  0.71134  1.0000
  S   S86       1.0  0.28431  0.49526  0.98671  1.0000
  H   H613      1.0  0.24170  0.49590  0.90815  1.0000
  H   H614      1.0  0.24988  0.25006  0.99756  1.0000
  C   C359      1.0  0.33165  0.39461  0.69862  1.0000
  H   H615      1.0  0.11286  0.47769  0.99745  1.0000
  Fe  Fe43      1.0  0.21080  0.61646  0.48286  1.0000
  S   S87       1.0  0.21143  0.58532  0.46615  1.0000
  S   S88       1.0  0.20693  0.65035  0.47210  1.0000
  Fe  Fe44      1.0  0.20220  0.52450  0.35972  1.0000
  S   S89       1.0  0.20442  0.55749  0.37185  1.0000
  S   S90       1.0  0.19284  0.51995  0.32664  1.0000
  H   H616      1.0  0.32762  0.73574  0.45461  1.0000
  C   C360      1.0  0.09799  0.55420  0.24832  1.0000
  S   S91       1.0  0.22878  0.49986  0.35755  1.0000
  C   C361      1.0  0.24612  0.51581  0.48760  1.0000
  H   H617      1.0  0.11166  0.54065  0.28576  1.0000
  Fe  Fe45      1.0  0.03853  0.67894  0.13915  1.0000
  S   S92       1.0  0.07249  0.67470  0.12602  1.0000
  Fe  Fe46      1.0  0.00474  0.65388  0.16376  1.0000
  S   S93       1.0  0.03073  0.67256  0.17381  1.0000
  H   H618      1.0  0.03251  0.58996  0.26813  1.0000
  S   S94       1.0  0.16909  0.67043  0.02228  1.0000
  H   H619      1.0  0.00494  0.58885  0.27626  1.0000
  H   H620      1.0  0.26032  0.52502  0.48611  1.0000
  Fe  Fe47      1.0  0.13667  0.67879  0.01209  1.0000
  S   S95       1.0  0.10606  0.68844  0.03044  1.0000
  C   C362      1.0  0.28008  0.71612  0.48285  1.0000
  S   S96       1.0  0.02981  0.53850  0.22121  1.0000
  C   C363      1.0  0.07111  0.54132  0.28987  1.0000
  H   H621      1.0  0.03789  0.54829  0.28500  1.0000
  H   H622      1.0  0.06333  0.65744  0.20242  1.0000
  H   H623      1.0  0.01470  0.63495  0.08616  1.0000
  C   C364      1.0  0.07551  0.52898  0.26964  1.0000
  H   H624      1.0  0.30064  0.52669  0.05745  1.0000
  H   H625      1.0  0.15124  0.71994  0.02833  1.0000
  H   H626      1.0  0.31511  0.74171  0.05251  1.0000
  C   C365      1.0  0.08110  0.67739  0.09909  1.0000
  C   C366      1.0  0.10156  0.67010  0.09271  1.0000
  C   C367      1.0  0.10926  0.67263  0.07165  1.0000
  C   C368      1.0  0.09671  0.68296  0.05678  1.0000
  C   C369      1.0  0.07620  0.69008  0.06311  1.0000
  C   C370      1.0  0.06837  0.68721  0.08408  1.0000
  H   H627      1.0  0.11150  0.66239  0.10415  1.0000
  H   H628      1.0  0.12493  0.66674  0.06700  1.0000
  H   H629      1.0  0.06633  0.69811  0.05180  1.0000
  H   H630      1.0  0.05263  0.69295  0.08873  1.0000
  H   H631      1.0  0.09428  0.62916  0.00122  1.0000
  C   C371      1.0  0.03199  0.57651  0.19930  1.0000
  H   H632      1.0  0.31144  0.55699  0.01955  1.0000
  H   H633      1.0  0.03454  0.60651  0.18237  1.0000
  H   H634      1.0  0.04871  0.57282  0.19830  1.0000
  H   H635      1.0  0.05950  0.68188  0.01506  1.0000
  H   H636      1.0  0.08097  0.73512  0.06554  1.0000
  C   C372      1.0  0.02400  0.59564  0.19020  1.0000
  C   C373      1.0  0.30680  0.73678  0.02083  1.0000
  C   C374      1.0  0.19992  0.57293  0.01531  1.0000
  H   H637      1.0  0.30224  0.57763  0.23782  1.0000
  C   C375      1.0  0.01007  0.66777  0.25653  1.0000
  H   H638      1.0  0.04349  0.52537  0.30193  1.0000
  H   H639      1.0  0.05407  0.65803  0.23996  1.0000
  H   H640      1.0  0.10130  0.50005  0.24979  1.0000
  H   H641      1.0  0.16769  0.67754  0.09474  1.0000
  S   S97       1.0  0.17911  0.50232  0.37407  1.0000
  H   H642      1.0  0.14370  0.70797  0.08437  1.0000
  C   C376      1.0  0.01828  0.70043  0.02211  1.0000
  H   H643      1.0  0.06659  0.59409  0.22444  1.0000
  H   H644      1.0  0.01730  0.65665  0.28837  1.0000
  S   S98       1.0  0.01424  0.65803  0.12946  1.0000
  Fe  Fe48      1.0  0.23154  0.65740  0.49446  1.0000
  C   C377      1.0  0.11107  0.73325  0.07998  1.0000
  H   H645      1.0  0.06236  0.53269  0.25930  1.0000
  H   H646      1.0  0.26096  0.60861  0.01690  1.0000
  H   H647      1.0  0.04533  0.55113  0.31140  1.0000
  C   C378      1.0  0.20893  0.57821  0.43980  1.0000
  C   C379      1.0  0.20712  0.55697  0.43581  1.0000
  C   C380      1.0  0.20566  0.55038  0.41523  1.0000
  C   C381      1.0  0.20598  0.56498  0.39824  1.0000
  C   C382      1.0  0.20752  0.58627  0.40224  1.0000
  C   C383      1.0  0.20896  0.59287  0.42285  1.0000
  H   H648      1.0  0.20688  0.54545  0.44870  1.0000
  H   H649      1.0  0.20440  0.53398  0.41249  1.0000
  H   H650      1.0  0.20783  0.59771  0.38924  1.0000
  H   H651      1.0  0.21047  0.60923  0.42557  1.0000
  C   C384      1.0  0.29819  0.54661  0.01902  1.0000
  C   C385      1.0  0.02586  0.64847  0.22609  1.0000
  H   H652      1.0  0.09144  0.58314  0.21421  1.0000
  H   H653      1.0  0.02498  0.66389  0.21737  1.0000
  H   H654      1.0  0.10422  0.56480  0.25946  1.0000
  H   H655      1.0  0.24191  0.51901  0.45396  1.0000
  H   H656      1.0  0.13890  0.54207  0.25385  1.0000
  Fe  Fe49      1.0  0.01792  0.50789  0.23689  1.0000
  C   C386      1.0  0.15102  0.70974  0.06824  1.0000
  H   H657      1.0  0.02246  0.63697  0.21439  1.0000
  H   H658      1.0  0.02293  0.60672  0.23391  1.0000
  H   H659      1.0  0.03343  0.69907  0.27168  1.0000
  H   H660      1.0  0.24022  0.57031  0.03809  1.0000
  C   C387      1.0  0.13628  0.52833  0.26473  1.0000
  H   H661      1.0  0.14802  0.60111  0.48927  1.0000
  C   C388      1.0  0.08855  0.74223  0.07844  1.0000
  C   C389      1.0  0.15223  0.59220  0.47502  1.0000
  C   C390      1.0  0.12727  0.67927  0.49769  1.0000
  C   C391      1.0  0.01132  0.60761  0.24743  1.0000
  H   H662      1.0  0.16286  0.58758  0.39378  1.0000
  C   C392      1.0  0.00239  0.60054  0.19112  1.0000
  C   C393      1.0  0.17520  0.67877  0.07865  1.0000
  C   C394      1.0  0.08168  0.58613  0.22882  1.0000
  Fe  Fe50      1.0  0.00820  0.70087  0.17175  1.0000
  H   H663      1.0  0.23339  0.60444  0.02008  1.0000
  C   C395      1.0  0.27409  0.50714  0.28570  1.0000
  C   C396      1.0  0.00196  0.64099  0.07608  1.0000
  H   H664      1.0  0.05884  0.62979  0.20234  1.0000
  H   H665      1.0  0.09483  0.69058  0.45106  1.0000
  S   S99       1.0  0.25498  0.68226  0.48234  1.0000
  H   H666      1.0  0.06834  0.51448  0.23158  1.0000
  S   S100      1.0  0.01177  0.71793  0.47336  1.0000
  H   H667      1.0  0.03972  0.67124  0.00159  1.0000
  H   H668      1.0  0.19019  0.73990  0.06496  1.0000
  H   H669      1.0  0.26926  0.51646  0.29896  1.0000
  H   H670      1.0  0.29086  0.73191  0.02606  1.0000
  H   H671      1.0  0.13848  0.58381  0.47083  1.0000
  S   S101      1.0  0.01775  0.70855  0.13760  1.0000
  C   C397      1.0  0.32268  0.55306  0.08177  1.0000
  C   C398      1.0  0.29532  0.54355  0.05714  1.0000
  H   H672      1.0  0.09144  0.50017  0.33282  1.0000
  H   H673      1.0  0.02663  0.62823  0.26638  1.0000
  H   H674      1.0  0.01383  0.74805  0.42424  1.0000
  H   H675      1.0  0.30147  0.52459  0.27705  1.0000
  C   C399      1.0  0.04801  0.54153  0.29741  1.0000
  H   H676      1.0  0.31066  0.55934  0.09342  1.0000
  H   H677      1.0  0.21281  0.51988  0.49302  1.0000
  S   S102      1.0  0.32219  0.50700  0.24010  1.0000
  H   H678      1.0  0.32541  0.73672  0.41428  1.0000
  H   H679      1.0  0.19186  0.67297  0.07923  1.0000
  C   C400      1.0  0.17406  0.70151  0.07010  1.0000
  N   N18       1.0  0.28315  0.54918  0.03796  1.0000
  C   C401      1.0  0.01857  0.56201  0.20942  1.0000
  H   H680      1.0  0.16723  0.66857  0.06848  1.0000
  H   H681      1.0  0.24790  0.60748  0.04286  1.0000
  C   C402      1.0  0.27400  0.69741  0.49346  1.0000
  H   H682      1.0  0.13685  0.58457  0.38565  1.0000
  H   H683      1.0  0.15114  0.60671  0.37563  1.0000
  H   H684      1.0  0.05144  0.63000  0.24145  1.0000
  H   H685      1.0  0.11013  0.71635  0.08441  1.0000
  H   H686      1.0  0.17381  0.73067  0.03641  1.0000
  N   N19       1.0  0.09646  0.53231  0.25815  1.0000
  S   S103      1.0  0.15497  0.67682  0.49238  1.0000
  H   H687      1.0  0.08533  0.53034  0.21450  1.0000
  C   C403      1.0  0.15962  0.60681  0.45686  1.0000
  C   C404      1.0  0.29895  0.68496  0.43048  1.0000
  H   H688      1.0  0.18179  0.71069  0.08135  1.0000
  H   H689      1.0  0.16795  0.52808  0.27528  1.0000
  H   H690      1.0  0.28140  0.56416  0.21015  1.0000
  H   H691      1.0  0.19355  0.57333  0.03134  1.0000
  C   C405      1.0  0.24873  0.60089  0.02708  1.0000
  C   C406      1.0  0.31271  0.69788  0.44298  1.0000
  H   H692      1.0  0.12510  0.71098  0.48477  1.0000
  H   H693      1.0  0.08734  0.67005  0.43532  1.0000
  C   C407      1.0  0.28643  0.55386  0.22359  1.0000
  H   H694      1.0  0.28296  0.68479  0.43831  1.0000
  C   C408      1.0  0.01649  0.58911  0.26259  1.0000
  H   H695      1.0  0.28506  0.54567  0.07161  1.0000
  C   C409      1.0  0.11322  0.52853  0.27380  1.0000
  C   C410      1.0  0.10046  0.51600  0.24191  1.0000
  H   H696      1.0  0.07989  0.63874  0.21645  1.0000
  C   C411      1.0  0.07739  0.56555  0.24097  1.0000
  H   H697      1.0  0.18622  0.54920  0.49256  1.0000
  H   H698      1.0  0.30546  0.66855  0.42980  1.0000
  C   C412      1.0  0.08451  0.51592  0.22474  1.0000
  C   C413      1.0  0.26644  0.53354  0.03740  1.0000
  S   S104      1.0  0.99969  0.72131  0.20047  1.0000
  H   H699      1.0  0.04024  0.66028  0.27140  1.0000
  H   H700      1.0  0.03577  0.68730  0.29765  1.0000
  H   H701      1.0  0.30525  0.71391  0.44350  1.0000
  C   C414      1.0  0.25340  0.57722  0.02862  1.0000
  H   H702      1.0  0.32953  0.59867  0.22516  1.0000
  H   H703      1.0  0.11739  0.72624  0.04741  1.0000
  C   C415      1.0  0.30613  0.56162  0.23238  1.0000
  H   H704      1.0  0.14984  0.51479  0.29316  1.0000
  H   H705      1.0  0.11122  0.51332  0.28260  1.0000
  H   H706      1.0  0.21437  0.54173  0.01938  1.0000
  H   H707      1.0  0.27090  0.51330  0.07834  1.0000
  H   H708      1.0  0.16509  0.58043  0.47849  1.0000
  C   C416      1.0  0.03560  0.70468  0.00518  1.0000
  H   H709      1.0  0.00735  0.63895  0.05945  1.0000
  H   H710      1.0  0.23477  0.53087  0.05158  1.0000
  H   H711      1.0  0.17373  0.61428  0.46152  1.0000
  H   H712      1.0  0.08977  0.59669  0.23854  1.0000
  C   C417      1.0  0.31500  0.55610  0.05960  1.0000
  C   C418      1.0  0.29239  0.51177  0.27313  1.0000
  H   H713      1.0  0.30954  0.55133  0.24624  1.0000
  H   H714      1.0  0.04506  0.71708  0.01078  1.0000
  C   C419      1.0  0.02598  0.68847  0.28385  1.0000
  H   H715      1.0  0.14327  0.69874  0.05859  1.0000
  H   H716      1.0  0.18300  0.70212  0.05471  1.0000
  H   H717      1.0  0.30529  0.53026  0.01905  1.0000
  H   H718      1.0  0.29763  0.69188  0.41433  1.0000
  C   C420      1.0  0.06356  0.64250  0.21198  1.0000
  N   N20       1.0  0.00953  0.64825  0.24411  1.0000
  H   H719      1.0  0.25015  0.54651  0.06610  1.0000
  H   H720      1.0  0.01454  0.68138  0.24599  1.0000
  H   H721      1.0  0.07569  0.55773  0.28738  1.0000
  H   H722      1.0  0.18448  0.68777  0.44316  1.0000
  H   H723      1.0  0.08027  0.53385  0.30271  1.0000
  H   H724      1.0  0.28619  0.58248  0.03227  1.0000
  H   H725      1.0  0.28938  0.53758  0.21842  1.0000
  H   H726      1.0  0.31173  0.57309  0.05633  1.0000
  C   C421      1.0  0.02422  0.66674  0.27544  1.0000
  H   H727      1.0  0.19082  0.69456  0.41595  1.0000
  H   H728      1.0  0.11817  0.74097  0.09276  1.0000
  C   C422      1.0  0.04986  0.68471  0.00112  1.0000
  C   C423      1.0  0.12400  0.73628  0.05883  1.0000
  H   H729      1.0  0.27379  0.51766  0.03468  1.0000
  C   C424      1.0  0.04900  0.64458  0.23168  1.0000
  H   H730      1.0  0.27236  0.72153  0.46887  1.0000
  H   H731      1.0  0.25683  0.53674  0.02363  1.0000
  H   H732      1.0  0.06898  0.55589  0.23080  1.0000
  H   H733      1.0  0.10965  0.55409  0.23467  1.0000
  S   S105      1.0  0.02251  0.50180  0.27135  1.0000
  C   C425      1.0  0.25082  0.53217  0.05700  1.0000
  H   H734      1.0  0.20249  0.67096  0.42777  1.0000
  C   C426      1.0  0.32465  0.56163  0.21543  1.0000
  C   C427      1.0  0.24394  0.50642  0.46637  1.0000
  H   H735      1.0  0.27154  0.57600  0.05569  1.0000
  H   H736      1.0  0.06655  0.56937  0.25458  1.0000
  S   S106      1.0  0.20617  0.71402  0.00793  1.0000
  H   H737      1.0  0.20310  0.50756  0.01692  1.0000
  H   H738      1.0  0.25334  0.57137  0.01266  1.0000
  H   H739      1.0  0.10452  0.68974  0.42409  1.0000
  H   H740      1.0  0.32652  0.54574  0.20896  1.0000
  H   H741      1.0  0.30013  0.74240  0.48188  1.0000
  C   C428      1.0  0.23406  0.74427  0.01498  1.0000
  H   H742      1.0  0.31752  0.72257  0.02045  1.0000
  C   C429      1.0  0.22165  0.73601  0.00018  1.0000
  N   N21       1.0  0.14700  0.63792  0.43259  1.0000
  C   C430      1.0  0.16477  0.65113  0.43724  1.0000
  C   C431      1.0  0.14223  0.62372  0.45156  1.0000
  C   C432      1.0  0.15366  0.62560  0.41356  1.0000
  C   C433      1.0  0.12745  0.65123  0.42805  1.0000
  C   C434      1.0  0.11942  0.66648  0.44527  1.0000
  C   C435      1.0  0.16962  0.66928  0.42104  1.0000
  C   C436      1.0  0.13871  0.60868  0.40810  1.0000
  H   H743      1.0  0.14886  0.54308  0.29104  1.0000
  C   C437      1.0  0.15651  0.73308  0.03710  1.0000
  C   C438      1.0  0.10038  0.67999  0.43840  1.0000
  C   C439      1.0  0.18797  0.68133  0.42743  1.0000
  C   C440      1.0  0.14800  0.59621  0.38965  1.0000
  H   H744      1.0  0.17953  0.64118  0.43835  1.0000
  H   H745      1.0  0.16198  0.65789  0.45291  1.0000
  H   H746      1.0  0.13942  0.63303  0.46582  1.0000
  H   H747      1.0  0.12734  0.61589  0.45004  1.0000
  H   H748      1.0  0.16961  0.61797  0.41508  1.0000
  H   H749      1.0  0.15527  0.63628  0.39940  1.0000
  H   H750      1.0  0.12963  0.66038  0.41292  1.0000
  H   H751      1.0  0.11426  0.64113  0.42586  1.0000
  H   H752      1.0  0.13160  0.67716  0.44890  1.0000
  H   H753      1.0  0.11450  0.65769  0.45993  1.0000
  H   H754      1.0  0.17390  0.66325  0.40532  1.0000
  H   H755      1.0  0.15599  0.68067  0.41981  1.0000
  H   H756      1.0  0.12341  0.61603  0.40362  1.0000
  H   H757      1.0  0.13585  0.59731  0.42143  1.0000
  H   H758      1.0  0.16424  0.59691  0.44346  1.0000
  H   H759      1.0  0.07408  0.51211  0.27416  1.0000
  H   H760      1.0  0.24326  0.51256  0.08478  1.0000
  S   S107      1.0  0.18202  0.61300  0.01143  1.0000
  H   H761      1.0  0.01023  0.69540  0.28877  1.0000
  C   C441      1.0  0.15629  0.74741  0.07308  1.0000
  C   C442      1.0  0.03048  0.74732  0.21259  1.0000
  C   C443      1.0  0.15158  0.52861  0.28216  1.0000
  C   C444      1.0  0.27439  0.57157  0.03909  1.0000
  H   H762      1.0  0.27351  0.55383  0.23598  1.0000
  H   H763      1.0  0.31892  0.57226  0.20255  1.0000
  H   H764      1.0  0.14031  0.51382  0.25621  1.0000
  H   H765      1.0  0.08632  0.71546  0.49035  1.0000
  H   H766      1.0  0.02514  0.69449  0.03696  1.0000
  C   C445      1.0  0.21169  0.55492  0.00855  1.0000
  H   H767      1.0  0.22444  0.54221  0.48125  1.0000
  H   H768      1.0  0.11585  0.51790  0.23325  1.0000
  H   H769      1.0  0.31250  0.69065  0.45909  1.0000
  C   C446      1.0  0.11639  0.69821  0.49184  1.0000
  H   H770      1.0  0.32804  0.55051  0.04867  1.0000
  H   H771      1.0  0.00882  0.71515  0.02521  1.0000
  H   H772      1.0  0.01584  0.57424  0.25447  1.0000
  H   H773      1.0  0.04042  0.74130  0.19974  1.0000
  H   H774      1.0  0.28924  0.70995  0.99945  1.0000
  C   C447      1.0  0.25537  0.51299  0.07163  1.0000
  C   C448      1.0  0.29897  0.50008  0.25555  1.0000
  N   N22       1.0  0.14744  0.73185  0.05940  1.0000
  C   C449      1.0  0.22636  0.52975  0.49387  1.0000
  C   C450      1.0  0.19648  0.59055  0.00163  1.0000
  H   H775      1.0  0.00769  0.68879  0.01695  1.0000
  H   H776      1.0  0.15526  0.74154  0.08977  1.0000
  H   H777      1.0  0.30244  0.50239  0.35484  1.0000
  H   H778      1.0  0.23392  0.73730  0.03071  1.0000
  H   H779      1.0  0.32622  0.53621  0.08572  1.0000
  C   C451      1.0  0.01024  0.74018  0.21631  1.0000
  H   H780      1.0  0.07936  0.73861  0.09334  1.0000
  H   H781      1.0  0.28651  0.51678  0.33617  1.0000
  C   C452      1.0  0.01181  0.62876  0.25823  1.0000
  C   C453      1.0  0.09437  0.70081  0.49497  1.0000
  C   C454      1.0  0.29598  0.72797  0.49013  1.0000
  H   H782      1.0  0.11506  0.50179  0.01069  1.0000
  H   H783      1.0  0.17526  0.50902  0.02228  1.0000
  H   H784      1.0  0.99993  0.55859  0.12513  1.0000
  H   H785      1.0  0.99914  0.62904  0.27098  1.0000
  H   H786      1.0  0.19546  0.50456  0.05466  1.0000
  H   H787      1.0  0.27477  0.50796  0.36107  1.0000
  C   C455      1.0  0.28668  0.50385  0.34837  1.0000
  C   C456      1.0  0.30624  0.74828  0.99891  1.0000
  H   H788      1.0  0.23242  0.58118  0.53091  1.0000
  S   S108      1.0  0.20760  0.66239  0.52124  1.0000
  H   H789      1.0  0.09097  0.66759  0.96831  1.0000
  C   C457      1.0  0.16625  0.56688  0.65284  1.0000
  C   C458      1.0  0.10193  0.69025  0.56051  1.0000
  H   H790      1.0  0.07234  0.68577  0.57755  1.0000
  Fe  Fe51      1.0  0.21195  0.62750  0.52863  1.0000
  S   S109      1.0  0.21919  0.61413  0.56147  1.0000
  C   C459      1.0  0.02194  0.58392  0.78138  1.0000
  S   S110      1.0  0.19842  0.52495  0.60459  1.0000
  H   H791      1.0  0.10056  0.62873  0.97327  1.0000
  Fe  Fe52      1.0  0.15076  0.67603  0.96569  1.0000
  S   S111      1.0  0.13774  0.68399  0.93326  1.0000
  S   S112      1.0  0.18480  0.66735  0.97271  1.0000
  Fe  Fe53      1.0  0.03487  0.66803  0.86216  1.0000
  H   H792      1.0  0.30636  0.51283  0.83621  1.0000
  S   S113      1.0  0.05666  0.65709  0.88863  1.0000
  Fe  Fe54      1.0  0.01504  0.64740  0.82543  1.0000
  C   C460      1.0  0.10173  0.72962  0.96269  1.0000
  Fe  Fe55      1.0  0.01941  0.69569  0.82380  1.0000
  S   S114      1.0  0.03048  0.72181  0.79976  1.0000
  S   S115      1.0  0.04251  0.66770  0.82730  1.0000
  C   C461      1.0  0.22015  0.55425  0.98792  1.0000
  H   H793      1.0  0.20246  0.60322  0.97027  1.0000
  N   N23       1.0  0.06393  0.68554  0.98132  1.0000
  H   H794      1.0  0.12512  0.66422  0.56181  1.0000
  C   C462      1.0  0.03528  0.70428  0.58050  1.0000
  H   H795      1.0  0.04200  0.71381  0.54811  1.0000
  C   C463      1.0  0.27167  0.49923  0.89045  1.0000
  H   H796      1.0  0.09389  0.73171  0.58083  1.0000
  C   C464      1.0  0.13910  0.51282  0.61978  1.0000
  C   C465      1.0  0.16610  0.55923  0.69944  1.0000
  H   H797      1.0  0.19684  0.51506  0.54155  1.0000
  C   C466      1.0  0.07776  0.72617  0.58386  1.0000
  C   C467      1.0  0.09377  0.55251  0.68243  1.0000
  C   C468      1.0  0.09371  0.66544  0.50970  1.0000
  N   N24       1.0  0.30492  0.73424  0.98079  1.0000
  H   H798      1.0  0.04294  0.70376  0.59562  1.0000
  H   H799      1.0  0.19001  0.54027  0.71576  1.0000
  H   H800      1.0  0.15415  0.51399  0.61033  1.0000
  C   C469      1.0  0.11457  0.67674  0.92173  1.0000
  C   C470      1.0  0.10627  0.68954  0.90535  1.0000
  C   C471      1.0  0.08834  0.68414  0.89535  1.0000
  C   C472      1.0  0.07861  0.66559  0.90135  1.0000
  C   C473      1.0  0.08687  0.65281  0.91777  1.0000
  C   C474      1.0  0.10467  0.65832  0.92788  1.0000
  H   H801      1.0  0.11383  0.70375  0.90029  1.0000
  H   H802      1.0  0.08229  0.69414  0.88274  1.0000
  H   H803      1.0  0.07961  0.63838  0.92252  1.0000
  H   H804      1.0  0.11109  0.64806  0.94007  1.0000
  C   C475      1.0  0.28634  0.72089  0.98576  1.0000
  H   H805      1.0  0.18387  0.52927  0.51296  1.0000
  H   H806      1.0  0.01089  0.57177  0.73294  1.0000
  S   S116      1.0  0.13743  0.65282  0.98960  1.0000
  C   C476      1.0  0.04669  0.71852  0.56364  1.0000
  C   C477      1.0  0.10797  0.66713  0.56508  1.0000
  H   H807      1.0  0.29853  0.73762  0.94785  1.0000
  H   H808      1.0  0.11031  0.69959  0.57115  1.0000
  H   H809      1.0  0.08439  0.61046  0.76453  1.0000
  H   H810      1.0  0.25737  0.54663  0.84224  1.0000
  H   H811      1.0  0.25409  0.50279  0.82553  1.0000
  C   C478      1.0  0.32444  0.72010  0.97727  1.0000
  C   C479      1.0  0.24987  0.53441  0.83420  1.0000
  H   H812      1.0  0.18263  0.53488  0.93121  1.0000
  C   C480      1.0  0.21328  0.58933  0.57339  1.0000
  C   C481      1.0  0.22588  0.58030  0.58910  1.0000
  C   C482      1.0  0.22167  0.56063  0.59890  1.0000
  C   C483      1.0  0.20465  0.54986  0.59320  1.0000
  C   C484      1.0  0.19186  0.55907  0.57776  1.0000
  C   C485      1.0  0.19609  0.57870  0.56796  1.0000
  H   H813      1.0  0.23909  0.58852  0.59360  1.0000
  H   H814      1.0  0.23161  0.55382  0.61081  1.0000
  H   H815      1.0  0.17853  0.55097  0.57339  1.0000
  H   H816      1.0  0.18602  0.58565  0.55624  1.0000
  C   C486      1.0  0.13104  0.55961  0.66856  1.0000
  H   H817      1.0  0.16355  0.53754  0.72674  1.0000
  H   H818      1.0  0.24450  0.51538  0.53134  1.0000
  C   C487      1.0  0.00930  0.55894  0.81612  1.0000
  C   C488      1.0  0.30584  0.54766  0.97964  1.0000
  H   H819      1.0  0.03290  0.65871  0.96938  1.0000
  C   C489      1.0  0.25676  0.50336  0.90955  1.0000
  S   S117      1.0  0.21435  0.50956  0.66527  1.0000
  C   C490      1.0  0.15292  0.53159  0.64980  1.0000
  C   C491      1.0  0.16115  0.57423  0.63026  1.0000
  C   C492      1.0  0.13540  0.53128  0.63401  1.0000
  H   H820      1.0  0.30585  0.50632  0.86318  1.0000
  C   C493      1.0  0.17420  0.59258  0.62240  1.0000
  H   H821      1.0  0.16846  0.52934  0.64113  1.0000
  H   H822      1.0  0.15159  0.51685  0.65961  1.0000
  H   H823      1.0  0.12288  0.56411  0.65408  1.0000
  H   H824      1.0  0.11866  0.52889  0.67831  1.0000
  H   H825      1.0  0.14440  0.57945  0.62943  1.0000
  H   H826      1.0  0.16503  0.56138  0.61941  1.0000
  C   C494      1.0  0.02318  0.67345  0.94055  1.0000
  H   H827      1.0  0.12984  0.56945  0.85676  1.0000
  H   H828      1.0  0.16736  0.74376  0.99536  1.0000
  C   C495      1.0  0.29640  0.53849  0.85504  1.0000
  H   H829      1.0  0.09119  0.56879  0.68761  1.0000
  H   H830      1.0  0.17030  0.60641  0.63198  1.0000
  H   H831      1.0  0.26509  0.59147  0.54352  1.0000
  H   H832      1.0  0.24536  0.56336  0.49909  1.0000
  Fe  Fe56      1.0  0.00074  0.74477  0.52691  1.0000
  H   H833      1.0  0.04900  0.73818  0.60113  1.0000
  C   C496      1.0  0.26390  0.69172  0.97621  1.0000
  H   H834      1.0  0.16826  0.57520  0.51743  1.0000
  C   C497      1.0  0.11691  0.54534  0.68295  1.0000
  S   S118      1.0  0.01845  0.62114  0.80166  1.0000
  H   H835      1.0  0.19121  0.58820  0.62301  1.0000
  C   C498      1.0  0.18876  0.53032  0.94674  1.0000
  H   H836      1.0  0.00396  0.71223  0.56986  1.0000
  C   C499      1.0  0.30635  0.72118  0.50811  1.0000
  H   H837      1.0  0.29164  0.54773  0.84082  1.0000
  H   H838      1.0  0.00433  0.54934  0.82968  1.0000
  C   C500      1.0  0.29668  0.51488  0.85104  1.0000
  C   C501      1.0  0.09363  0.70760  0.96388  1.0000
  H   H839      1.0  0.10761  0.69408  0.54410  1.0000
  H   H840      1.0  0.25369  0.52044  0.91136  1.0000
  H   H841      1.0  0.15109  0.56780  0.70393  1.0000
  N   N25       1.0  0.08106  0.61149  0.83888  1.0000
  C   C502      1.0  0.06399  0.61320  0.85613  1.0000
  C   C503      1.0  0.09421  0.63032  0.83899  1.0000
  C   C504      1.0  0.07057  0.61247  0.81828  1.0000
  C   C505      1.0  0.09447  0.59133  0.84059  1.0000
  C   C506      1.0  0.09766  0.58165  0.86298  1.0000
  C   C507      1.0  0.04672  0.59721  0.85587  1.0000
  C   C508      1.0  0.08535  0.61325  0.79815  1.0000
  C   C509      1.0  0.10648  0.63272  0.85877  1.0000
  C   C510      1.0  0.11697  0.65362  0.85774  1.0000
  H   H842      1.0  0.00452  0.70045  0.59596  1.0000
  C   C511      1.0  0.03528  0.59422  0.87736  1.0000
  C   C512      1.0  0.07360  0.60934  0.77874  1.0000
  H   H843      1.0  0.05582  0.62901  0.85519  1.0000
  H   H844      1.0  0.07048  0.61214  0.87182  1.0000
  H   H845      1.0  0.10633  0.63016  0.82582  1.0000
  H   H846      1.0  0.08414  0.64493  0.83646  1.0000
  H   H847      1.0  0.05939  0.62639  0.81727  1.0000
  H   H848      1.0  0.06087  0.59871  0.81720  1.0000
  H   H849      1.0  0.08775  0.57884  0.83192  1.0000
  H   H850      1.0  0.11022  0.59352  0.83266  1.0000
  H   H851      1.0  0.08291  0.57519  0.86979  1.0000
  H   H852      1.0  0.10236  0.59322  0.87381  1.0000
  H   H853      1.0  0.03501  0.60319  0.84461  1.0000
  H   H854      1.0  0.05315  0.58170  0.85079  1.0000
  H   H855      1.0  0.09857  0.60134  0.79912  1.0000
  H   H856      1.0  0.09175  0.62898  0.79565  1.0000
  H   H857      1.0  0.09620  0.63221  0.87329  1.0000
  H   H858      1.0  0.11914  0.62021  0.85986  1.0000
  H   H859      1.0  0.12855  0.65457  0.84415  1.0000
  H   H860      1.0  0.10505  0.66685  0.85638  1.0000
  H   H861      1.0  0.12523  0.65521  0.87232  1.0000
  C   C513      1.0  0.11576  0.66289  0.50672  1.0000
  H   H862      1.0  0.25973  0.54385  0.51404  1.0000
  H   H863      1.0  0.25779  0.52487  0.87239  1.0000
  H   H864      1.0  0.04605  0.58662  0.88876  1.0000
  H   H865      1.0  0.02910  0.60952  0.88328  1.0000
  H   H866      1.0  0.02192  0.58411  0.87613  1.0000
  Fe  Fe57      1.0  0.21021  0.50317  0.63143  1.0000
  H   H867      1.0  0.08915  0.74137  0.95825  1.0000
  H   H868      1.0  0.11003  0.55129  0.85236  1.0000
  H   H869      1.0  0.07929  0.71362  0.59645  1.0000
  C   C514      1.0  0.07066  0.64506  0.98198  1.0000
  H   H870      1.0  0.02826  0.71085  0.99071  1.0000
  H   H871      1.0  0.08826  0.55160  0.66639  1.0000
  H   H872      1.0  0.02099  0.68929  0.93285  1.0000
  C   C515      1.0  0.07933  0.72891  0.54479  1.0000
  H   H873      1.0  0.00517  0.58786  0.83247  1.0000
  H   H874      1.0  0.23481  0.53236  0.80470  1.0000
  C   C516      1.0  0.05210  0.68619  0.96149  1.0000
  C   C517      1.0  0.03124  0.67480  0.96242  1.0000
  C   C518      1.0  0.01504  0.54936  0.79711  1.0000
  C   C519      1.0  0.17469  0.54880  0.71938  1.0000
  S   S119      1.0  0.99947  0.70989  0.52340  1.0000
  C   C520      1.0  0.11442  0.56367  0.86258  1.0000
  H   H875      1.0  0.01112  0.72727  0.59128  1.0000
  S   S120      1.0  0.01695  0.50938  0.73491  1.0000
  H   H876      1.0  0.06734  0.59348  0.77994  1.0000
  C   C521      1.0  0.26449  0.51447  0.83115  1.0000
  H   H877      1.0  0.28576  0.54275  0.86863  1.0000
  N   N26       1.0  0.27576  0.50544  0.84996  1.0000
  H   H878      1.0  0.20366  0.55615  0.53511  1.0000
  H   H879      1.0  0.03572  0.68803  0.57506  1.0000
  H   H880      1.0  0.04791  0.70264  0.95617  1.0000
  H   H881      1.0  0.06244  0.67985  0.94837  1.0000
  S   S121      1.0  0.01443  0.52156  0.79618  1.0000
  H   H882      1.0  0.32973  0.54110  0.84637  1.0000
  C   C522      1.0  0.08771  0.62781  0.98568  1.0000
  C   C523      1.0  0.20490  0.58983  0.98098  1.0000
  H   H883      1.0  0.08806  0.70445  0.94833  1.0000
  H   H884      1.0  0.23211  0.55778  0.81579  1.0000
  C   C524      1.0  0.28412  0.69084  0.51165  1.0000
  C   C525      1.0  0.21660  0.57178  0.97420  1.0000
  H   H885      1.0  0.06039  0.62121  0.77692  1.0000
  S   S122      1.0  0.23729  0.62294  0.50297  1.0000
  C   C526      1.0  0.02125  0.56204  0.77969  1.0000
  H   H886      1.0  0.16487  0.55390  0.53667  1.0000
  H   H887      1.0  0.31791  0.56206  0.86163  1.0000
  C   C527      1.0  0.24474  0.55353  0.51399  1.0000
  H   H888      1.0  0.07423  0.72175  0.53055  1.0000
  H   H889      1.0  0.17752  0.57066  0.69313  1.0000
  H   H890      1.0  0.27220  0.73090  0.99044  1.0000
  H   H891      1.0  0.13428  0.54572  0.62389  1.0000
  H   H892      1.0  0.08432  0.54207  0.69317  1.0000
  H   H893      1.0  0.17092  0.59699  0.60587  1.0000
  H   H894      1.0  0.13164  0.57471  0.67631  1.0000
  N   N27       1.0  0.07029  0.71752  0.56418  1.0000
  H   H895      1.0  0.20833  0.56930  0.51045  1.0000
  C   C528      1.0  0.07782  0.69475  0.56313  1.0000
  C   C529      1.0  0.26214  0.50816  0.86989  1.0000
  H   H896      1.0  0.12138  0.54560  0.69944  1.0000
  C   C530      1.0  0.01650  0.59348  0.80048  1.0000
  C   C531      1.0  0.26586  0.57970  0.53125  1.0000
  H   H897      1.0  0.27980  0.67651  0.52004  1.0000
  C   C532      1.0  0.16672  0.55805  0.51963  1.0000
  H   H898      1.0  0.09966  0.65715  0.55494  1.0000
  N   N28       1.0  0.15281  0.55036  0.66337  1.0000
  H   H899      1.0  0.27256  0.71730  0.95557  1.0000
  H   H900      1.0  0.06455  0.64269  0.96645  1.0000
  H   H901      1.0  0.17702  0.56086  0.73077  1.0000
  C   C533      1.0  0.18023  0.50943  0.95478  1.0000
  H   H902      1.0  0.15426  0.52993  0.69133  1.0000
  H   H903      1.0  0.15244  0.55385  0.51214  1.0000
  H   H904      1.0  0.30792  0.69709  0.53277  1.0000
  C   C534      1.0  0.08285  0.68438  0.50387  1.0000
  H   H905      1.0  0.07080  0.68743  0.54995  1.0000
  H   H906      1.0  0.16520  0.58113  0.66220  1.0000
  H   H907      1.0  0.29386  0.69839  0.96096  1.0000
  H   H908      1.0  0.18309  0.56117  0.65214  1.0000
  H   H909      1.0  0.27910  0.56817  0.53422  1.0000
  H   H910      1.0  0.10407  0.66264  0.58177  1.0000
  H   H911      1.0  0.27056  0.68059  0.98823  1.0000
  H   H912      1.0  0.22304  0.57148  0.95819  1.0000
  H   H913      1.0  0.02584  0.55494  0.76501  1.0000
  C   C535      1.0  0.16309  0.54267  0.68317  1.0000
  H   H914      1.0  0.02693  0.59350  0.76782  1.0000
  H   H915      1.0  0.06523  0.71931  0.97990  1.0000
  C   C536      1.0  0.01233  0.71155  0.58458  1.0000
  Fe  Fe58      1.0  0.02935  0.71266  0.50290  1.0000
  H   H916      1.0  0.11990  0.52956  0.64244  1.0000
  H   H917      1.0  0.25681  0.54903  0.80324  1.0000
  C   C537      1.0  0.01954  0.74000  0.78043  1.0000
  C   C538      1.0  0.00990  0.58082  0.81780  1.0000
  H   H918      1.0  0.32329  0.70525  0.98696  1.0000
  H   H919      1.0  0.17885  0.53516  0.67917  1.0000
  H   H920      1.0  0.31897  0.55816  0.98042  1.0000
  S   S123      1.0  0.23520  0.53208  0.97830  1.0000
  H   H921      1.0  0.12381  0.64821  0.51126  1.0000
  H   H922      1.0  0.11596  0.55669  0.87867  1.0000
  H   H923      1.0  0.26878  0.58790  0.51576  1.0000
  S   S124      1.0  0.01367  0.69741  0.85920  1.0000
  C   C539      1.0  0.22880  0.52376  0.53271  1.0000
  H   H924      1.0  0.12624  0.51280  0.60889  1.0000
  H   H925      1.0  0.27604  0.51768  0.81777  1.0000
  S   S125      1.0  0.05503  0.68666  0.50845  1.0000
  H   H926      1.0  0.16288  0.51111  0.95506  1.0000
  C   C540      1.0  0.18596  0.54615  0.50983  1.0000
  H   H927      1.0  0.03993  0.73479  0.56488  1.0000
  H   H928      1.0  0.20614  0.52897  0.94491  1.0000
  H   H929      1.0  0.20518  0.49924  0.97492  1.0000
  H   H930      1.0  0.11490  0.73044  0.95060  1.0000
  C   C541      1.0  0.30019  0.70256  0.51881  1.0000
  H   H931      1.0  0.01893  0.68347  0.97201  1.0000
  C   C542      1.0  0.24519  0.56880  0.53210  1.0000
  H   H932      1.0  0.08499  0.65262  0.51662  1.0000
  H   H933      1.0  0.07887  0.74192  0.62377  1.0000
  C   C543      1.0  0.07602  0.70514  0.98141  1.0000
  S   S126      1.0  0.00864  0.64598  0.86040  1.0000
  C   C544      1.0  0.28003  0.70729  0.96801  1.0000
  H   H934      1.0  0.22850  0.53160  0.54785  1.0000
  C   C545      1.0  0.24301  0.54392  0.81316  1.0000
  H   H935      1.0  0.23550  0.53031  0.84379  1.0000
  H   H936      1.0  0.28415  0.56860  0.99576  1.0000
  H   H937      1.0  0.10719  0.69662  0.96720  1.0000
  S   S127      1.0  0.14840  0.70259  0.98776  1.0000
  C   C546      1.0  0.07959  0.66699  0.98205  1.0000
  H   H938      1.0  0.03438  0.66378  0.93062  1.0000
  H   H939      1.0  0.21273  0.73936  0.96830  1.0000
  H   H940      1.0  0.09673  0.72726  0.54392  1.0000
  C   C547      1.0  0.20647  0.55349  0.51820  1.0000
  C   C548      1.0  0.31826  0.54494  0.85955  1.0000
  H   H941      1.0  0.24965  0.70010  0.98318  1.0000
  C   C549      1.0  0.22209  0.74537  0.97993  1.0000
  H   H942      1.0  0.04959  0.74461  0.76434  1.0000
  S   S128      1.0  0.18564  0.61963  0.50905  1.0000
  N   N29       1.0  0.22627  0.53974  0.51476  1.0000
  Fe  Fe59      1.0  0.24924  0.50030  0.99043  1.0000
  H   H943      1.0  0.10758  0.73339  0.97798  1.0000
  Fe  Fe60      1.0  0.18128  0.69269  0.99643  1.0000
  Fe  Fe61      1.0  0.18319  0.65404  0.49943  1.0000
  H   H944      1.0  0.28648  0.50662  0.89299  1.0000
  H   H945      1.0  0.08334  0.70613  0.99665  1.0000
  C   C550      1.0  0.21198  0.50735  0.53595  1.0000
  H   H946      1.0  0.29875  0.55066  0.96429  1.0000
  C   C551      1.0  0.06384  0.74414  0.59397  1.0000
  H   H947      1.0  0.25915  0.68264  0.96310  1.0000
  S   S129      1.0  0.32735  0.73490  0.51761  1.0000
  H   H948      1.0  0.24336  0.56070  0.54772  1.0000
  H   H949      1.0  0.31215  0.53115  0.98056  1.0000
  H   H950      1.0  0.00785  0.66606  0.94167  1.0000
  H   H951      1.0  0.24850  0.50266  0.49929  1.0000
  Fe  Fe62      1.0  0.01822  0.49925  0.76885  1.0000
  H   H952      1.0  0.08097  0.61225  0.98536  1.0000
  H   H953      1.0  0.01294  0.55159  0.71391  1.0000
  C   C552      1.0  0.28920  0.55178  0.99734  1.0000
  H   H954      1.0  0.15171  0.50783  0.99366  1.0000
  H   H955      1.0  0.05808  0.64285  0.99440  1.0000
  S   S130      1.0  0.03138  0.74702  0.50796  1.0000
  H   H956      1.0  0.20993  0.49923  0.52138  1.0000
  H   H957      1.0  0.32363  0.53672  0.87413  1.0000
  H   H958      1.0  0.32579  0.71519  0.96076  1.0000
  H   H959      1.0  0.00898  0.57867  0.70550  1.0000
  C   C553      1.0  0.00499  0.56680  0.71811  1.0000
  H   H960      1.0  0.18598  0.51699  0.98623  1.0000
  H   H961      1.0  0.08905  0.66754  0.99606  1.0000
  C   C554      1.0  0.18795  0.50278  0.97681  1.0000
  H   H962      1.0  0.18388  0.54287  0.95769  1.0000
  H   H963      1.0  0.27582  0.54218  0.99483  1.0000
  C   C555      1.0  0.30044  0.74754  0.96128  1.0000
  H   H964      1.0  0.24699  0.50070  0.86855  1.0000
  Fe  Fe63      1.0  0.17097  0.64563  0.99820  1.0000
  H   H965      1.0  0.14658  0.76242  0.07286  1.0000
  C   C556      1.0  0.05597  0.83047  0.39429  1.0000
  H   H966      1.0  0.29198  0.97274  0.06871  1.0000
  H   H967      1.0  0.04163  0.82258  0.18657  1.0000
  H   H968      1.0  0.23650  0.89905  0.44931  1.0000
  C   C557      1.0  0.28375  0.98141  0.27834  1.0000
  C   C558      1.0  0.22876  0.98440  0.42036  1.0000
  H   H969      1.0  0.29329  0.93193  0.22456  1.0000
  H   H970      1.0  0.31738  0.90906  0.41980  1.0000
  S   S131      1.0  0.29370  0.96759  0.12936  1.0000
  H   H971      1.0  0.29257  0.75986  0.99956  1.0000
  Fe  Fe64      1.0  0.29739  0.96836  0.16433  1.0000
  S   S132      1.0  0.27244  0.95754  0.18969  1.0000
  C   C559      1.0  0.29411  0.87526  0.49609  1.0000
  Fe  Fe65      1.0  0.30686  0.84029  0.02527  1.0000
  S   S133      1.0  0.29607  0.85711  0.05524  1.0000
  N   N30       1.0  0.07123  0.81447  0.38429  1.0000
  S   S134      1.0  0.30806  0.80536  0.02094  1.0000
  H   H972      1.0  0.24574  0.90181  0.01211  1.0000
  Fe  Fe66      1.0  0.17637  0.97068  0.33961  1.0000
  S   S135      1.0  0.18077  0.95116  0.31079  1.0000
  S   S136      1.0  0.18752  0.95788  0.37163  1.0000
  H   H973      1.0  0.30278  0.95074  0.08415  1.0000
  Fe  Fe67      1.0  0.14636  0.95959  0.30655  1.0000
  S   S137      1.0  0.12256  0.93932  0.29266  1.0000
  Fe  Fe68      1.0  0.18745  0.98138  0.29246  1.0000
  C   C560      1.0  0.31396  0.86452  0.49479  1.0000
  S   S138      1.0  0.14152  0.97724  0.33620  1.0000
  S   S139      1.0  0.02598  0.84670  0.28225  1.0000
  H   H974      1.0  0.04841  0.80501  0.36343  1.0000
  S   S140      1.0  0.04160  0.80944  0.31491  1.0000
  C   C561      1.0  0.32981  0.89776  0.49816  1.0000
  Fe  Fe69      1.0  0.04063  0.84484  0.31343  1.0000
  S   S141      1.0  0.06880  0.86127  0.32471  1.0000
  Fe  Fe70      1.0  0.02435  0.81141  0.28499  1.0000
  S   S142      1.0  0.00963  0.84784  0.33238  1.0000
  C   C562      1.0  0.00618  0.80337  0.39714  1.0000
  H   H975      1.0  0.06453  0.84132  0.40338  1.0000
  H   H976      1.0  0.04916  0.75600  0.37364  1.0000
  H   H977      1.0  0.01722  0.85147  0.40294  1.0000
  C   C563      1.0  0.33181  0.87589  0.49604  1.0000
  H   H978      1.0  0.30193  0.92529  0.05504  1.0000
  S   S143      1.0  0.03499  0.79117  0.25672  1.0000
  C   C564      1.0  0.10646  0.91879  0.30264  1.0000
  C   C565      1.0  0.10765  0.90993  0.32300  1.0000
  C   C566      1.0  0.09581  0.89256  0.32950  1.0000
  C   C567      1.0  0.08228  0.88405  0.31598  1.0000
  C   C568      1.0  0.08081  0.89315  0.29576  1.0000
  C   C569      1.0  0.09292  0.91028  0.28913  1.0000
  H   H979      1.0  0.11789  0.91627  0.33362  1.0000
  H   H980      1.0  0.09712  0.88569  0.34517  1.0000
  H   H981      1.0  0.07063  0.88676  0.28509  1.0000
  H   H982      1.0  0.09188  0.91693  0.27334  1.0000
  C   C570      1.0  0.27411  0.91725  0.01756  1.0000
  H   H983      1.0  0.30340  0.88670  0.41381  1.0000
  H   H984      1.0  0.30312  0.90508  0.00299  1.0000
  H   H985      1.0  0.32928  0.75709  0.03265  1.0000
  N   N31       1.0  0.32867  0.98152  0.23361  1.0000
  C   C571      1.0  0.24450  0.95318  0.22419  1.0000
  H   H986      1.0  0.29571  0.97889  0.43086  1.0000
  C   C572      1.0  0.05727  0.76283  0.35930  1.0000
  C   C573      1.0  0.25566  0.96740  0.21089  1.0000
  C   C574      1.0  0.22915  0.98130  0.24562  1.0000
  H   H987      1.0  0.15014  0.76744  0.03412  1.0000
  C   C575      1.0  0.24022  0.99554  0.23227  1.0000
  S   S144      1.0  0.00147  0.78772  0.35789  1.0000
  H   H988      1.0  0.32587  0.97066  0.26636  1.0000
  C   C576      1.0  0.16850  0.92583  0.24139  1.0000
  C   C577      1.0  0.30511  0.90359  0.09482  1.0000
  C   C578      1.0  0.29614  0.88824  0.08358  1.0000
  C   C579      1.0  0.30825  0.87642  0.06878  1.0000
  C   C580      1.0  0.07376  0.79365  0.42010  1.0000
  H   H989      1.0  0.32263  0.77446  0.40986  1.0000
  H   H990      1.0  0.29555  0.91254  0.10608  1.0000
  H   H991      1.0  0.27966  0.88551  0.08637  1.0000
  C   C581      1.0  0.24589  0.90445  0.46179  1.0000
  H   H992      1.0  0.06232  0.80422  0.42872  1.0000
  C   C582      1.0  0.02766  0.85979  0.39124  1.0000
  C   C583      1.0  0.21591  0.96779  0.42581  1.0000
  C   C584      1.0  0.20325  0.96011  0.41082  1.0000
  C   C585      1.0  0.20296  0.96904  0.39024  1.0000
  C   C586      1.0  0.23047  0.91148  0.47956  1.0000
  H   H993      1.0  0.09792  0.79764  0.44201  1.0000
  H   H994      1.0  0.21580  0.96079  0.44153  1.0000
  H   H995      1.0  0.19357  0.94713  0.41520  1.0000
  C   C587      1.0  0.23128  0.96004  0.24133  1.0000
  C   C588      1.0  0.32647  0.90712  0.09162  1.0000
  C   C589      1.0  0.29807  0.91223  0.01805  1.0000
  H   H996      1.0  0.08582  0.84227  0.37076  1.0000
  Fe  Fe71      1.0  0.00984  0.81257  0.33202  1.0000
  C   C590      1.0  0.07155  0.77979  0.36489  1.0000
  C   C591      1.0  0.05878  0.79799  0.37550  1.0000
  H   H997      1.0  0.07943  0.78566  0.35001  1.0000
  H   H998      1.0  0.04486  0.82273  0.40573  1.0000
  H   H999      1.0  0.01272  0.84396  0.20572  1.0000
  C   C592      1.0  0.02523  0.77080  0.24216  1.0000
  H   H1000     1.0  0.10088  0.77337  0.42840  1.0000
  H   H1001     1.0  0.08335  0.77227  0.37520  1.0000
  C   C593      1.0  0.08504  0.80535  0.40116  1.0000
  N   N32       1.0  0.27523  0.91753  0.43537  1.0000
  C   C594      1.0  0.28511  0.93750  0.42757  1.0000
  C   C595      1.0  0.26441  0.90901  0.41757  1.0000
  C   C596      1.0  0.25993  0.92244  0.45357  1.0000
  C   C597      1.0  0.29144  0.90130  0.44285  1.0000
  H   H1002     1.0  0.31420  0.93544  0.44479  1.0000
  C   C598      1.0  0.30046  0.94642  0.44226  1.0000
  S   S145      1.0  0.28798  0.98940  0.47881  1.0000
  C   C599      1.0  0.24537  0.92264  0.40971  1.0000
  C   C600      1.0  0.23571  0.91261  0.39166  1.0000
  C   C601      1.0  0.30962  0.92794  0.21860  1.0000
  C   C602      1.0  0.00550  0.78574  0.38521  1.0000
  H   H1003     1.0  0.04547  0.80650  0.21021  1.0000
  H   H1004     1.0  0.27275  0.95017  0.42484  1.0000
  H   H1005     1.0  0.29355  0.93553  0.41202  1.0000
  H   H1006     1.0  0.27563  0.90711  0.40374  1.0000
  H   H1007     1.0  0.25928  0.89296  0.42180  1.0000
  H   H1008     1.0  0.24954  0.93648  0.44968  1.0000
  H   H1009     1.0  0.26849  0.92689  0.46716  1.0000
  H   H1010     1.0  0.29847  0.90645  0.45706  1.0000
  H   H1011     1.0  0.28405  0.88647  0.44795  1.0000
  N   N33       1.0  0.31120  0.93030  0.02216  1.0000
  H   H1012     1.0  0.10692  0.82437  0.32821  1.0000
  H   H1013     1.0  0.29250  0.94955  0.45771  1.0000
  H   H1014     1.0  0.28493  0.98409  0.24491  1.0000
  H   H1015     1.0  0.25550  0.89086  0.46803  1.0000
  H   H1016     1.0  0.13486  0.75257  0.01821  1.0000
  H   H1017     1.0  0.23290  0.92463  0.42234  1.0000
  H   H1018     1.0  0.25010  0.93839  0.40394  1.0000
  H   H1019     1.0  0.24735  0.91091  0.37818  1.0000
  H   H1020     1.0  0.23000  0.89703  0.39679  1.0000
  H   H1021     1.0  0.22218  0.92273  0.38636  1.0000
  S   S146      1.0  0.21322  0.99107  0.26741  1.0000
  C   C603      1.0  0.00514  0.76337  0.24612  1.0000
  H   H1022     1.0  0.03692  0.87072  0.39937  1.0000
  S   S147      1.0  0.01845  0.77912  0.45553  1.0000
  H   H1023     1.0  0.31326  0.76747  0.43626  1.0000
  Fe  Fe72      1.0  0.25356  0.98920  0.47287  1.0000
  C   C604      1.0  0.18736  0.76610  0.08470  1.0000
  H   H1024     1.0  0.00467  0.81377  0.18732  1.0000
  H   H1025     1.0  0.17327  0.98060  0.20929  1.0000
  N   N34       1.0  0.16152  0.88256  0.28644  1.0000
  C   C605      1.0  0.14239  0.87016  0.29173  1.0000
  C   C606      1.0  0.16518  0.89578  0.30466  1.0000
  C   C607      1.0  0.15678  0.89733  0.26793  1.0000
  C   C608      1.0  0.18092  0.86895  0.28064  1.0000
  C   C609      1.0  0.18274  0.84667  0.29133  1.0000
  C   C610      1.0  0.13371  0.85934  0.27316  1.0000
  C   C611      1.0  0.17293  0.91418  0.26220  1.0000
  C   C612      1.0  0.16795  0.88431  0.32623  1.0000
  C   C613      1.0  0.16955  0.89998  0.34329  1.0000
  C   C614      1.0  0.20458  0.83629  0.28703  1.0000
  C   C615      1.0  0.11827  0.84292  0.28085  1.0000
  H   H1026     1.0  0.32360  0.94036  0.24463  1.0000
  H   H1027     1.0  0.12935  0.88055  0.29823  1.0000
  H   H1028     1.0  0.14515  0.85814  0.30444  1.0000
  H   H1029     1.0  0.17955  0.90463  0.30144  1.0000
  H   H1030     1.0  0.15202  0.90777  0.30671  1.0000
  H   H1031     1.0  0.14119  0.90571  0.27062  1.0000
  H   H1032     1.0  0.15550  0.88845  0.25359  1.0000
  H   H1033     1.0  0.18225  0.86650  0.26348  1.0000
  H   H1034     1.0  0.19526  0.87713  0.28366  1.0000
  H   H1035     1.0  0.17129  0.83654  0.28512  1.0000
  H   H1036     1.0  0.17961  0.84677  0.30849  1.0000
  H   H1037     1.0  0.12513  0.87116  0.26310  1.0000
  H   H1038     1.0  0.14651  0.85168  0.26332  1.0000
  H   H1039     1.0  0.18914  0.90704  0.26098  1.0000
  H   H1040     1.0  0.17194  0.92612  0.27425  1.0000
  H   H1041     1.0  0.15452  0.87465  0.33107  1.0000
  H   H1042     1.0  0.18273  0.87443  0.32585  1.0000
  H   H1043     1.0  0.17135  0.89150  0.35867  1.0000
  H   H1044     1.0  0.18336  0.90960  0.33987  1.0000
  H   H1045     1.0  0.15520  0.91057  0.34454  1.0000
  H   H1046     1.0  0.20819  0.83521  0.26990  1.0000
  H   H1047     1.0  0.21665  0.84533  0.29377  1.0000
  H   H1048     1.0  0.20528  0.82021  0.29437  1.0000
  H   H1049     1.0  0.31982  0.97294  0.44364  1.0000
  H   H1050     1.0  0.00867  0.87316  0.22175  1.0000
  H   H1051     1.0  0.11161  0.83614  0.26723  1.0000
  H   H1052     1.0  0.31379  0.91146  0.22358  1.0000
  C   C616      1.0  0.32608  0.88066  0.43701  1.0000
  C   C617      1.0  0.03787  0.76240  0.22543  1.0000
  C   C618      1.0  0.22845  0.99334  0.39980  1.0000
  H   H1053     1.0  0.17993  0.76361  0.05282  1.0000
  H   H1054     1.0  0.18006  0.93803  0.23801  1.0000
  C   C619      1.0  0.01284  0.81133  0.20212  1.0000
  H   H1055     1.0  0.08088  0.77671  0.44919  1.0000
  C   C620      1.0  0.21559  0.98584  0.38490  1.0000
  C   C621      1.0  0.25316  0.98872  0.21494  1.0000
  C   C622      1.0  0.17918  0.75361  0.06747  1.0000
  C   C623      1.0  0.08404  0.82567  0.36699  1.0000
  H   H1056     1.0  0.22291  0.94885  0.25133  1.0000
  H   H1057     1.0  0.25596  0.76756  0.02132  1.0000
  H   H1058     1.0  0.26725  0.97672  0.27920  1.0000
  H   H1059     1.0  0.09729  0.79410  0.39475  1.0000
  H   H1060     1.0  0.11592  0.84486  0.34328  1.0000
  Fe  Fe73      1.0  0.32606  0.95175  0.12744  1.0000
  H   H1061     1.0  0.05187  0.85350  0.36763  1.0000
  H   H1062     1.0  0.17721  0.78050  0.08728  1.0000
  H   H1063     1.0  0.08821  0.75948  0.07561  1.0000
  H   H1064     1.0  0.30332  0.96846  0.21825  1.0000
  C   C624      1.0  0.04221  0.84424  0.37919  1.0000
  H   H1065     1.0  0.10514  0.85013  0.29068  1.0000
  C   C625      1.0  0.29429  0.97600  0.25710  1.0000
  H   H1066     1.0  0.01774  0.86908  0.38012  1.0000
  C   C626      1.0  0.10680  0.81696  0.36184  1.0000
  H   H1067     1.0  0.20349  0.77077  0.08000  1.0000
  C   C627      1.0  0.31767  0.98177  0.25524  1.0000
  H   H1068     1.0  0.23903  0.91551  0.49327  1.0000
  H   H1069     1.0  0.03227  0.83453  0.37049  1.0000
  H   H1070     1.0  0.10774  0.79990  0.35975  1.0000
  C   C628      1.0  0.31377  0.75083  0.03740  1.0000
  H   H1071     1.0  0.31731  0.96444  0.41752  1.0000
  C   C629      1.0  0.30949  0.89517  0.42668  1.0000
  H   H1072     1.0  0.18792  0.75646  0.09958  1.0000
  H   H1073     1.0  0.99962  0.93597  0.33996  1.0000
  H   H1074     1.0  0.31902  0.86632  0.44411  1.0000
  H   H1075     1.0  0.06541  0.78025  0.41498  1.0000
  S   S148      1.0  0.15340  0.98855  0.28629  1.0000
  S   S149      1.0  0.24818  0.96073  0.49416  1.0000
  H   H1076     1.0  0.16986  0.91491  0.22837  1.0000
  C   C630      1.0  0.31739  0.95448  0.05260  1.0000
  H   H1077     1.0  0.28760  0.94631  0.04233  1.0000
  H   H1078     1.0  0.05349  0.76779  0.22218  1.0000
  H   H1079     1.0  0.04792  0.79125  0.38786  1.0000
  C   C631      1.0  0.08942  0.78484  0.43582  1.0000
  H   H1080     1.0  0.24612  0.93668  0.22119  1.0000
  S   S150      1.0  0.32904  0.95043  0.16257  1.0000
  C   C632      1.0  0.03627  0.80869  0.19601  1.0000
  C   C633      1.0  0.24664  0.76149  0.00968  1.0000
  H   H1081     1.0  0.03936  0.79464  0.18655  1.0000
  H   H1082     1.0  0.29311  0.95896  0.25543  1.0000
  H   H1083     1.0  0.21567  0.99290  0.36920  1.0000
  H   H1084     1.0  0.09376  0.81802  0.40744  1.0000
  H   H1085     1.0  0.19476  0.99683  0.21278  1.0000
  S   S151      1.0  0.31553  0.83724  0.49034  1.0000
  S   S152      1.0  0.28586  0.84672  0.99844  1.0000
  H   H1086     1.0  0.07555  0.82646  0.35225  1.0000
  H   H1087     1.0  0.13255  0.82163  0.33864  1.0000
  C   C634      1.0  0.16618  0.75734  0.00559  1.0000
  C   C635      1.0  0.32956  0.88008  0.06546  1.0000
  S   S153      1.0  0.24594  0.99431  0.43816  1.0000
  H   H1088     1.0  0.26739  0.92196  0.03312  1.0000
  H   H1089     1.0  0.11685  0.82010  0.37478  1.0000
  H   H1090     1.0  0.00706  0.75202  0.38629  1.0000
  C   C636      1.0  0.11610  0.82764  0.34177  1.0000
  H   H1091     1.0  0.22047  0.92528  0.47432  1.0000
  C   C637      1.0  0.00995  0.80105  0.41865  1.0000
  C   C638      1.0  0.30880  0.96693  0.43290  1.0000
  C   C639      1.0  0.01276  0.78111  0.42861  1.0000
  H   H1092     1.0  0.12627  0.83008  0.29014  1.0000
  C   C640      1.0  0.26288  0.89802  0.01204  1.0000
  C   C641      1.0  0.30353  0.93852  0.04320  1.0000
  H   H1093     1.0  0.30052  0.89943  0.03024  1.0000
  Fe  Fe74      1.0  0.01183  0.75215  0.47958  1.0000
  H   H1094     1.0  0.15253  0.93365  0.24225  1.0000
  H   H1095     1.0  0.26579  0.88491  0.02373  1.0000
  H   H1096     1.0  0.04536  0.76939  0.34849  1.0000
  H   H1097     1.0  0.31723  0.97396  0.07946  1.0000
  C   C642      1.0  0.32037  0.96568  0.21998  1.0000
  C   C643      1.0  0.15066  0.75360  0.02431  1.0000
  H   H1098     1.0  0.29255  0.95536  0.00715  1.0000
  H   H1099     1.0  0.31901  0.96079  0.00899  1.0000
  H   H1100     1.0  0.30199  0.76400  0.03988  1.0000
  C   C644      1.0  0.00807  0.83034  0.21597  1.0000
  C   C645      1.0  0.32733  0.76750  0.42521  1.0000
  H   H1101     1.0  0.32062  0.96783  0.04147  1.0000
  Fe  Fe75      1.0  0.31045  0.99783  0.12636  1.0000
  C   C646      1.0  0.30873  0.94802  0.00593  1.0000
  H   H1102     1.0  0.01907  0.82907  0.22894  1.0000
  C   C647      1.0  0.00779  0.76579  0.39529  1.0000
  C   C648      1.0  0.30661  0.96349  0.07241  1.0000
  H   H1103     1.0  0.29204  0.97298  0.29126  1.0000
  H   H1104     1.0  0.22018  0.89858  0.48459  1.0000
  H   H1105     1.0  0.00805  0.79657  0.21021  1.0000
  C   C649      1.0  0.01153  0.76347  0.41682  1.0000
  H   H1106     1.0  0.00228  0.91553  0.32143  1.0000
  H   H1107     1.0  0.28020  0.86660  0.49523  1.0000
  H   H1108     1.0  0.18196  0.75986  0.01101  1.0000
  H   H1109     1.0  0.31043  0.92921  0.20122  1.0000
  H   H1110     1.0  0.01056  0.81481  0.42770  1.0000
  H   H1111     1.0  0.27052  0.92989  0.00565  1.0000
  C   C650      1.0  0.32477  0.94243  0.22731  1.0000
  C   C651      1.0  0.18012  0.99074  0.22036  1.0000
  H   H1112     1.0  0.32738  0.96759  0.20370  1.0000
  H   H1113     1.0  0.12042  0.75268  0.05306  1.0000
  H   H1114     1.0  0.18400  0.98100  0.23459  1.0000
  H   H1115     1.0  0.00359  0.81877  0.38980  1.0000
  H   H1116     1.0  0.06672  0.75013  0.35137  1.0000
  H   H1117     1.0  0.31861  0.99740  0.26191  1.0000
  H   H1118     1.0  0.08214  0.83519  0.71588  1.0000
  S   S154      1.0  0.01703  0.85742  0.66218  1.0000
  H   H1119     1.0  0.08008  0.97895  0.75830  1.0000
  Fe  Fe76      1.0  0.24184  0.98355  0.52017  1.0000
  H   H1120     1.0  0.08939  0.76114  0.60483  1.0000
  S   S155      1.0  0.27543  0.98258  0.52862  1.0000
  H   H1121     1.0  0.23702  0.95252  0.69736  1.0000
  S   S156      1.0  0.31796  0.81671  0.97053  1.0000
  H   H1122     1.0  0.10058  0.75974  0.52070  1.0000
  H   H1123     1.0  0.05830  0.86671  0.81760  1.0000
  Fe  Fe77      1.0  0.31583  0.85066  0.97883  1.0000
  C   C652      1.0  0.20710  0.98830  0.61533  1.0000
  H   H1124     1.0  0.07699  0.75413  0.50839  1.0000
  H   H1125     1.0  0.07459  0.97684  0.65196  1.0000
  S   S157      1.0  0.31239  0.95884  0.81961  1.0000
  Fe  Fe78      1.0  0.02027  0.82228  0.66009  1.0000
  Fe  Fe79      1.0  0.31447  0.95167  0.85442  1.0000
  H   H1126     1.0  0.01456  0.81875  0.75367  1.0000
  C   C653      1.0  0.07439  0.99330  0.65670  1.0000
  S   S158      1.0  0.28922  0.97604  0.86327  1.0000
  H   H1127     1.0  0.26093  0.95741  0.68166  1.0000
  S   S159      1.0  0.18250  0.95490  0.68477  1.0000
  H   H1128     1.0  0.12028  0.96303  0.59746  1.0000
  H   H1129     1.0  0.13678  0.92917  0.63095  1.0000
  S   S160      1.0  0.14611  0.96990  0.71883  1.0000
  Fe  Fe80      1.0  0.18135  0.97185  0.71501  1.0000
  S   S161      1.0  0.20761  0.96057  0.73699  1.0000
  Fe  Fe81      1.0  0.14717  0.95589  0.68718  1.0000
  S   S162      1.0  0.12924  0.92963  0.67436  1.0000
  H   H1130     1.0  0.28821  0.98663  0.73423  1.0000
  C   C654      1.0  0.02553  0.76467  0.75004  1.0000
  S   S163      1.0  0.03693  0.81795  0.69054  1.0000
  H   H1131     1.0  0.09348  0.98268  0.68174  1.0000
  H   H1132     1.0  0.31682  0.97545  0.97214  1.0000
  Fe  Fe82      1.0  0.03105  0.85298  0.69344  1.0000
  S   S164      1.0  0.05126  0.87631  0.70831  1.0000
  H   H1133     1.0  0.06433  0.76633  0.61844  1.0000
  H   H1134     1.0  0.24126  0.95628  0.89534  1.0000
  C   C655      1.0  0.03102  0.79282  0.58952  1.0000
  H   H1135     1.0  0.07877  0.77886  0.52023  1.0000
  H   H1136     1.0  0.04590  0.79981  0.58608  1.0000
  C   C656      1.0  0.10716  0.91549  0.68404  1.0000
  C   C657      1.0  0.09831  0.91719  0.70445  1.0000
  C   C658      1.0  0.08118  0.90519  0.71150  1.0000
  C   C659      1.0  0.07265  0.89131  0.69830  1.0000
  C   C660      1.0  0.08134  0.88980  0.67780  1.0000
  C   C661      1.0  0.09845  0.90182  0.67076  1.0000
  H   H1137     1.0  0.10495  0.92740  0.71494  1.0000
  H   H1138     1.0  0.07466  0.90648  0.72740  1.0000
  H   H1139     1.0  0.07498  0.87927  0.66743  1.0000
  H   H1140     1.0  0.10504  0.90040  0.65491  1.0000
  H   H1141     1.0  0.32001  0.75806  0.99677  1.0000
  H   H1142     1.0  0.24835  0.99488  0.67645  1.0000
  C   C662      1.0  0.19151  0.98816  0.58151  1.0000
  H   H1143     1.0  0.10207  0.97814  0.71422  1.0000
  C   C663      1.0  0.25096  0.96569  0.78093  1.0000
  C   C664      1.0  0.23958  0.95889  0.76445  1.0000
  C   C665      1.0  0.22067  0.96942  0.75871  1.0000
  H   H1144     1.0  0.24417  0.97829  0.57551  1.0000
  C   C666      1.0  0.14092  0.86742  0.63717  1.0000
  H   H1145     1.0  0.26561  0.95758  0.78478  1.0000
  H   H1146     1.0  0.24564  0.94548  0.75590  1.0000
  H   H1147     1.0  0.01979  0.79577  0.78488  1.0000
  H   H1148     1.0  0.31048  0.87632  0.88577  1.0000
  H   H1149     1.0  0.31354  0.95786  0.95172  1.0000
  H   H1150     1.0  0.13001  0.89584  0.62149  1.0000
  C   C667      1.0  0.31810  0.89166  0.93490  1.0000
  C   C668      1.0  0.31414  0.87853  0.91893  1.0000
  C   C669      1.0  0.31333  0.88663  0.89805  1.0000
  C   C670      1.0  0.31614  0.90795  0.89294  1.0000
  H   H1151     1.0  0.02743  0.76759  0.81322  1.0000
  C   C671      1.0  0.04206  0.77504  0.81654  1.0000
  H   H1152     1.0  0.17799  0.95571  0.86803  1.0000
  S   S165      1.0  0.31415  0.91748  0.86653  1.0000
  N   N35       1.0  0.06216  0.98807  0.69600  1.0000
  H   H1153     1.0  0.00506  0.86818  0.59247  1.0000
  C   C672      1.0  0.18669  0.94038  0.87059  1.0000
  H   H1154     1.0  0.28526  0.75674  0.96373  1.0000
  C   C673      1.0  0.04927  0.78935  0.79802  1.0000
  H   H1155     1.0  0.28803  0.96287  0.92398  1.0000
  H   H1156     1.0  0.11566  0.96307  0.62570  1.0000
  H   H1157     1.0  0.28584  0.99445  0.77188  1.0000
  C   C674      1.0  0.07489  0.75390  0.61130  1.0000
  C   C675      1.0  0.32012  0.92105  0.90891  1.0000
  H   H1158     1.0  0.24830  0.97781  0.72264  1.0000
  C   C676      1.0  0.04071  0.95964  0.68005  1.0000
  H   H1159     1.0  0.20569  0.95272  0.89304  1.0000
  H   H1160     1.0  0.27062  0.98411  0.70623  1.0000
  C   C677      1.0  0.00149  0.78594  0.61358  1.0000
  C   C678      1.0  0.09365  0.98104  0.74689  1.0000
  S   S166      1.0  0.21304  0.98201  0.54345  1.0000
  N   N36       1.0  0.24387  0.92440  0.88517  1.0000
  C   C679      1.0  0.22065  0.92279  0.88327  1.0000
  C   C680      1.0  0.25319  0.90365  0.89349  1.0000
  C   C681      1.0  0.24665  0.94038  0.90130  1.0000
  C   C682      1.0  0.25504  0.93134  0.86474  1.0000
  C   C683      1.0  0.24672  0.92401  0.84416  1.0000
  C   C684      1.0  0.20821  0.94386  0.87851  1.0000
  C   C685      1.0  0.26934  0.94212  0.90811  1.0000
  C   C686      1.0  0.25204  0.88461  0.87971  1.0000
  C   C687      1.0  0.25840  0.86423  0.89172  1.0000
  C   C688      1.0  0.26193  0.92887  0.82547  1.0000
  H   H1161     1.0  0.09253  0.81983  0.73762  1.0000
  C   C689      1.0  0.07949  0.99361  0.68000  1.0000
  H   H1162     1.0  0.21339  0.91578  0.89806  1.0000
  H   H1163     1.0  0.21751  0.91190  0.87106  1.0000
  H   H1164     1.0  0.27021  0.90460  0.89566  1.0000
  H   H1165     1.0  0.24583  0.89970  0.90932  1.0000
  H   H1166     1.0  0.32377  0.75571  0.56048  1.0000
  C   C690      1.0  0.08320  0.76186  0.52170  1.0000
  H   H1167     1.0  0.25464  0.94872  0.86293  1.0000
  H   H1168     1.0  0.27191  0.92638  0.86488  1.0000
  H   H1169     1.0  0.23148  0.93234  0.84098  1.0000
  H   H1170     1.0  0.24433  0.90706  0.84470  1.0000
  C   C691      1.0  0.22683  0.98403  0.60503  1.0000
  H   H1171     1.0  0.21681  0.95382  0.86662  1.0000
  H   H1172     1.0  0.28076  0.94209  0.89441  1.0000
  H   H1173     1.0  0.27371  0.92871  0.91896  1.0000
  H   H1174     1.0  0.23609  0.88292  0.87449  1.0000
  H   H1175     1.0  0.26323  0.88616  0.86583  1.0000
  H   H1176     1.0  0.24721  0.86132  0.90536  1.0000
  H   H1177     1.0  0.25837  0.85091  0.88125  1.0000
  H   H1178     1.0  0.27440  0.86485  0.89739  1.0000
  H   H1179     1.0  0.27728  0.92016  0.82734  1.0000
  H   H1180     1.0  0.25539  0.92419  0.81082  1.0000
  H   H1181     1.0  0.26441  0.94590  0.82400  1.0000
  C   C692      1.0  0.27156  0.96212  0.91966  1.0000
  H   H1182     1.0  0.03769  0.92777  0.69333  1.0000
  H   H1183     1.0  0.32463  0.92307  0.94185  1.0000
  H   H1184     1.0  0.06346  0.79676  0.80228  1.0000
  S   S167      1.0  0.30868  0.93624  0.50087  1.0000
  C   C693      1.0  0.03139  0.80545  0.79173  1.0000
  S   S168      1.0  0.31928  0.88266  0.96158  1.0000
  C   C694      1.0  0.02077  0.79503  0.60946  1.0000
  C   C695      1.0  0.30923  0.77743  0.93549  1.0000
  H   H1185     1.0  0.05153  0.95903  0.71085  1.0000
  H   H1186     1.0  0.05431  0.76240  0.81942  1.0000
  C   C696      1.0  0.31731  0.76272  0.95311  1.0000
  H   H1187     1.0  0.03021  0.78044  0.55865  1.0000
  H   H1188     1.0  0.08530  0.85695  0.81562  1.0000
  S   S169      1.0  0.03288  0.80903  0.62858  1.0000
  H   H1189     1.0  0.07214  0.95561  0.69128  1.0000
  C   C697      1.0  0.05744  0.96523  0.69514  1.0000
  H   H1190     1.0  0.23484  0.76950  0.95887  1.0000
  C   C698      1.0  0.07421  0.75276  0.54266  1.0000
  H   H1191     1.0  0.26842  0.89297  0.99619  1.0000
  H   H1192     1.0  0.30526  0.92945  0.97817  1.0000
  C   C699      1.0  0.23471  0.76254  0.97462  1.0000
  C   C700      1.0  0.07080  0.85961  0.80694  1.0000
  S   S170      1.0  0.20564  0.99264  0.64267  1.0000
  H   H1193     1.0  0.08153  0.76079  0.55508  1.0000
  C   C701      1.0  0.06968  0.99146  0.71748  1.0000
  H   H1194     1.0  0.03619  0.77128  0.73810  1.0000
  S   S171      1.0  0.14432  0.98676  0.66876  1.0000
  H   H1195     1.0  0.08376  0.95979  0.72522  1.0000
  H   H1196     1.0  0.13627  0.87260  0.65320  1.0000
  C   C702      1.0  0.24343  0.98301  0.79225  1.0000
  C   C703      1.0  0.01786  0.83054  0.76502  1.0000
  C   C704      1.0  0.04069  0.93599  0.67783  1.0000
  H   H1197     1.0  0.23666  0.93701  0.91582  1.0000
  H   H1198     1.0  0.05601  0.92995  0.67078  1.0000
  N   N37       1.0  0.03713  0.82337  0.77655  1.0000
  C   C705      1.0  0.05375  0.81592  0.76044  1.0000
  S   S172      1.0  0.26318  0.79229  0.98129  1.0000
  H   H1199     1.0  0.02057  0.84521  0.75542  1.0000
  C   C706      1.0  0.04365  0.84181  0.78792  1.0000
  C   C707      1.0  0.06425  0.83879  0.79942  1.0000
  C   C708      1.0  0.06026  0.83222  0.74292  1.0000
  H   H1200     1.0  0.23589  0.96068  0.67011  1.0000
  Fe  Fe83      1.0  0.28860  0.98449  0.82852  1.0000
  C   C709      1.0  0.22889  0.98168  0.58316  1.0000
  C   C710      1.0  0.25397  0.98911  0.71008  1.0000
  C   C711      1.0  0.07833  0.82342  0.72867  1.0000
  H   H1201     1.0  0.12798  0.85866  0.63166  1.0000
  H   H1202     1.0  0.04823  0.80227  0.75260  1.0000
  H   H1203     1.0  0.06827  0.80993  0.76779  1.0000
  C   C712      1.0  0.30857  0.96152  0.96810  1.0000
  H   H1204     1.0  0.29538  0.78721  0.94130  1.0000
  C   C713      1.0  0.31404  0.94273  0.98284  1.0000
  H   H1205     1.0  0.17426  0.99431  0.61097  1.0000
  Fe  Fe84      1.0  0.17965  0.98651  0.66826  1.0000
  C   C714      1.0  0.21126  0.98395  0.57120  1.0000
  H   H1206     1.0  0.07743  0.83238  0.78921  1.0000
  H   H1207     1.0  0.06189  0.82827  0.81354  1.0000
  H   H1208     1.0  0.12814  0.98457  0.61171  1.0000
  H   H1209     1.0  0.06547  0.84661  0.74950  1.0000
  H   H1210     1.0  0.03919  0.78402  0.83093  1.0000
  H   H1211     1.0  0.17775  0.99004  0.57243  1.0000
  H   H1212     1.0  0.22506  0.98972  0.69254  1.0000
  H   H1213     1.0  0.04328  0.96701  0.66420  1.0000
  Fe  Fe85      1.0  0.28933  0.81214  0.99258  1.0000
  C   C715      1.0  0.24714  0.77080  0.98937  1.0000
  C   C716      1.0  0.18944  0.99039  0.60340  1.0000
  H   H1214     1.0  0.17745  0.93070  0.88223  1.0000
  C   C717      1.0  0.12669  0.96736  0.61230  1.0000
  Fe  Fe86      1.0  0.00460  0.81484  0.70617  1.0000
  H   H1215     1.0  0.04698  0.83648  0.73292  1.0000
  H   H1216     1.0  0.07389  0.80898  0.72149  1.0000
  S   S173      1.0  0.99946  0.84969  0.71073  1.0000
  C   C718      1.0  0.24205  0.98553  0.69019  1.0000
  H   H1217     1.0  0.32168  0.78801  0.92971  1.0000
  C   C719      1.0  0.32119  0.91290  0.92971  1.0000
  N   N38       1.0  0.16731  0.91904  0.61712  1.0000
  C   C720      1.0  0.18338  0.92991  0.62840  1.0000
  C   C721      1.0  0.14691  0.93227  0.61650  1.0000
  C   C722      1.0  0.16288  0.89898  0.62965  1.0000
  C   C723      1.0  0.17530  0.91345  0.59533  1.0000
  C   C724      1.0  0.18301  0.93167  0.58060  1.0000
  C   C725      1.0  0.20521  0.91815  0.62975  1.0000
  C   C726      1.0  0.14497  0.88627  0.62220  1.0000
  C   C727      1.0  0.14823  0.95636  0.61506  1.0000
  H   H1218     1.0  0.02485  0.96501  0.68636  1.0000
  C   C728      1.0  0.19391  0.92350  0.56046  1.0000
  C   C729      1.0  0.22030  0.93091  0.64080  1.0000
  H   H1219     1.0  0.15897  0.90241  0.64643  1.0000
  H   H1220     1.0  0.18636  0.94555  0.62101  1.0000
  H   H1221     1.0  0.13766  0.92781  0.60338  1.0000
  H   H1222     1.0  0.04480  0.85581  0.77699  1.0000
  H   H1223     1.0  0.17698  0.88803  0.62954  1.0000
  H   H1224     1.0  0.18813  0.90099  0.59608  1.0000
  H   H1225     1.0  0.16284  0.90639  0.58707  1.0000
  H   H1226     1.0  0.19439  0.94098  0.58795  1.0000
  H   H1227     1.0  0.16949  0.94207  0.57591  1.0000
  H   H1228     1.0  0.20411  0.90303  0.63880  1.0000
  H   H1229     1.0  0.21242  0.91522  0.61390  1.0000
  H   H1230     1.0  0.14917  0.88026  0.60644  1.0000
  H   H1231     1.0  0.07406  0.87069  0.79340  1.0000
  H   H1232     1.0  0.15412  0.96181  0.62972  1.0000
  H   H1233     1.0  0.15877  0.96147  0.60177  1.0000
  H   H1234     1.0  0.02825  0.93233  0.66744  1.0000
  C   C730      1.0  0.24420  0.96258  0.68456  1.0000
  H   H1235     1.0  0.26114  0.96232  0.93418  1.0000
  H   H1236     1.0  0.20819  0.91360  0.56401  1.0000
  H   H1237     1.0  0.18316  0.91430  0.55205  1.0000
  H   H1238     1.0  0.19874  0.93693  0.54997  1.0000
  H   H1239     1.0  0.23591  0.92243  0.64104  1.0000
  H   H1240     1.0  0.22222  0.94636  0.63251  1.0000
  H   H1241     1.0  0.21444  0.93328  0.65722  1.0000
  H   H1242     1.0  0.18840  0.93250  0.85545  1.0000
  H   H1243     1.0  0.24065  0.98253  0.61404  1.0000
  C   C731      1.0  0.02223  0.78171  0.57393  1.0000
  H   H1244     1.0  0.17716  0.93303  0.64467  1.0000
  H   H1245     1.0  0.05395  0.77932  0.78467  1.0000
  H   H1246     1.0  0.15516  0.85669  0.63783  1.0000
  H   H1247     1.0  0.31188  0.86213  0.92263  1.0000
  H   H1248     1.0  0.05960  0.75678  0.58243  1.0000
  H   H1249     1.0  0.19856  0.99492  0.76607  1.0000
  H   H1250     1.0  0.03136  0.84646  0.80006  1.0000
  H   H1251     1.0  0.02341  0.81158  0.80631  1.0000
  H   H1252     1.0  0.29140  0.96531  0.96898  1.0000
  H   H1253     1.0  0.02144  0.85446  0.61116  1.0000
  H   H1254     1.0  0.32251  0.93743  0.90523  1.0000
  H   H1255     1.0  0.05709  0.75651  0.54355  1.0000
  H   H1256     1.0  0.27678  0.90503  0.49990  1.0000
  S   S174      1.0  0.25719  0.99273  0.81307  1.0000
  C   C732      1.0  0.30999  0.90852  0.49935  1.0000
  C   C733      1.0  0.00539  0.86136  0.60874  1.0000
  H   H1257     1.0  0.30480  0.76841  0.92220  1.0000
  H   H1258     1.0  0.26770  0.97618  0.90947  1.0000
  H   H1259     1.0  0.03050  0.99804  0.70617  1.0000
  H   H1260     1.0  0.28363  0.99557  0.57611  1.0000
  H   H1261     1.0  0.00186  0.87397  0.61994  1.0000
  Fe  Fe87      1.0  0.31543  0.99801  0.86435  1.0000
  Fe  Fe88      1.0  0.28217  0.96188  0.50123  1.0000
  H   H1262     1.0  0.05648  0.99026  0.72959  1.0000
  C   C734      1.0  0.21312  0.98670  0.77005  1.0000
  H   H1263     1.0  0.33132  0.75376  0.94650  1.0000
  C   C735      1.0  0.08792  0.97637  0.72481  1.0000
  C   C736      1.0  0.00303  0.77250  0.57809  1.0000
  C   C737      1.0  0.00424  0.77119  0.75054  1.0000
  C   C738      1.0  0.22436  0.99335  0.78670  1.0000
  H   H1264     1.0  0.09872  0.99731  0.74730  1.0000
  C   C739      1.0  0.29210  0.89707  0.49866  1.0000
  H   H1265     1.0  0.10681  0.97016  0.75170  1.0000
  H   H1266     1.0  0.16089  0.77147  0.99619  1.0000
  H   H1267     1.0  0.32205  0.77248  0.96559  1.0000
  C   C740      1.0  0.03308  0.74934  0.76491  1.0000
  H   H1268     1.0  0.10669  0.99745  0.64510  1.0000
  H   H1269     1.0  0.33110  0.93899  0.98030  1.0000
  H   H1270     1.0  0.33148  0.74986  0.58682  1.0000
  H   H1271     1.0  0.99925  0.84672  0.79031  1.0000
  H   H1272     1.0  0.39939  0.12357  0.37993  1.0000
  Fe  Fe89      1.0  0.65013  0.18060  0.47254  1.0000
  S   S175      1.0  0.63929  0.17662  0.43933  1.0000
  Fe  Fe90      1.0  0.38264  0.17435  0.48055  1.0000
  S   S176      1.0  0.41283  0.16498  0.46100  1.0000
  Fe  Fe91      1.0  0.53378  0.17511  0.36929  1.0000
  S   S177      1.0  0.51135  0.20175  0.35905  1.0000
  S   S178      1.0  0.54895  0.17629  0.40102  1.0000
  Fe  Fe92      1.0  0.52078  0.14700  0.33441  1.0000
  S   S179      1.0  0.49775  0.17195  0.32213  1.0000
  S   S180      1.0  0.52884  0.11318  0.32406  1.0000
  Fe  Fe93      1.0  0.52247  0.19519  0.32566  1.0000
  S   S181      1.0  0.53440  0.21997  0.30050  1.0000
  Fe  Fe94      1.0  0.48824  0.17697  0.35635  1.0000
  S   S182      1.0  0.45366  0.18048  0.36786  1.0000
  S   S183      1.0  0.54640  0.16975  0.33623  1.0000
  S   S184      1.0  0.50974  0.15093  0.36821  1.0000
  C   C741      1.0  0.43634  0.07892  0.01282  1.0000
  S   S185      1.0  0.49165  0.04308  0.27028  1.0000
  H   H1273     1.0  0.57176  0.21117  0.38025  1.0000
  C   C742      1.0  0.33401  0.04433  0.45710  1.0000
  S   S186      1.0  0.50559  0.22071  0.02756  1.0000
  H   H1274     1.0  0.65512  0.11549  0.48354  1.0000
  S   S187      1.0  0.45039  0.20200  0.01690  1.0000
  H   H1275     1.0  0.36746  0.00538  0.23511  1.0000
  S   S188      1.0  0.33730  0.08794  0.03456  1.0000
  H   H1276     1.0  0.50797  0.08596  0.40584  1.0000
  C   C743      1.0  0.66124  0.08318  0.45879  1.0000
  H   H1277     1.0  0.38145  0.09520  0.12089  1.0000
  H   H1278     1.0  0.38757  0.04856  0.13205  1.0000
  C   C744      1.0  0.41089  0.18680  0.01698  1.0000
  H   H1279     1.0  0.49243  0.22467  0.21946  1.0000
  H   H1280     1.0  0.47020  0.14235  0.30837  1.0000
  H   H1281     1.0  0.41130  0.18679  0.03385  1.0000
  H   H1282     1.0  0.37995  0.17467  0.01785  1.0000
  H   H1283     1.0  0.54052  0.22868  0.06368  1.0000
  C   C745      1.0  0.42732  0.13152  0.00320  1.0000
  H   H1284     1.0  0.58161  0.22469  0.02910  1.0000
  H   H1285     1.0  0.40082  0.02058  0.10706  1.0000
  H   H1286     1.0  0.55635  0.23306  0.19267  1.0000
  H   H1287     1.0  0.45145  0.15604  0.32600  1.0000
  H   H1288     1.0  0.37499  0.13436  0.46237  1.0000
  H   H1289     1.0  0.41745  0.06167  0.41200  1.0000
  N   N39       1.0  0.35557  0.06118  0.13739  1.0000
  H   H1290     1.0  0.59557  0.21637  0.40945  1.0000
  C   C746      1.0  0.51758  0.09378  0.30966  1.0000
  C   C747      1.0  0.50058  0.09837  0.29715  1.0000
  C   C748      1.0  0.49287  0.08265  0.28538  1.0000
  C   C749      1.0  0.50208  0.06211  0.28576  1.0000
  C   C750      1.0  0.51890  0.05743  0.29850  1.0000
  C   C751      1.0  0.52648  0.07312  0.31041  1.0000
  H   H1291     1.0  0.49366  0.11414  0.29616  1.0000
  H   H1292     1.0  0.47982  0.08651  0.27566  1.0000
  H   H1293     1.0  0.52606  0.04172  0.29920  1.0000
  H   H1294     1.0  0.53955  0.06926  0.32011  1.0000
  C   C752      1.0  0.42392  0.17043  0.43516  1.0000
  C   C753      1.0  0.41244  0.18052  0.41931  1.0000
  C   C754      1.0  0.42181  0.18361  0.39890  1.0000
  C   C755      1.0  0.44288  0.17705  0.39411  1.0000
  C   C756      1.0  0.45443  0.16716  0.41002  1.0000
  C   C757      1.0  0.44494  0.16372  0.43031  1.0000
  H   H1295     1.0  0.39630  0.18582  0.42272  1.0000
  H   H1296     1.0  0.41269  0.19123  0.38674  1.0000
  H   H1297     1.0  0.47060  0.16196  0.40665  1.0000
  H   H1298     1.0  0.45401  0.15591  0.44241  1.0000
  C   C758      1.0  0.61402  0.17579  0.42913  1.0000
  C   C759      1.0  0.61254  0.17343  0.40749  1.0000
  C   C760      1.0  0.59287  0.17316  0.39860  1.0000
  C   C761      1.0  0.57434  0.17526  0.41128  1.0000
  C   C762      1.0  0.57585  0.17725  0.43297  1.0000
  C   C763      1.0  0.59551  0.17747  0.44184  1.0000
  H   H1299     1.0  0.62674  0.17202  0.39749  1.0000
  H   H1300     1.0  0.59205  0.17155  0.38193  1.0000
  H   H1301     1.0  0.56167  0.17886  0.44297  1.0000
  H   H1302     1.0  0.59638  0.17933  0.45845  1.0000
  Fe  Fe95      1.0  0.47998  0.21881  0.00489  1.0000
  C   C764      1.0  0.55081  0.21421  0.06267  1.0000
  C   C765      1.0  0.40503  0.00105  0.19571  1.0000
  C   C766      1.0  0.58630  0.19837  0.05897  1.0000
  H   H1303     1.0  0.37085  0.14260  0.06271  1.0000
  H   H1304     1.0  0.61234  0.20659  0.03643  1.0000
  C   C767      1.0  0.54301  0.19913  0.08078  1.0000
  H   H1305     1.0  0.57835  0.21525  0.09529  1.0000
  N   N40       1.0  0.41310  0.11352  0.00644  1.0000
  H   H1306     1.0  0.58959  0.23100  0.37546  1.0000
  H   H1307     1.0  0.65089  0.07174  0.46711  1.0000
  C   C768      1.0  0.51969  0.19565  0.07955  1.0000
  C   C769      1.0  0.62165  0.17843  0.05358  1.0000
  H   H1308     1.0  0.54724  0.20751  0.04762  1.0000
  H   H1309     1.0  0.33664  0.00287  0.20760  1.0000
  H   H1310     1.0  0.34602  0.11077  0.45952  1.0000
  H   H1311     1.0  0.63916  0.05068  0.20154  1.0000
  H   H1312     1.0  0.57970  0.18953  0.04652  1.0000
  H   H1313     1.0  0.58519  0.18804  0.07344  1.0000
  H   H1314     1.0  0.61288  0.22699  0.43961  1.0000
  C   C770      1.0  0.35736  0.07087  0.47069  1.0000
  C   C771      1.0  0.37125  0.04331  0.13268  1.0000
  H   H1315     1.0  0.45645  0.05260  0.02349  1.0000
  H   H1316     1.0  0.55149  0.18358  0.08006  1.0000
  H   H1317     1.0  0.54509  0.20568  0.09620  1.0000
  N   N41       1.0  0.57371  0.21885  0.06207  1.0000
  H   H1318     1.0  0.35030  0.05006  0.18056  1.0000
  C   C772      1.0  0.62586  0.10071  0.48834  1.0000
  H   H1319     1.0  0.56576  0.01774  0.24071  1.0000
  H   H1320     1.0  0.33341  0.01482  0.23220  1.0000
  H   H1321     1.0  0.59812  0.22228  0.33847  1.0000
  H   H1322     1.0  0.38200  0.00558  0.09529  1.0000
  H   H1323     1.0  0.58826  0.09869  0.43215  1.0000
  C   C773      1.0  0.39218  0.12195  0.01578  1.0000
  H   H1324     1.0  0.62177  0.17190  0.06997  1.0000
  H   H1325     1.0  0.51682  0.18847  0.06460  1.0000
  H   H1326     1.0  0.51442  0.18492  0.09271  1.0000
  H   H1327     1.0  0.51023  0.21070  0.08062  1.0000
  H   H1328     1.0  0.45691  0.07536  0.03888  1.0000
  H   H1329     1.0  0.56609  0.18797  0.49367  1.0000
  H   H1330     1.0  0.36536  0.08925  0.07730  1.0000
  H   H1331     1.0  0.37801  0.04692  0.17468  1.0000
  H   H1332     1.0  0.34352  0.09039  0.12300  1.0000
  H   H1333     1.0  0.36056  0.12240  0.04830  1.0000
  N   N42       1.0  0.55969  0.24121  0.39079  1.0000
  H   H1334     1.0  0.35513  0.08346  0.19762  1.0000
  H   H1335     1.0  0.37849  0.07833  0.15194  1.0000
  H   H1336     1.0  0.33771  0.02443  0.08121  1.0000
  H   H1337     1.0  0.60738  0.12356  0.45171  1.0000
  C   C774      1.0  0.59713  0.11130  0.42382  1.0000
  H   H1338     1.0  0.42489  0.05612  0.43850  1.0000
  C   C775      1.0  0.61534  0.16508  0.99915  1.0000
  S   S189      1.0  0.65115  0.21066  0.48922  1.0000
  H   H1339     1.0  0.39936  0.11870  0.04935  1.0000
  H   H1340     1.0  0.38616  0.10528  0.08360  1.0000
  H   H1341     1.0  0.40805  0.11128  0.40427  1.0000
  H   H1342     1.0  0.45558  0.22295  0.20281  1.0000
  S   S190      1.0  0.34897  0.17799  0.47208  1.0000
  C   C776      1.0  0.42801  0.19415  0.00443  1.0000
  H   H1343     1.0  0.36255  0.14848  0.03667  1.0000
  C   C777      1.0  0.36176  0.10566  0.45254  1.0000
  H   H1344     1.0  0.45897  0.11691  0.00399  1.0000
  H   H1345     1.0  0.42577  0.08247  0.42702  1.0000
  C   C778      1.0  0.57901  0.23362  0.04359  1.0000
  H   H1346     1.0  0.60353  0.10592  0.40836  1.0000
  H   H1347     1.0  0.65982  0.06585  0.43014  1.0000
  H   H1348     1.0  0.33541  0.03816  0.15272  1.0000
  H   H1349     1.0  0.58412  0.99991  0.16799  1.0000
  H   H1350     1.0  0.62199  0.08558  0.44866  1.0000
  H   H1351     1.0  0.38637  0.05749  0.43613  1.0000
  H   H1352     1.0  0.40142  0.14467  0.03794  1.0000
  C   C779      1.0  0.35390  0.07654  0.11883  1.0000
  H   H1353     1.0  0.59800  0.03208  0.27010  1.0000
  H   H1354     1.0  0.52956  0.09409  0.38849  1.0000
  H   H1355     1.0  0.38313  0.08044  0.19144  1.0000
  N   N43       1.0  0.57213  0.05058  0.23877  1.0000
  C   C780      1.0  0.57958  0.06745  0.25178  1.0000
  C   C781      1.0  0.58629  0.04813  0.21906  1.0000
  C   C782      1.0  0.55040  0.05763  0.23233  1.0000
  C   C783      1.0  0.57057  0.02994  0.25098  1.0000
  C   C784      1.0  0.58186  0.21716  0.33821  1.0000
  C   C785      1.0  0.56628  0.07224  0.27221  1.0000
  C   C786      1.0  0.54056  0.04366  0.21682  1.0000
  C   C787      1.0  0.60984  0.05233  0.22046  1.0000
  N   N44       1.0  0.64895  0.10339  0.45367  1.0000
  C   C788      1.0  0.57641  0.08849  0.28447  1.0000
  C   C789      1.0  0.51981  0.05372  0.20966  1.0000
  H   H1356     1.0  0.58034  0.08239  0.24214  1.0000
  H   H1357     1.0  0.59579  0.06370  0.25649  1.0000
  H   H1358     1.0  0.58536  0.03219  0.21300  1.0000
  H   H1359     1.0  0.58086  0.05918  0.20625  1.0000
  H   H1360     1.0  0.55045  0.07385  0.22519  1.0000
  H   H1361     1.0  0.53905  0.05824  0.24622  1.0000
  H   H1362     1.0  0.55785  0.03103  0.26361  1.0000
  C   C790      1.0  0.39424  0.07249  0.43577  1.0000
  H   H1363     1.0  0.63345  0.08570  0.49412  1.0000
  H   H1364     1.0  0.65383  0.13415  0.43952  1.0000
  H   H1365     1.0  0.55038  0.07882  0.26872  1.0000
  H   H1366     1.0  0.56481  0.05795  0.28256  1.0000
  H   H1367     1.0  0.53724  0.02825  0.22453  1.0000
  H   H1368     1.0  0.55095  0.04096  0.20260  1.0000
  H   H1369     1.0  0.61162  0.06924  0.22260  1.0000
  C   C791      1.0  0.59078  0.23209  0.41518  1.0000
  H   H1370     1.0  0.40659  0.13932  0.40061  1.0000
  C   C792      1.0  0.41701  0.06794  0.42790  1.0000
  C   C793      1.0  0.36853  0.07198  0.19468  1.0000
  H   H1371     1.0  0.59219  0.08258  0.28912  1.0000
  H   H1372     1.0  0.57777  0.10337  0.27496  1.0000
  H   H1373     1.0  0.56659  0.09187  0.29893  1.0000
  H   H1374     1.0  0.52222  0.06919  0.20156  1.0000
  H   H1375     1.0  0.51313  0.04349  0.19853  1.0000
  H   H1376     1.0  0.50836  0.05570  0.22329  1.0000
  H   H1377     1.0  0.62246  0.02972  0.19814  1.0000
  H   H1378     1.0  0.51122  0.11348  0.39953  1.0000
  C   C794      1.0  0.57973  0.22738  0.08231  1.0000
  H   H1379     1.0  0.53065  0.23959  0.37519  1.0000
  C   C795      1.0  0.39237  0.13042  0.03815  1.0000
  C   C796      1.0  0.36460  0.05863  0.17633  1.0000
  H   H1380     1.0  0.35272  0.02488  0.11361  1.0000
  H   H1381     1.0  0.39044  0.12174  0.44167  1.0000
  C   C797      1.0  0.33718  0.05252  0.06094  1.0000
  C   C798      1.0  0.59083  0.02067  0.26066  1.0000
  H   H1382     1.0  0.35990  0.10717  0.49279  1.0000
  H   H1383     1.0  0.61693  0.04331  0.23368  1.0000
  C   C799      1.0  0.61006  0.19997  0.05272  1.0000
  C   C800      1.0  0.46849  0.19328  0.21426  1.0000
  H   H1384     1.0  0.61773  0.21003  0.06321  1.0000
  H   H1385     1.0  0.53680  0.21761  0.39212  1.0000
  H   H1386     1.0  0.55959  0.22237  0.41989  1.0000
  C   C801      1.0  0.64157  0.11325  0.47395  1.0000
  H   H1387     1.0  0.35270  0.04912  0.05389  1.0000
  H   H1388     1.0  0.36912  0.04248  0.09835  1.0000
  C   C802      1.0  0.42184  0.09701  0.02181  1.0000
  H   H1389     1.0  0.46939  0.20768  0.18336  1.0000
  H   H1390     1.0  0.50333  0.21318  0.19650  1.0000
  H   H1391     1.0  0.46178  0.15580  0.00142  1.0000
  Fe  Fe96      1.0  0.50024  0.00945  0.25982  1.0000
  H   H1392     1.0  0.60230  0.01536  0.24806  1.0000
  C   C803      1.0  0.52542  0.24151  0.28351  1.0000
  C   C804      1.0  0.33427  0.05257  0.14232  1.0000
  H   H1393     1.0  0.58638  0.22131  0.44799  1.0000
  C   C805      1.0  0.63067  0.09877  0.44112  1.0000
  C   C806      1.0  0.58206  0.18617  0.00059  1.0000
  C   C807      1.0  0.37424  0.12560  0.44795  1.0000
  C   C808      1.0  0.46984  0.21280  0.19963  1.0000
  H   H1394     1.0  0.38657  0.07260  0.10537  1.0000
  H   H1395     1.0  0.52543  0.23810  0.21785  1.0000
  H   H1396     1.0  0.45401  0.18524  0.21167  1.0000
  C   C809      1.0  0.52151  0.24403  0.40754  1.0000
  H   H1397     1.0  0.37065  0.03114  0.14565  1.0000
  C   C810      1.0  0.36820  0.03181  0.11250  1.0000
  C   C811      1.0  0.38505  0.01416  0.10937  1.0000
  H   H1398     1.0  0.38489  0.00289  0.12314  1.0000
  C   C812      1.0  0.57271  0.22803  0.37537  1.0000
  Fe  Fe97      1.0  0.34428  0.20313  0.49581  1.0000
  H   H1399     1.0  0.58612  0.12509  0.42105  1.0000
  N   N45       1.0  0.46119  0.10139  0.36263  1.0000
  C   C813      1.0  0.43917  0.10333  0.37257  1.0000
  C   C814      1.0  0.46519  0.08051  0.35255  1.0000
  C   C815      1.0  0.47607  0.10224  0.38004  1.0000
  C   C816      1.0  0.46555  0.11921  0.34693  1.0000
  C   C817      1.0  0.45087  0.12198  0.32851  1.0000
  C   C818      1.0  0.43304  0.12402  0.38364  1.0000
  C   C819      1.0  0.49954  0.09636  0.37432  1.0000
  C   C820      1.0  0.44660  0.07121  0.34232  1.0000
  C   C821      1.0  0.45414  0.05273  0.32907  1.0000
  C   C822      1.0  0.45412  0.14244  0.31584  1.0000
  C   C823      1.0  0.41035  0.12444  0.39262  1.0000
  C   C824      1.0  0.51279  0.09756  0.39327  1.0000
  H   H1400     1.0  0.43677  0.09012  0.38429  1.0000
  H   H1401     1.0  0.42726  0.10177  0.36098  1.0000
  H   H1402     1.0  0.47862  0.08131  0.34060  1.0000
  H   H1403     1.0  0.47009  0.06816  0.36442  1.0000
  H   H1404     1.0  0.47116  0.09166  0.39357  1.0000
  H   H1405     1.0  0.47559  0.11828  0.38611  1.0000
  H   H1406     1.0  0.46536  0.13430  0.35489  1.0000
  H   H1407     1.0  0.48173  0.11727  0.33965  1.0000
  H   H1408     1.0  0.43413  0.12227  0.33398  1.0000
  H   H1409     1.0  0.45439  0.10915  0.31758  1.0000
  H   H1410     1.0  0.44304  0.12597  0.39688  1.0000
  H   H1411     1.0  0.43443  0.13772  0.37246  1.0000
  H   H1412     1.0  0.50574  0.10721  0.36189  1.0000
  H   H1413     1.0  0.50201  0.08025  0.36871  1.0000
  H   H1414     1.0  0.43521  0.06540  0.35476  1.0000
  H   H1415     1.0  0.43806  0.08276  0.33215  1.0000
  H   H1416     1.0  0.46250  0.04038  0.33867  1.0000
  H   H1417     1.0  0.44052  0.04587  0.32253  1.0000
  H   H1418     1.0  0.46484  0.05795  0.31576  1.0000
  H   H1419     1.0  0.44287  0.14425  0.30325  1.0000
  C   C825      1.0  0.61475  0.11754  0.43691  1.0000
  C   C826      1.0  0.37475  0.08526  0.10955  1.0000
  H   H1420     1.0  0.44892  0.08467  0.00179  1.0000
  H   H1421     1.0  0.50066  0.21814  0.40838  1.0000
  C   C827      1.0  0.37116  0.09875  0.08961  1.0000
  H   H1422     1.0  0.55086  0.22544  0.35029  1.0000
  H   H1423     1.0  0.38699  0.08371  0.42426  1.0000
  C   C828      1.0  0.56685  0.23058  0.35217  1.0000
  H   H1424     1.0  0.43457  0.05907  0.04151  1.0000
  H   H1425     1.0  0.61182  0.09732  0.48006  1.0000
  C   C829      1.0  0.37022  0.13630  0.04693  1.0000
  H   H1426     1.0  0.34604  0.06954  0.10595  1.0000
  C   C830      1.0  0.39307  0.08111  0.45798  1.0000
  H   H1427     1.0  0.40086  0.01764  0.19448  1.0000
  H   H1428     1.0  0.58154  0.20040  0.34351  1.0000
  H   H1429     1.0  0.38683  0.11013  0.48547  1.0000
  H   H1430     1.0  0.61622  0.05547  0.18656  1.0000
  H   H1431     1.0  0.62256  0.13053  0.42811  1.0000
  H   H1432     1.0  0.48222  0.18220  0.21118  1.0000
  C   C831      1.0  0.53730  0.23492  0.39049  1.0000
  Fe  Fe98      1.0  0.52865  0.21304  0.00066  1.0000
  H   H1433     1.0  0.61411  0.16741  0.04390  1.0000
  H   H1434     1.0  0.40442  0.09363  0.45814  1.0000
  H   H1435     1.0  0.63642  0.09321  0.42549  1.0000
  C   C832      1.0  0.37460  0.09840  0.48734  1.0000
  H   H1436     1.0  0.46073  0.22730  0.14163  1.0000
  H   H1437     1.0  0.43043  0.10451  0.03383  1.0000
  C   C833      1.0  0.58637  0.00159  0.27519  1.0000
  H   H1438     1.0  0.37250  0.15484  0.42949  1.0000
  C   C834      1.0  0.62261  0.04673  0.20039  1.0000
  C   C835      1.0  0.39312  0.17971  0.00797  1.0000
  H   H1439     1.0  0.57698  0.21873  0.32181  1.0000
  H   H1440     1.0  0.46793  0.19761  0.23090  1.0000
  H   H1441     1.0  0.39961  0.06822  0.46830  1.0000
  C   C836      1.0  0.44666  0.06573  0.03031  1.0000
  N   N46       1.0  0.37172  0.08881  0.46665  1.0000
  H   H1442     1.0  0.63341  0.00208  0.11025  1.0000
  H   H1443     1.0  0.43003  0.13834  0.01838  1.0000
  H   H1444     1.0  0.58536  0.15338  0.00979  1.0000
  H   H1445     1.0  0.35227  0.08644  0.15887  1.0000
  C   C837      1.0  0.49030  0.22406  0.20234  1.0000
  H   H1446     1.0  0.63812  0.17977  0.04734  1.0000
  H   H1447     1.0  0.38049  0.10962  0.01638  1.0000
  C   C838      1.0  0.56692  0.23664  0.41273  1.0000
  H   H1448     1.0  0.35259  0.06492  0.43735  1.0000
  C   C839      1.0  0.36269  0.07229  0.15571  1.0000
  H   H1449     1.0  0.60054  0.24344  0.40619  1.0000
  C   C840      1.0  0.36369  0.14039  0.43183  1.0000
  S   S191      1.0  0.49805  0.00505  0.22519  1.0000
  C   C841      1.0  0.47545  0.23462  0.13592  1.0000
  H   H1450     1.0  0.34572  0.07430  0.48386  1.0000
  H   H1451     1.0  0.56566  0.23924  0.12290  1.0000
  H   H1452     1.0  0.36354  0.13293  0.41655  1.0000
  H   H1453     1.0  0.40882  0.08893  0.03066  1.0000
  H   H1454     1.0  0.35957  0.11195  0.09282  1.0000
  C   C842      1.0  0.34368  0.06548  0.45266  1.0000
  H   H1455     1.0  0.43340  0.00512  0.21169  1.0000
  H   H1456     1.0  0.58175  0.16374  0.49191  1.0000
  H   H1457     1.0  0.35860  0.09966  0.43718  1.0000
  H   H1458     1.0  0.62387  0.15016  0.00152  1.0000
  C   C843      1.0  0.66225  0.11854  0.44081  1.0000
  H   H1459     1.0  0.38557  0.13508  0.00580  1.0000
  H   H1460     1.0  0.59654  0.23097  0.08129  1.0000
  H   H1461     1.0  0.49335  0.24326  0.29568  1.0000
  H   H1462     1.0  0.34641  0.03148  0.45739  1.0000
  H   H1463     1.0  0.63455  0.12933  0.47087  1.0000
  H   H1464     1.0  0.57538  0.00605  0.28853  1.0000
  H   H1465     1.0  0.34734  0.14487  0.43743  1.0000
  C   C844      1.0  0.59348  0.16696  0.00377  1.0000
  C   C845      1.0  0.59614  0.23219  0.43813  1.0000
  H   H1466     1.0  0.37034  0.06173  0.20904  1.0000
  H   H1467     1.0  0.54885  0.24413  0.03117  1.0000
  H   H1468     1.0  0.36644  0.05640  0.47594  1.0000
  S   S192      1.0  0.55457  0.18769  0.00701  1.0000
  H   H1469     1.0  0.50513  0.24168  0.14680  1.0000
  H   H1470     1.0  0.55591  0.24452  0.26780  1.0000
  H   H1471     1.0  0.42694  0.06837  0.00432  1.0000
  H   H1472     1.0  0.49442  0.21863  0.15910  1.0000
  H   H1473     1.0  0.59404  0.24098  0.04574  1.0000
  H   H1474     1.0  0.52230  0.23671  0.17687  1.0000
  C   C846      1.0  0.49047  0.23497  0.15357  1.0000
  H   H1475     1.0  0.48291  0.22542  0.12295  1.0000
  N   N47       1.0  0.49203  0.24564  0.19190  1.0000
  H   H1476     1.0  0.46418  0.24516  0.17412  1.0000
  C   C847      1.0  0.49985  0.23548  0.40601  1.0000
  H   H1477     1.0  0.62309  0.99855  0.16573  1.0000
  H   H1478     1.0  0.52653  0.23980  0.42356  1.0000
  H   H1479     1.0  0.49361  0.23977  0.39046  1.0000
  H   H1480     1.0  0.48877  0.24212  0.41830  1.0000
  C   C848      1.0  0.48098  0.24841  0.17169  1.0000
  H   H1481     1.0  0.66494  0.11367  0.42437  1.0000
  H   H1482     1.0  0.59357  0.24818  0.44407  1.0000
  H   H1483     1.0  0.55053  0.24678  0.08851  1.0000
  C   C849      1.0  0.56762  0.24766  0.08941  1.0000
  H   H1484     1.0  0.56770  0.24705  0.34618  1.0000
  Fe  Fe99      1.0  0.64146  0.19153  0.51862  1.0000
  S   S193      1.0  0.61414  0.20544  0.53938  1.0000
  H   H1485     1.0  0.65999  0.04055  0.77449  1.0000
  Fe  Fe100     1.0  0.53444  0.17906  0.63900  1.0000
  S   S194      1.0  0.51265  0.20713  0.63235  1.0000
  S   S195      1.0  0.56710  0.17041  0.62404  1.0000
  Fe  Fe101     1.0  0.50205  0.15848  0.67012  1.0000
  S   S196      1.0  0.47785  0.18488  0.66394  1.0000
  S   S197      1.0  0.49669  0.13462  0.69781  1.0000
  Fe  Fe102     1.0  0.48815  0.18338  0.62963  1.0000
  S   S198      1.0  0.47212  0.18521  0.59804  1.0000
  Fe  Fe103     1.0  0.50412  0.20657  0.66741  1.0000
  S   S199      1.0  0.49543  0.23376  0.68988  1.0000
  S   S200      1.0  0.51035  0.15532  0.63574  1.0000
  S   S201      1.0  0.52786  0.18016  0.67405  1.0000
  Fe  Fe104     1.0  0.37061  0.17698  0.52753  1.0000
  H   H1486     1.0  0.62375  0.18794  0.91105  1.0000
  S   S202      1.0  0.38202  0.17597  0.56099  1.0000
  H   H1487     1.0  0.42767  0.03094  0.83051  1.0000
  C   C850      1.0  0.38455  0.09481  0.52525  1.0000
  C   C851      1.0  0.55030  0.18054  0.53521  1.0000
  H   H1488     1.0  0.46002  0.01591  0.86230  1.0000
  H   H1489     1.0  0.53834  0.12163  0.60867  1.0000
  C   C852      1.0  0.40111  0.24690  0.56236  1.0000
  H   H1490     1.0  0.53344  0.22380  0.91190  1.0000
  S   S203      1.0  0.50292  0.20842  0.97901  1.0000
  H   H1491     1.0  0.56130  0.15899  0.56820  1.0000
  S   S204      1.0  0.50642  0.01573  0.76467  1.0000
  S   S205      1.0  0.50177  0.03413  0.70330  1.0000
  Fe  Fe105     1.0  0.50502  0.24282  0.96982  1.0000
  H   H1492     1.0  0.43290  0.04392  0.85379  1.0000
  H   H1493     1.0  0.39111  0.11887  0.93662  1.0000
  H   H1494     1.0  0.35981  0.04065  0.88739  1.0000
  H   H1495     1.0  0.62871  0.03314  0.75081  1.0000
  H   H1496     1.0  0.38498  0.09591  0.95262  1.0000
  C   C853      1.0  0.60091  0.01040  0.79843  1.0000
  C   C854      1.0  0.34521  0.21093  0.58604  1.0000
  H   H1497     1.0  0.49365  0.15628  0.50701  1.0000
  C   C855      1.0  0.43208  0.02844  0.84699  1.0000
  H   H1498     1.0  0.38262  0.00984  0.90536  1.0000
  H   H1499     1.0  0.65664  0.00339  0.76429  1.0000
  H   H1500     1.0  0.47575  0.15999  0.52971  1.0000
  C   C856      1.0  0.36344  0.03027  0.83673  1.0000
  C   C857      1.0  0.40937  0.18692  0.97361  1.0000
  H   H1501     1.0  0.39759  0.09157  0.98897  1.0000
  H   H1502     1.0  0.40894  0.18694  0.95674  1.0000
  H   H1503     1.0  0.43998  0.19997  0.97269  1.0000
  C   C858      1.0  0.37131  0.05222  0.88183  1.0000
  H   H1504     1.0  0.39257  0.04624  0.83623  1.0000
  C   C859      1.0  0.55993  0.16480  0.51915  1.0000
  H   H1505     1.0  0.58441  0.21854  0.99113  1.0000
  C   C860      1.0  0.44692  0.18201  0.58826  1.0000
  C   C861      1.0  0.44493  0.18290  0.56641  1.0000
  C   C862      1.0  0.42537  0.18082  0.55776  1.0000
  C   C863      1.0  0.40737  0.17798  0.57088  1.0000
  C   C864      1.0  0.40932  0.17713  0.59274  1.0000
  C   C865      1.0  0.42892  0.17906  0.60138  1.0000
  H   H1506     1.0  0.45862  0.18535  0.55608  1.0000
  H   H1507     1.0  0.42422  0.18156  0.54094  1.0000
  H   H1508     1.0  0.39558  0.17489  0.60310  1.0000
  H   H1509     1.0  0.43010  0.17834  0.61819  1.0000
  C   C866      1.0  0.49801  0.10667  0.69878  1.0000
  C   C867      1.0  0.50368  0.09503  0.68117  1.0000
  C   C868      1.0  0.50483  0.07292  0.68289  1.0000
  C   C869      1.0  0.50029  0.06208  0.70217  1.0000
  C   C870      1.0  0.49440  0.07373  0.71970  1.0000
  C   C871      1.0  0.49342  0.09583  0.71803  1.0000
  H   H1510     1.0  0.50716  0.10306  0.66621  1.0000
  H   H1511     1.0  0.50918  0.06413  0.66913  1.0000
  H   H1512     1.0  0.49018  0.06570  0.73447  1.0000
  H   H1513     1.0  0.48882  0.10458  0.73172  1.0000
  C   C872      1.0  0.60170  0.19545  0.56316  1.0000
  C   C873      1.0  0.58551  0.20776  0.57318  1.0000
  C   C874      1.0  0.57483  0.20042  0.59180  1.0000
  C   C875      1.0  0.58014  0.18057  0.60064  1.0000
  C   C876      1.0  0.59651  0.16835  0.59076  1.0000
  C   C877      1.0  0.60713  0.17564  0.57206  1.0000
  H   H1514     1.0  0.58127  0.22316  0.56655  1.0000
  H   H1515     1.0  0.56260  0.21019  0.59941  1.0000
  H   H1516     1.0  0.60093  0.15306  0.59756  1.0000
  H   H1517     1.0  0.61958  0.16600  0.56461  1.0000
  H   H1518     1.0  0.51867  0.13971  0.58050  1.0000
  H   H1519     1.0  0.51526  0.24272  0.56827  1.0000
  H   H1520     1.0  0.37665  0.05940  0.91399  1.0000
  N   N48       1.0  0.36108  0.24124  0.56254  1.0000
  H   H1521     1.0  0.51222  0.18518  0.57495  1.0000
  C   C878      1.0  0.55583  0.18884  0.72127  1.0000
  H   H1522     1.0  0.45240  0.15631  0.97529  1.0000
  C   C879      1.0  0.54682  0.12724  0.59400  1.0000
  C   C880      1.0  0.40116  0.11921  0.96834  1.0000
  H   H1523     1.0  0.56822  0.12258  0.68021  1.0000
  S   S206      1.0  0.34410  0.11513  0.98135  1.0000
  H   H1524     1.0  0.42295  0.01171  0.87567  1.0000
  H   H1525     1.0  0.55808  0.05675  0.68761  1.0000
  H   H1526     1.0  0.65875  0.02804  0.96059  1.0000
  H   H1527     1.0  0.40277  0.05433  0.86915  1.0000
  H   H1528     1.0  0.47656  0.17957  0.50857  1.0000
  H   H1529     1.0  0.36385  0.01076  0.87245  1.0000
  C   C881      1.0  0.64676  0.02903  0.92149  1.0000
  N   N49       1.0  0.53470  0.17209  0.55171  1.0000
  H   H1530     1.0  0.38867  0.08350  0.53826  1.0000
  H   H1531     1.0  0.53853  0.18865  0.57990  1.0000
  H   H1532     1.0  0.54463  0.02105  0.69104  1.0000
  C   C882      1.0  0.62608  0.18245  0.99127  1.0000
  H   H1533     1.0  0.49984  0.22178  0.57936  1.0000
  H   H1534     1.0  0.40064  0.03697  0.89130  1.0000
  H   H1535     1.0  0.34186  0.04100  0.81303  1.0000
  H   H1536     1.0  0.57172  0.18722  0.72744  1.0000
  C   C883      1.0  0.54582  0.15418  0.56359  1.0000
  H   H1537     1.0  0.35081  0.21205  0.55206  1.0000
  S   S207      1.0  0.37578  0.14995  0.50637  1.0000
  H   H1538     1.0  0.41962  0.14457  0.99392  1.0000
  H   H1539     1.0  0.39444  0.99999  0.76650  1.0000
  H   H1540     1.0  0.59835  0.02710  0.79567  1.0000
  N   N50       1.0  0.49895  0.18963  0.74788  1.0000
  C   C884      1.0  0.47907  0.19884  0.73875  1.0000
  C   C885      1.0  0.50252  0.20102  0.76730  1.0000
  C   C886      1.0  0.51682  0.19197  0.73157  1.0000
  C   C887      1.0  0.49744  0.16663  0.75366  1.0000
  C   C888      1.0  0.47879  0.16081  0.76905  1.0000
  C   C889      1.0  0.47058  0.18652  0.72113  1.0000
  C   C890      1.0  0.53923  0.18760  0.73939  1.0000
  C   C891      1.0  0.50581  0.22478  0.76381  1.0000
  H   H1541     1.0  0.63165  0.11654  0.51668  1.0000
  C   C892      1.0  0.47678  0.13712  0.77079  1.0000
  C   C893      1.0  0.45100  0.19783  0.71257  1.0000
  H   H1542     1.0  0.48149  0.21492  0.73196  1.0000
  H   H1543     1.0  0.46632  0.20095  0.75118  1.0000
  H   H1544     1.0  0.48882  0.19977  0.77875  1.0000
  H   H1545     1.0  0.51604  0.19350  0.77552  1.0000
  H   H1546     1.0  0.51617  0.20790  0.72385  1.0000
  H   H1547     1.0  0.51523  0.18127  0.71866  1.0000
  H   H1548     1.0  0.49694  0.15751  0.73931  1.0000
  H   H1549     1.0  0.51180  0.16030  0.76119  1.0000
  H   H1550     1.0  0.46365  0.16797  0.76398  1.0000
  H   H1551     1.0  0.48123  0.16609  0.78494  1.0000
  H   H1552     1.0  0.48258  0.18482  0.70805  1.0000
  H   H1553     1.0  0.46621  0.17066  0.72686  1.0000
  H   H1554     1.0  0.54107  0.17180  0.74710  1.0000
  H   H1555     1.0  0.54281  0.19928  0.75071  1.0000
  H   H1556     1.0  0.51879  0.22778  0.75205  1.0000
  C   C894      1.0  0.56422  0.24255  0.93064  1.0000
  C   C895      1.0  0.57471  0.17546  0.50285  1.0000
  H   H1557     1.0  0.45425  0.00238  0.83932  1.0000
  Fe  Fe106     1.0  0.34185  0.15510  0.49921  1.0000
  H   H1558     1.0  0.46386  0.13323  0.78243  1.0000
  H   H1559     1.0  0.47308  0.13132  0.75542  1.0000
  H   H1560     1.0  0.49155  0.12900  0.77589  1.0000
  H   H1561     1.0  0.60764  0.10310  0.51792  1.0000
  S   S208      1.0  0.53235  0.24657  0.98974  1.0000
  H   H1562     1.0  0.57188  0.23318  0.88179  1.0000
  N   N51       1.0  0.56375  0.06612  0.73173  1.0000
  C   C896      1.0  0.58729  0.06599  0.73275  1.0000
  C   C897      1.0  0.55533  0.08630  0.72114  1.0000
  C   C898      1.0  0.55458  0.06506  0.75407  1.0000
  C   C899      1.0  0.55707  0.04738  0.72093  1.0000
  C   C900      1.0  0.56592  0.04482  0.69810  1.0000
  C   C901      1.0  0.59789  0.04627  0.74366  1.0000
  C   C902      1.0  0.53039  0.06801  0.75706  1.0000
  H   H1563     1.0  0.39582  0.07389  0.50157  1.0000
  C   C903      1.0  0.52322  0.06670  0.78028  1.0000
  H   H1564     1.0  0.59152  0.07989  0.74109  1.0000
  H   H1565     1.0  0.59520  0.06771  0.71694  1.0000
  H   H1566     1.0  0.53978  0.08404  0.71485  1.0000
  H   H1567     1.0  0.55235  0.09872  0.73274  1.0000
  H   H1568     1.0  0.56136  0.07702  0.76337  1.0000
  H   H1569     1.0  0.55872  0.04965  0.76186  1.0000
  H   H1570     1.0  0.56065  0.03266  0.73034  1.0000
  H   H1571     1.0  0.53978  0.04800  0.72011  1.0000
  H   H1572     1.0  0.53781  0.24092  0.70379  1.0000
  H   H1573     1.0  0.59264  0.04484  0.76046  1.0000
  H   H1574     1.0  0.59434  0.03180  0.73606  1.0000
  H   H1575     1.0  0.52284  0.05556  0.74940  1.0000
  H   H1576     1.0  0.52451  0.08341  0.75048  1.0000
  H   H1577     1.0  0.45481  0.21334  0.70526  1.0000
  H   H1578     1.0  0.49465  0.19115  0.53817  1.0000
  C   C904      1.0  0.40913  0.10394  0.98602  1.0000
  H   H1579     1.0  0.50584  0.06832  0.78194  1.0000
  H   H1580     1.0  0.52839  0.05131  0.78760  1.0000
  H   H1581     1.0  0.52969  0.07941  0.78869  1.0000
  H   H1582     1.0  0.60035  0.21028  0.94765  1.0000
  C   C905      1.0  0.37217  0.06771  0.89915  1.0000
  C   C906      1.0  0.61466  0.20171  0.98827  1.0000
  H   H1583     1.0  0.51743  0.21401  0.54418  1.0000
  S   S209      1.0  0.37090  0.16927  0.97392  1.0000
  C   C907      1.0  0.62172  0.04736  0.74271  1.0000
  H   H1584     1.0  0.59494  0.22551  0.90900  1.0000
  C   C908      1.0  0.56939  0.09656  0.70333  1.0000
  H   H1585     1.0  0.49137  0.23321  0.75834  1.0000
  N   N52       1.0  0.56441  0.22020  0.92413  1.0000
  C   C909      1.0  0.55520  0.20684  0.94209  1.0000
  H   H1586     1.0  0.63226  0.18951  0.93725  1.0000
  C   C910      1.0  0.54998  0.21984  0.90628  1.0000
  C   C911      1.0  0.58623  0.21237  0.91668  1.0000
  C   C912      1.0  0.60020  0.20126  0.93344  1.0000
  C   C913      1.0  0.55076  0.18420  0.93660  1.0000
  H   H1587     1.0  0.38641  0.22097  0.54976  1.0000
  H   H1588     1.0  0.37012  0.10413  0.53031  1.0000
  C   C914      1.0  0.52637  0.21187  0.55843  1.0000
  C   C915      1.0  0.62289  0.19774  0.92495  1.0000
  C   C916      1.0  0.54925  0.16945  0.95602  1.0000
  Fe  Fe107     1.0  0.50539  0.00962  0.73050  1.0000
  H   H1589     1.0  0.54002  0.21425  0.94823  1.0000
  H   H1590     1.0  0.56519  0.20597  0.95571  1.0000
  H   H1591     1.0  0.54753  0.15799  0.51067  1.0000
  C   C917      1.0  0.39320  0.04168  0.87639  1.0000
  C   C918      1.0  0.55747  0.11463  0.69190  1.0000
  H   H1592     1.0  0.55002  0.20379  0.90036  1.0000
  H   H1593     1.0  0.58554  0.20091  0.90423  1.0000
  H   H1594     1.0  0.54457  0.10868  0.68343  1.0000
  H   H1595     1.0  0.59440  0.18569  0.93840  1.0000
  H   H1596     1.0  0.54542  0.24128  0.85520  1.0000
  H   H1597     1.0  0.53558  0.18438  0.92899  1.0000
  H   H1598     1.0  0.56311  0.17754  0.92555  1.0000
  C   C919      1.0  0.61837  0.00259  0.80951  1.0000
  H   H1599     1.0  0.63329  0.02641  0.93289  1.0000
  N   N53       1.0  0.39388  0.02341  0.86230  1.0000
  H   H1600     1.0  0.41280  0.13100  0.96362  1.0000
  H   H1601     1.0  0.35322  0.03746  0.84926  1.0000
  H   H1602     1.0  0.62283  0.21528  0.98232  1.0000
  H   H1603     1.0  0.52595  0.22719  0.78980  1.0000
  H   H1604     1.0  0.62991  0.21292  0.92064  1.0000
  C   C920      1.0  0.42703  0.19434  0.98262  1.0000
  C   C921      1.0  0.48626  0.16799  0.51780  1.0000
  H   H1605     1.0  0.56442  0.16798  0.96368  1.0000
  H   H1606     1.0  0.33530  0.18223  0.57358  1.0000
  C   C922      1.0  0.52765  0.18875  0.56702  1.0000
  H   H1607     1.0  0.42456  0.22605  0.54666  1.0000
  H   H1608     1.0  0.58310  0.10309  0.71004  1.0000
  H   H1609     1.0  0.54241  0.21720  0.55447  1.0000
  C   C923      1.0  0.39234  0.17937  0.98620  1.0000
  C   C924      1.0  0.51604  0.22633  0.57480  1.0000
  H   H1610     1.0  0.55077  0.12633  0.70307  1.0000
  H   H1611     1.0  0.47691  0.14256  0.98087  1.0000
  H   H1612     1.0  0.64311  0.02312  0.90617  1.0000
  H   H1613     1.0  0.56232  0.13232  0.59807  1.0000
  C   C925      1.0  0.55501  0.23463  0.88689  1.0000
  C   C926      1.0  0.42255  0.23510  0.56109  1.0000
  C   C927      1.0  0.50300  0.17916  0.52835  1.0000
  H   H1614     1.0  0.54921  0.14062  0.55350  1.0000
  C   C928      1.0  0.39705  0.10753  0.94886  1.0000
  H   H1615     1.0  0.35643  0.07565  0.90200  1.0000
  H   H1616     1.0  0.50478  0.15786  0.55483  1.0000
  H   H1617     1.0  0.33953  0.22126  0.59883  1.0000
  H   H1618     1.0  0.53147  0.15767  0.59547  1.0000
  H   H1619     1.0  0.56359  0.18686  0.54297  1.0000
  C   C929      1.0  0.53407  0.14547  0.58380  1.0000
  H   H1620     1.0  0.57414  0.23731  0.96279  1.0000
  H   H1621     1.0  0.36555  0.06122  0.86788  1.0000
  C   C930      1.0  0.51606  0.16362  0.54226  1.0000
  H   H1622     1.0  0.54543  0.15366  0.95150  1.0000
  C   C931      1.0  0.46075  0.14653  0.98731  1.0000
  H   H1623     1.0  0.38351  0.07983  0.89455  1.0000
  H   H1624     1.0  0.39473  0.01983  0.82871  1.0000
  H   H1625     1.0  0.35899  0.01387  0.83578  1.0000
  H   H1626     1.0  0.39759  0.10547  0.52218  1.0000
  H   H1627     1.0  0.52093  0.14966  0.53312  1.0000
  H   H1628     1.0  0.36865  0.07188  0.51000  1.0000
  C   C932      1.0  0.56171  0.02336  0.69035  1.0000
  H   H1629     1.0  0.42433  0.22424  0.57503  1.0000
  H   H1630     1.0  0.58308  0.04629  0.69643  1.0000
  H   H1631     1.0  0.56937  0.15198  0.52700  1.0000
  H   H1632     1.0  0.62813  0.04803  0.72618  1.0000
  H   H1633     1.0  0.66404  0.00065  0.93041  1.0000
  H   H1634     1.0  0.55422  0.20413  0.71237  1.0000
  H   H1635     1.0  0.36214  0.05864  0.81643  1.0000
  C   C933      1.0  0.38078  0.00597  0.87153  1.0000
  H   H1636     1.0  0.41170  0.09943  0.94250  1.0000
  H   H1637     1.0  0.59495  0.24417  0.94364  1.0000
  S   S210      1.0  0.56492  0.00776  0.77713  1.0000
  C   C934      1.0  0.38104  0.08300  0.50568  1.0000
  C   C935      1.0  0.54227  0.22981  0.86844  1.0000
  H   H1638     1.0  0.54339  0.19404  0.52602  1.0000
  H   H1639     1.0  0.53674  0.17526  0.96738  1.0000
  S   S211      1.0  0.33567  0.18048  0.52248  1.0000
  H   H1640     1.0  0.43856  0.20000  0.72526  1.0000
  H   H1641     1.0  0.56780  0.02219  0.67381  1.0000
  H   H1642     1.0  0.44485  0.18840  0.70043  1.0000
  C   C936      1.0  0.59284  0.20358  0.99299  1.0000
  C   C937      1.0  0.35868  0.04189  0.81596  1.0000
  C   C938      1.0  0.38711  0.03034  0.84067  1.0000
  H   H1643     1.0  0.49821  0.23239  0.79637  1.0000
  H   H1644     1.0  0.64897  0.04608  0.91927  1.0000
  H   H1645     1.0  0.57534  0.08529  0.69154  1.0000
  H   H1646     1.0  0.38527  0.22159  0.57742  1.0000
  H   H1647     1.0  0.55439  0.17599  0.71051  1.0000
  C   C939      1.0  0.41635  0.01467  0.86006  1.0000
  H   H1648     1.0  0.54919  0.11405  0.58332  1.0000
  Fe  Fe108     1.0  0.34230  0.15010  0.98450  1.0000
  H   H1649     1.0  0.52523  0.23103  0.87297  1.0000
  S   S212      1.0  0.65345  0.18096  0.98432  1.0000
  H   H1650     1.0  0.54665  0.21384  0.86307  1.0000
  H   H1651     1.0  0.46501  0.02773  0.83646  1.0000
  H   H1652     1.0  0.38627  0.12750  0.97332  1.0000
  C   C940      1.0  0.45415  0.01792  0.84631  1.0000
  H   H1653     1.0  0.36052  0.20352  0.59019  1.0000
  C   C941      1.0  0.34651  0.22336  0.56452  1.0000
  C   C942      1.0  0.61820  0.11278  0.50759  1.0000
  H   H1654     1.0  0.42350  0.09589  0.97911  1.0000
  H   H1655     1.0  0.60930  0.12747  0.50285  1.0000
  C   C943      1.0  0.44936  0.12649  0.99285  1.0000
  H   H1656     1.0  0.56963  0.01072  0.69997  1.0000
  C   C944      1.0  0.51104  0.23443  0.78409  1.0000
  H   H1657     1.0  0.62908  0.01325  0.81506  1.0000
  H   H1658     1.0  0.52532  0.22566  0.58895  1.0000
  C   C945      1.0  0.38319  0.23162  0.56301  1.0000
  H   H1659     1.0  0.62621  0.06131  0.75067  1.0000
  H   H1660     1.0  0.43515  0.24635  0.56069  1.0000
  H   H1661     1.0  0.36334  0.24142  0.52863  1.0000
  H   H1662     1.0  0.58762  0.18238  0.51056  1.0000
  H   H1663     1.0  0.51285  0.18690  0.51579  1.0000
  H   H1664     1.0  0.44864  0.11811  0.97821  1.0000
  S   S213      1.0  0.63848  0.16233  0.50126  1.0000
  H   H1665     1.0  0.36813  0.03469  0.80278  1.0000
  S   S214      1.0  0.37889  0.20129  0.50233  1.0000
  H   H1666     1.0  0.54789  0.24807  0.93532  1.0000
  C   C946      1.0  0.57816  0.24703  0.94858  1.0000
  H   H1667     1.0  0.41703  0.99920  0.85271  1.0000
  C   C947      1.0  0.57152  0.25197  0.11208  1.0000
  S   S215      1.0  0.64911  0.48252  0.22474  1.0000
  Fe  Fe109     1.0  0.64622  0.46056  0.19843  1.0000
  S   S216      1.0  0.61542  0.44321  0.19958  1.0000
  S   S217      1.0  0.65043  0.48570  0.17263  1.0000
  Fe  Fe110     1.0  0.37580  0.46322  0.19421  1.0000
  S   S218      1.0  0.37848  0.47906  0.16224  1.0000
  S   S219      1.0  0.39468  0.43395  0.20584  1.0000
  H   H1668     1.0  0.59323  0.33288  0.29204  1.0000
  H   H1669     1.0  0.40119  0.47636  0.11873  1.0000
  H   H1670     1.0  0.51782  0.38328  0.24141  1.0000
  C   C948      1.0  0.47684  0.44112  0.20094  1.0000
  H   H1671     1.0  0.62478  0.40272  0.23656  1.0000
  Fe  Fe111     1.0  0.51274  0.31678  0.20831  1.0000
  S   S220      1.0  0.54012  0.30873  0.18604  1.0000
  S   S221      1.0  0.50415  0.29828  0.23956  1.0000
  Fe  Fe112     1.0  0.49757  0.35401  0.17868  1.0000
  S   S222      1.0  0.52449  0.34756  0.15476  1.0000
  S   S223      1.0  0.47603  0.38234  0.16856  1.0000
  Fe  Fe113     1.0  0.51785  0.31346  0.15986  1.0000
  S   S224      1.0  0.51633  0.28669  0.13703  1.0000
  Fe  Fe114     1.0  0.54449  0.34365  0.18265  1.0000
  S   S225      1.0  0.57801  0.35469  0.18368  1.0000
  S   S226      1.0  0.48992  0.32001  0.18236  1.0000
  S   S227      1.0  0.51811  0.35158  0.20630  1.0000
  H   H1672     1.0  0.34410  0.43582  0.10796  1.0000
  H   H1673     1.0  0.56385  0.36830  0.22657  1.0000
  C   C949      1.0  0.55831  0.36364  0.24286  1.0000
  C   C950      1.0  0.51499  0.28585  0.10916  1.0000
  C   C951      1.0  0.51166  0.26663  0.10037  1.0000
  C   C952      1.0  0.51062  0.26502  0.07850  1.0000
  C   C953      1.0  0.51333  0.28257  0.06492  1.0000
  C   C954      1.0  0.51680  0.30176  0.07367  1.0000
  C   C955      1.0  0.51751  0.30344  0.09559  1.0000
  H   H1674     1.0  0.55776  0.32483  0.22505  1.0000
  H   H1675     1.0  0.41599  0.36777  0.11819  1.0000
  H   H1676     1.0  0.52014  0.31835  0.10195  1.0000
  C   C956      1.0  0.41705  0.41962  0.19495  1.0000
  C   C957      1.0  0.42613  0.40280  0.20687  1.0000
  C   C958      1.0  0.44408  0.39114  0.19909  1.0000
  C   C959      1.0  0.45317  0.39615  0.17919  1.0000
  C   C960      1.0  0.44407  0.41299  0.16726  1.0000
  C   C961      1.0  0.42617  0.42471  0.17508  1.0000
  H   H1677     1.0  0.41924  0.39874  0.22228  1.0000
  H   H1678     1.0  0.45086  0.37828  0.20847  1.0000
  H   H1679     1.0  0.45099  0.41701  0.15185  1.0000
  H   H1680     1.0  0.41941  0.43760  0.16574  1.0000
  H   H1681     1.0  0.49534  0.41193  0.20501  1.0000
  C   C962      1.0  0.60552  0.41862  0.19407  1.0000
  C   C963      1.0  0.61859  0.40095  0.18952  1.0000
  C   C964      1.0  0.60988  0.38168  0.18610  1.0000
  C   C965      1.0  0.58801  0.37977  0.18697  1.0000
  C   C966      1.0  0.57493  0.39751  0.19122  1.0000
  C   C967      1.0  0.58364  0.41670  0.19489  1.0000
  H   H1682     1.0  0.63542  0.40206  0.18887  1.0000
  H   H1683     1.0  0.62020  0.36812  0.18283  1.0000
  H   H1684     1.0  0.55812  0.39641  0.19176  1.0000
  H   H1685     1.0  0.57333  0.43022  0.19835  1.0000
  C   C968      1.0  0.51298  0.27632  0.25614  1.0000
  H   H1686     1.0  0.40295  0.36641  0.14415  1.0000
  H   H1687     1.0  0.54510  0.27466  0.24410  1.0000
  H   H1688     1.0  0.58849  0.25348  0.11399  1.0000
  C   C969      1.0  0.38391  0.39937  0.11955  1.0000
  H   H1689     1.0  0.43552  0.45603  0.20517  1.0000
  C   C970      1.0  0.50469  0.24993  0.28444  1.0000
  Fe  Fe115     1.0  0.34312  0.48229  0.16414  1.0000
  H   H1690     1.0  0.55876  0.27856  0.01681  1.0000
  C   C971      1.0  0.57109  0.31789  0.23381  1.0000
  H   H1691     1.0  0.37280  0.39606  0.16265  1.0000
  N   N54       1.0  0.45920  0.47856  0.19803  1.0000
  H   H1692     1.0  0.34226  0.49684  0.10504  1.0000
  N   N55       1.0  0.37148  0.42004  0.12126  1.0000
  H   H1693     1.0  0.59105  0.34291  0.22462  1.0000
  H   H1694     1.0  0.52494  0.40848  0.24909  1.0000
  H   H1695     1.0  0.41702  0.40659  0.12036  1.0000
  H   H1696     1.0  0.51889  0.31549  0.06340  1.0000
  C   C972      1.0  0.56785  0.31482  0.30471  1.0000
  H   H1697     1.0  0.42112  0.44341  0.24069  1.0000
  C   C973      1.0  0.53982  0.25073  0.26874  1.0000
  H   H1698     1.0  0.55991  0.35308  0.28504  1.0000
  H   H1699     1.0  0.40357  0.40516  0.14573  1.0000
  H   H1700     1.0  0.58643  0.31227  0.27600  1.0000
  H   H1701     1.0  0.58908  0.30998  0.20499  1.0000
  H   H1702     1.0  0.60851  0.40498  0.26033  1.0000
  H   H1703     1.0  0.58566  0.37594  0.27243  1.0000
  H   H1704     1.0  0.34852  0.39431  0.15078  1.0000
  C   C974      1.0  0.34657  0.41178  0.17846  1.0000
  H   H1705     1.0  0.59088  0.38779  0.23280  1.0000
  H   H1706     1.0  0.55477  0.30611  0.29936  1.0000
  C   C975      1.0  0.58540  0.33519  0.23968  1.0000
  H   H1707     1.0  0.47047  0.47924  0.16534  1.0000
  C   C976      1.0  0.45313  0.28210  0.22535  1.0000
  H   H1708     1.0  0.48259  0.27357  0.27220  1.0000
  N   N56       1.0  0.57536  0.35128  0.25412  1.0000
  C   C977      1.0  0.65497  0.43448  0.02152  1.0000
  H   H1709     1.0  0.60497  0.35570  0.26744  1.0000
  C   C978      1.0  0.58324  0.30211  0.21989  1.0000
  C   C979      1.0  0.53091  0.39393  0.24148  1.0000
  H   H1710     1.0  0.45110  0.46115  0.17188  1.0000
  H   H1711     1.0  0.48106  0.26511  0.16578  1.0000
  H   H1712     1.0  0.54500  0.35363  0.24097  1.0000
  H   H1713     1.0  0.43601  0.28232  0.22943  1.0000
  H   H1714     1.0  0.56468  0.30907  0.24785  1.0000
  H   H1715     1.0  0.65335  0.41737  0.02412  1.0000
  H   H1716     1.0  0.47166  0.25081  0.12966  1.0000
  H   H1717     1.0  0.37468  0.38617  0.12594  1.0000
  H   H1718     1.0  0.53632  0.39810  0.22507  1.0000
  H   H1719     1.0  0.55122  0.33308  0.27025  1.0000
  H   H1720     1.0  0.59669  0.29449  0.22805  1.0000
  H   H1721     1.0  0.59979  0.32760  0.24626  1.0000
  C   C980      1.0  0.59203  0.36521  0.26014  1.0000
  C   C981      1.0  0.56555  0.34104  0.27378  1.0000
  H   H1722     1.0  0.47415  0.43757  0.18458  1.0000
  H   H1723     1.0  0.39390  0.43261  0.09782  1.0000
  H   H1724     1.0  0.58422  0.27488  0.02740  1.0000
  C   C982      1.0  0.38579  0.43697  0.11304  1.0000
  C   C983      1.0  0.47853  0.46503  0.20298  1.0000
  H   H1725     1.0  0.49205  0.46953  0.19229  1.0000
  C   C984      1.0  0.40514  0.39802  0.13025  1.0000
  C   C985      1.0  0.37522  0.45911  0.10931  1.0000
  H   H1726     1.0  0.46389  0.43494  0.21131  1.0000
  C   C986      1.0  0.41375  0.37543  0.13343  1.0000
  H   H1727     1.0  0.56147  0.24963  0.42303  1.0000
  H   H1728     1.0  0.38332  0.49122  0.10238  1.0000
  H   H1729     1.0  0.65405  0.47112  0.99913  1.0000
  H   H1730     1.0  0.34389  0.38796  0.11299  1.0000
  C   C987      1.0  0.57126  0.26668  0.02118  1.0000
  C   C988      1.0  0.45985  0.26281  0.21294  1.0000
  H   H1731     1.0  0.40170  0.47198  0.09097  1.0000
  H   H1732     1.0  0.52561  0.26602  0.21258  1.0000
  H   H1733     1.0  0.39842  0.43859  0.12400  1.0000
  H   H1734     1.0  0.42917  0.37523  0.14058  1.0000
  H   H1735     1.0  0.34257  0.39772  0.18839  1.0000
  H   H1736     1.0  0.59622  0.48735  0.18706  1.0000
  H   H1737     1.0  0.66371  0.44003  0.03449  1.0000
  H   H1738     1.0  0.57246  0.47833  0.17777  1.0000
  H   H1739     1.0  0.56142  0.32681  0.31569  1.0000
  H   H1740     1.0  0.36487  0.46357  0.12305  1.0000
  H   H1741     1.0  0.36572  0.45955  0.09532  1.0000
  C   C989      1.0  0.51494  0.24930  0.18670  1.0000
  H   H1742     1.0  0.57849  0.30355  0.31326  1.0000
  H   H1743     1.0  0.51660  0.26418  0.17711  1.0000
  H   H1744     1.0  0.45012  0.26337  0.19918  1.0000
  H   H1745     1.0  0.57304  0.26126  0.07957  1.0000
  H   H1746     1.0  0.37586  0.43242  0.15171  1.0000
  H   H1747     1.0  0.56141  0.25053  0.21277  1.0000
  H   H1748     1.0  0.46141  0.28181  0.24012  1.0000
  H   H1749     1.0  0.35001  0.43568  0.14364  1.0000
  H   H1750     1.0  0.49147  0.26057  0.22159  1.0000
  C   C990      1.0  0.36390  0.42439  0.14358  1.0000
  H   H1751     1.0  0.48733  0.27802  0.19965  1.0000
  H   H1752     1.0  0.35657  0.42127  0.18738  1.0000
  C   C991      1.0  0.57971  0.29614  0.37257  1.0000
  S   S228      1.0  0.34042  0.46427  0.19550  1.0000
  C   C992      1.0  0.35832  0.40513  0.15820  1.0000
  H   H1753     1.0  0.35930  0.41924  0.09055  1.0000
  H   H1754     1.0  0.59682  0.47445  0.16250  1.0000
  S   S229      1.0  0.51298  0.28131  0.03704  1.0000
  C   C993      1.0  0.58751  0.48541  0.17283  1.0000
  H   H1755     1.0  0.51050  0.43386  0.19633  1.0000
  C   C994      1.0  0.61732  0.39369  0.25000  1.0000
  C   C995      1.0  0.53370  0.26788  0.25517  1.0000
  C   C996      1.0  0.48359  0.26230  0.20655  1.0000
  C   C997      1.0  0.54894  0.38360  0.25355  1.0000
  C   C998      1.0  0.60257  0.37842  0.24188  1.0000
  H   H1756     1.0  0.57276  0.28979  0.21606  1.0000
  C   C999      1.0  0.35330  0.42056  0.10719  1.0000
  C   C1000     1.0  0.49703  0.42892  0.20681  1.0000
  C   C1001     1.0  0.42233  0.45972  0.24548  1.0000
  H   H1757     1.0  0.59274  0.26468  0.37192  1.0000
  H   H1758     1.0  0.42342  0.45935  0.26274  1.0000
  H   H1759     1.0  0.61200  0.36814  0.23100  1.0000
  H   H1760     1.0  0.45659  0.29669  0.21597  1.0000
  C   C1002     1.0  0.57997  0.32504  0.28598  1.0000
  H   H1761     1.0  0.50027  0.43135  0.22334  1.0000
  H   H1762     1.0  0.56090  0.39537  0.25419  1.0000
  C   C1003     1.0  0.39144  0.47561  0.10509  1.0000
  H   H1763     1.0  0.38748  0.39594  0.10275  1.0000
  C   C1004     1.0  0.49862  0.26721  0.27100  1.0000
  H   H1764     1.0  0.55607  0.26004  0.05133  1.0000
  H   H1765     1.0  0.62989  0.38514  0.25875  1.0000
  H   H1766     1.0  0.54270  0.37982  0.26974  1.0000
  H   H1767     1.0  0.59728  0.49590  0.11918  1.0000
  H   H1768     1.0  0.45547  0.45890  0.23912  1.0000
  C   C1005     1.0  0.55985  0.26427  0.38482  1.0000
  C   C1006     1.0  0.45566  0.47712  0.17507  1.0000
  H   H1769     1.0  0.55069  0.27349  0.39684  1.0000
  H   H1770     1.0  0.48343  0.46777  0.21896  1.0000
  C   C1007     1.0  0.58153  0.27384  0.38222  1.0000
  H   H1771     1.0  0.55160  0.26779  0.37012  1.0000
  H   H1772     1.0  0.55605  0.26104  0.18686  1.0000
  H   H1773     1.0  0.63903  0.44235  0.02188  1.0000
  C   C1008     1.0  0.44006  0.47125  0.21060  1.0000
  H   H1774     1.0  0.57382  0.29615  0.35659  1.0000
  C   C1009     1.0  0.44177  0.46918  0.23470  1.0000
  H   H1775     1.0  0.43196  0.47317  0.14052  1.0000
  C   C1010     1.0  0.33674  0.40411  0.11208  1.0000
  S   S230      1.0  0.37652  0.49304  0.21138  1.0000
  C   C1011     1.0  0.52872  0.25055  0.20563  1.0000
  H   H1776     1.0  0.42301  0.49002  0.17443  1.0000
  H   H1777     1.0  0.50774  0.25022  0.07212  1.0000
  H   H1778     1.0  0.50993  0.25283  0.11050  1.0000
  H   H1779     1.0  0.59538  0.30285  0.37136  1.0000
  H   H1780     1.0  0.40789  0.46912  0.24143  1.0000
  C   C1012     1.0  0.55206  0.24866  0.19898  1.0000
  H   H1781     1.0  0.44314  0.48478  0.24114  1.0000
  H   H1782     1.0  0.42627  0.48219  0.20787  1.0000
  H   H1783     1.0  0.56295  0.26687  0.11645  1.0000
  Fe  Fe116     1.0  0.50798  0.25409  0.01596  1.0000
  H   H1784     1.0  0.58803  0.27484  0.39780  1.0000
  H   H1785     1.0  0.57712  0.25849  0.00690  1.0000
  H   H1786     1.0  0.56893  0.30624  0.38251  1.0000
  H   H1787     1.0  0.51970  0.26132  0.40562  1.0000
  Fe  Fe117     1.0  0.34108  0.49516  0.21054  1.0000
  C   C1013     1.0  0.56232  0.25115  0.03778  1.0000
  C   C1014     1.0  0.43627  0.48939  0.14295  1.0000
  C   C1015     1.0  0.43846  0.49251  0.16619  1.0000
  H   H1788     1.0  0.45115  0.49251  0.13380  1.0000
  H   H1789     1.0  0.60834  0.49080  0.08239  1.0000
  H   H1790     1.0  0.45629  0.24896  0.22333  1.0000
  Fe  Fe118     1.0  0.52011  0.31811  0.78366  1.0000
  S   S231      1.0  0.49940  0.31247  0.81320  1.0000
  S   S232      1.0  0.52852  0.29304  0.75882  1.0000
  Fe  Fe119     1.0  0.53394  0.36067  0.79855  1.0000
  S   S233      1.0  0.51403  0.35703  0.82836  1.0000
  S   S234      1.0  0.54767  0.39330  0.79657  1.0000
  Fe  Fe120     1.0  0.52578  0.32352  0.83079  1.0000
  S   S235      1.0  0.53766  0.31416  0.86326  1.0000
  Fe  Fe121     1.0  0.48895  0.34679  0.80906  1.0000
  S   S236      1.0  0.45698  0.36015  0.82157  1.0000
  S   S237      1.0  0.54742  0.32743  0.80186  1.0000
  S   S238      1.0  0.50793  0.35202  0.77859  1.0000
  N   N57       1.0  0.33940  0.42381  0.74994  1.0000
  H   H1791     1.0  0.36901  0.26531  0.53880  1.0000
  H   H1792     1.0  0.49326  0.25732  0.89129  1.0000
  Fe  Fe122     1.0  0.38123  0.46312  0.79591  1.0000
  S   S239      1.0  0.40273  0.43703  0.78186  1.0000
  H   H1793     1.0  0.51298  0.25146  0.78113  1.0000
  H   H1794     1.0  0.36258  0.30693  0.59420  1.0000
  Fe  Fe123     1.0  0.65156  0.45928  0.80926  1.0000
  S   S240      1.0  0.64580  0.47359  0.84056  1.0000
  S   S241      1.0  0.63931  0.42795  0.80073  1.0000
  N   N58       1.0  0.45940  0.47585  0.79730  1.0000
  H   H1795     1.0  0.48091  0.34024  0.86720  1.0000
  C   C1016     1.0  0.57332  0.40264  0.79749  1.0000
  C   C1017     1.0  0.59143  0.39006  0.79295  1.0000
  C   C1018     1.0  0.61141  0.39811  0.79399  1.0000
  C   C1019     1.0  0.61362  0.41885  0.79949  1.0000
  C   C1020     1.0  0.59549  0.43151  0.80389  1.0000
  C   C1021     1.0  0.57549  0.42349  0.80275  1.0000
  H   H1796     1.0  0.59007  0.37418  0.78839  1.0000
  H   H1797     1.0  0.62530  0.38820  0.79040  1.0000
  H   H1798     1.0  0.59695  0.44745  0.80813  1.0000
  H   H1799     1.0  0.56161  0.43347  0.80607  1.0000
  C   C1022     1.0  0.44337  0.38273  0.81083  1.0000
  C   C1023     1.0  0.44726  0.38992  0.79007  1.0000
  C   C1024     1.0  0.43489  0.40681  0.78161  1.0000
  C   C1025     1.0  0.41889  0.41706  0.79393  1.0000
  C   C1026     1.0  0.41550  0.41039  0.81492  1.0000
  C   C1027     1.0  0.42748  0.39311  0.82321  1.0000
  H   H1800     1.0  0.45933  0.38200  0.78031  1.0000
  H   H1801     1.0  0.43758  0.41177  0.76532  1.0000
  H   H1802     1.0  0.40316  0.41802  0.82456  1.0000
  H   H1803     1.0  0.42418  0.38753  0.83919  1.0000
  C   C1028     1.0  0.52705  0.29651  0.88288  1.0000
  C   C1029     1.0  0.53382  0.29683  0.90337  1.0000
  C   C1030     1.0  0.52575  0.28332  0.91956  1.0000
  C   C1031     1.0  0.51125  0.26880  0.91529  1.0000
  S   S242      1.0  0.34908  0.49405  0.86477  1.0000
  C   C1032     1.0  0.51222  0.28231  0.87868  1.0000
  H   H1804     1.0  0.54532  0.30766  0.90674  1.0000
  H   H1805     1.0  0.53083  0.28404  0.93530  1.0000
  H   H1806     1.0  0.36415  0.24904  0.59460  1.0000
  H   H1807     1.0  0.50691  0.28181  0.86299  1.0000
  C   C1033     1.0  0.57527  0.26994  0.95438  1.0000
  C   C1034     1.0  0.51889  0.27698  0.73946  1.0000
  C   C1035     1.0  0.33576  0.26079  0.53717  1.0000
  H   H1808     1.0  0.48086  0.41348  0.80520  1.0000
  H   H1809     1.0  0.37338  0.40359  0.80328  1.0000
  H   H1810     1.0  0.43986  0.32199  0.84870  1.0000
  H   H1811     1.0  0.48491  0.30968  0.91906  1.0000
  H   H1812     1.0  0.46702  0.28089  0.84605  1.0000
  H   H1813     1.0  0.48627  0.28657  0.74421  1.0000
  H   H1814     1.0  0.60338  0.34191  0.86102  1.0000
  H   H1815     1.0  0.49877  0.42176  0.78381  1.0000
  H   H1816     1.0  0.52316  0.39766  0.84789  1.0000
  H   H1817     1.0  0.55708  0.33639  0.92339  1.0000
  H   H1818     1.0  0.46747  0.29710  0.88027  1.0000
  S   S243      1.0  0.39054  0.48681  0.81792  1.0000
  H   H1819     1.0  0.34354  0.29220  0.52562  1.0000
  H   H1820     1.0  0.40058  0.25805  0.54860  1.0000
  H   H1821     1.0  0.43133  0.38865  0.87614  1.0000
  H   H1822     1.0  0.43973  0.30133  0.88302  1.0000
  H   H1823     1.0  0.48821  0.48895  0.80480  1.0000
  H   H1824     1.0  0.34871  0.38439  0.76989  1.0000
  H   H1825     1.0  0.58586  0.47502  0.74239  1.0000
  H   H1826     1.0  0.37303  0.43249  0.72240  1.0000
  H   H1827     1.0  0.43168  0.49511  0.78927  1.0000
  S   S244      1.0  0.37241  0.48743  0.77088  1.0000
  C   C1036     1.0  0.37061  0.39115  0.79244  1.0000
  H   H1828     1.0  0.37681  0.28098  0.56916  1.0000
  C   C1037     1.0  0.58795  0.34766  0.85516  1.0000
  H   H1829     1.0  0.44370  0.45885  0.86102  1.0000
  C   C1038     1.0  0.45285  0.29114  0.84289  1.0000
  H   H1830     1.0  0.60193  0.33207  0.80431  1.0000
  C   C1039     1.0  0.60087  0.33012  0.82168  1.0000
  H   H1831     1.0  0.40758  0.37443  0.87915  1.0000
  C   C1040     1.0  0.35972  0.29010  0.59737  1.0000
  H   H1832     1.0  0.37811  0.44818  0.74373  1.0000
  H   H1833     1.0  0.48205  0.35211  0.91316  1.0000
  H   H1834     1.0  0.42992  0.46824  0.78580  1.0000
  H   H1835     1.0  0.37127  0.41575  0.75832  1.0000
  H   H1836     1.0  0.47606  0.45545  0.77512  1.0000
  H   H1837     1.0  0.36769  0.37651  0.80191  1.0000
  C   C1041     1.0  0.59041  0.34991  0.83095  1.0000
  H   H1838     1.0  0.47728  0.36879  0.89006  1.0000
  H   H1839     1.0  0.55078  0.25116  0.89053  1.0000
  C   C1042     1.0  0.44100  0.48093  0.78390  1.0000
  C   C1043     1.0  0.33402  0.41365  0.71157  1.0000
  C   C1044     1.0  0.46843  0.30523  0.92150  1.0000
  H   H1840     1.0  0.34631  0.42303  0.70336  1.0000
  S   S245      1.0  0.64801  0.48985  0.79049  1.0000
  H   H1841     1.0  0.45636  0.49753  0.75657  1.0000
  H   H1842     1.0  0.59991  0.49362  0.79223  1.0000
  H   H1843     1.0  0.63267  0.40314  0.86989  1.0000
  Fe  Fe124     1.0  0.35661  0.48769  0.83014  1.0000
  C   C1045     1.0  0.66194  0.46271  0.91906  1.0000
  H   H1844     1.0  0.54281  0.41480  0.83681  1.0000
  C   C1046     1.0  0.62042  0.41001  0.85964  1.0000
  C   C1047     1.0  0.36963  0.46578  0.71593  1.0000
  H   H1845     1.0  0.51794  0.34297  0.89906  1.0000
  C   C1048     1.0  0.43865  0.45656  0.82783  1.0000
  C   C1049     1.0  0.52647  0.25069  0.71260  1.0000
  C   C1050     1.0  0.58305  0.34270  0.90058  1.0000
  H   H1846     1.0  0.57733  0.33453  0.85832  1.0000
  H   H1847     1.0  0.55093  0.45482  0.77038  1.0000
  H   H1848     1.0  0.45746  0.44290  0.79196  1.0000
  H   H1849     1.0  0.59561  0.40080  0.84191  1.0000
  H   H1850     1.0  0.56815  0.38370  0.83902  1.0000
  H   H1851     1.0  0.61799  0.38231  0.84309  1.0000
  H   H1852     1.0  0.54295  0.39285  0.88047  1.0000
  C   C1051     1.0  0.36746  0.44661  0.73090  1.0000
  H   H1853     1.0  0.51322  0.37086  0.90070  1.0000
  C   C1052     1.0  0.35841  0.25225  0.54139  1.0000
  C   C1053     1.0  0.50896  0.35692  0.89259  1.0000
  H   H1854     1.0  0.41601  0.47532  0.75034  1.0000
  C   C1054     1.0  0.59669  0.38068  0.87119  1.0000
  H   H1855     1.0  0.49052  0.32219  0.88632  1.0000
  C   C1055     1.0  0.56230  0.37821  0.85487  1.0000
  H   H1856     1.0  0.58350  0.32717  0.89349  1.0000
  H   H1857     1.0  0.45377  0.33617  0.92212  1.0000
  C   C1056     1.0  0.44067  0.34496  0.88227  1.0000
  H   H1858     1.0  0.44642  0.35318  0.86744  1.0000
  H   H1859     1.0  0.48393  0.44728  0.82196  1.0000
  H   H1860     1.0  0.60968  0.37150  0.87869  1.0000
  C   C1057     1.0  0.53512  0.40858  0.85162  1.0000
  C   C1058     1.0  0.49408  0.42358  0.80065  1.0000
  C   C1059     1.0  0.57606  0.48737  0.82947  1.0000
  H   H1861     1.0  0.47499  0.28905  0.95116  1.0000
  H   H1862     1.0  0.61696  0.32720  0.82715  1.0000
  H   H1863     1.0  0.54990  0.46167  0.74261  1.0000
  H   H1864     1.0  0.43692  0.31712  0.91531  1.0000
  C   C1060     1.0  0.47878  0.33544  0.88410  1.0000
  H   H1865     1.0  0.64461  0.46330  0.92170  1.0000
  H   H1866     1.0  0.42611  0.33761  0.87835  1.0000
  C   C1061     1.0  0.45441  0.30891  0.87736  1.0000
  H   H1867     1.0  0.35632  0.39941  0.73231  1.0000
  H   H1868     1.0  0.54999  0.36725  0.85200  1.0000
  H   H1869     1.0  0.62834  0.41806  0.84586  1.0000
  C   C1062     1.0  0.45380  0.31206  0.85319  1.0000
  C   C1063     1.0  0.46946  0.45485  0.79158  1.0000
  H   H1870     1.0  0.59148  0.31637  0.82617  1.0000
  H   H1871     1.0  0.52709  0.42190  0.85987  1.0000
  H   H1872     1.0  0.55465  0.35146  0.88521  1.0000
  H   H1873     1.0  0.38620  0.46659  0.70985  1.0000
  H   H1874     1.0  0.46598  0.31603  0.95346  1.0000
  C   C1064     1.0  0.35606  0.25547  0.58053  1.0000
  H   H1875     1.0  0.44591  0.36812  0.90602  1.0000
  H   H1876     1.0  0.61041  0.42189  0.86821  1.0000
  H   H1877     1.0  0.42227  0.35456  0.91052  1.0000
  C   C1065     1.0  0.55137  0.39753  0.86548  1.0000
  H   H1878     1.0  0.59938  0.34732  0.90131  1.0000
  C   C1066     1.0  0.46391  0.30158  0.94508  1.0000
  H   H1879     1.0  0.44771  0.29649  0.94847  1.0000
  H   H1880     1.0  0.46683  0.29007  0.91426  1.0000
  C   C1067     1.0  0.56957  0.35895  0.88760  1.0000
  H   H1881     1.0  0.59235  0.48035  0.82968  1.0000
  H   H1882     1.0  0.59994  0.36308  0.82561  1.0000
  H   H1883     1.0  0.59085  0.39221  0.88293  1.0000
  H   H1884     1.0  0.46794  0.31957  0.84643  1.0000
  C   C1068     1.0  0.43295  0.36169  0.89817  1.0000
  C   C1069     1.0  0.57384  0.34005  0.92311  1.0000
  H   H1885     1.0  0.44832  0.44166  0.82706  1.0000
  H   H1886     1.0  0.56293  0.40911  0.86853  1.0000
  H   H1887     1.0  0.57483  0.35249  0.82424  1.0000
  H   H1888     1.0  0.56526  0.37229  0.89779  1.0000
  C   C1070     1.0  0.53320  0.26383  0.72781  1.0000
  H   H1889     1.0  0.50756  0.41810  0.81000  1.0000
  H   H1890     1.0  0.57516  0.35460  0.93158  1.0000
  H   H1891     1.0  0.58258  0.32704  0.93148  1.0000
  C   C1071     1.0  0.60716  0.39296  0.85229  1.0000
  C   C1072     1.0  0.45314  0.32249  0.91230  1.0000
  H   H1892     1.0  0.34394  0.28885  0.60543  1.0000
  N   N59       1.0  0.57943  0.36665  0.86676  1.0000
  H   H1893     1.0  0.42024  0.47303  0.85242  1.0000
  C   C1073     1.0  0.48544  0.35415  0.89605  1.0000
  C   C1074     1.0  0.48788  0.44644  0.80493  1.0000
  H   H1894     1.0  0.36508  0.48033  0.72421  1.0000
  N   N60       1.0  0.45690  0.32836  0.88927  1.0000
  H   H1895     1.0  0.33382  0.44997  0.72774  1.0000
  C   C1075     1.0  0.35166  0.39758  0.77971  1.0000
  S   S246      1.0  0.34804  0.46196  0.80987  1.0000
  H   H1896     1.0  0.38490  0.38835  0.78199  1.0000
  H   H1897     1.0  0.54972  0.26388  0.73051  1.0000
  H   H1898     1.0  0.34962  0.28708  0.56646  1.0000
  H   H1899     1.0  0.51342  0.35915  0.87563  1.0000
  H   H1900     1.0  0.56548  0.47676  0.83865  1.0000
  C   C1076     1.0  0.42077  0.38003  0.88749  1.0000
  H   H1901     1.0  0.44116  0.48989  0.82309  1.0000
  H   H1902     1.0  0.41426  0.39104  0.89942  1.0000
  C   C1077     1.0  0.49759  0.27664  0.73555  1.0000
  H   H1903     1.0  0.34648  0.38471  0.69775  1.0000
  H   H1904     1.0  0.60751  0.49781  0.75666  1.0000
  C   C1078     1.0  0.45144  0.47560  0.82001  1.0000
  Fe  Fe125     1.0  0.33978  0.48787  0.78586  1.0000
  C   C1079     1.0  0.33557  0.27860  0.52039  1.0000
  H   H1905     1.0  0.34189  0.45720  0.75198  1.0000
  H   H1906     1.0  0.46458  0.47645  0.83052  1.0000
  H   H1907     1.0  0.50186  0.45567  0.80100  1.0000
  H   H1908     1.0  0.56894  0.44203  0.75185  1.0000
  H   H1909     1.0  0.47436  0.26358  0.71751  1.0000
  C   C1080     1.0  0.43047  0.45855  0.85061  1.0000
  C   C1081     1.0  0.36107  0.27887  0.57677  1.0000
  H   H1910     1.0  0.43861  0.28308  0.84879  1.0000
  H   H1911     1.0  0.33901  0.25568  0.58527  1.0000
  C   C1082     1.0  0.50517  0.25037  0.70867  1.0000
  H   H1912     1.0  0.35624  0.43087  0.77691  1.0000
  C   C1083     1.0  0.50452  0.26845  0.89477  1.0000
  H   H1913     1.0  0.42503  0.45522  0.81823  1.0000
  C   C1084     1.0  0.56044  0.45717  0.75543  1.0000
  C   C1085     1.0  0.35530  0.41792  0.76607  1.0000
  C   C1086     1.0  0.49086  0.26351  0.72032  1.0000
  H   H1914     1.0  0.55319  0.49786  0.80765  1.0000
  H   H1915     1.0  0.58688  0.46839  0.76982  1.0000
  H   H1916     1.0  0.37178  0.28325  0.60787  1.0000
  C   C1087     1.0  0.57622  0.47388  0.75741  1.0000
  H   H1917     1.0  0.45227  0.29393  0.82566  1.0000
  H   H1918     1.0  0.35962  0.46485  0.70245  1.0000
  H   H1919     1.0  0.64930  0.46962  0.96230  1.0000
  H   H1920     1.0  0.65764  0.43256  0.98816  1.0000
  H   H1921     1.0  0.42108  0.44493  0.85558  1.0000
  H   H1922     1.0  0.55072  0.49298  0.77192  1.0000
  C   C1088     1.0  0.34458  0.44494  0.74017  1.0000
  H   H1923     1.0  0.66529  0.44698  0.95722  1.0000
  S   S247      1.0  0.48080  0.25306  0.99498  1.0000
  C   C1089     1.0  0.34020  0.40692  0.73416  1.0000
  H   H1924     1.0  0.56829  0.47468  0.80084  1.0000
  H   H1925     1.0  0.40026  0.25559  0.57698  1.0000
  H   H1926     1.0  0.33815  0.40001  0.79121  1.0000
  H   H1927     1.0  0.57933  0.28052  0.94064  1.0000
  C   C1090     1.0  0.47552  0.49209  0.79373  1.0000
  S   S248      1.0  0.50136  0.25046  0.93467  1.0000
  C   C1091     1.0  0.33342  0.48215  0.88550  1.0000
  C   C1092     1.0  0.56921  0.49044  0.80701  1.0000
  H   H1928     1.0  0.58569  0.27280  0.96708  1.0000
  H   H1929     1.0  0.45428  0.46995  0.75343  1.0000
  H   H1930     1.0  0.55884  0.27375  0.96009  1.0000
  C   C1093     1.0  0.56517  0.49560  0.76195  1.0000
  H   H1931     1.0  0.48347  0.49101  0.77783  1.0000
  C   C1094     1.0  0.44625  0.48416  0.76000  1.0000
  C   C1095     1.0  0.42633  0.48872  0.74819  1.0000
  H   H1932     1.0  0.43046  0.49121  0.73119  1.0000
  H   H1933     1.0  0.34352  0.27323  0.50552  1.0000
  H   H1934     1.0  0.56960  0.25308  0.91736  1.0000
  Fe  Fe126     1.0  0.48216  0.61918  0.19539  1.0000
  S   S249      1.0  0.50616  0.60565  0.17209  1.0000
  S   S250      1.0  0.45166  0.60329  0.20624  1.0000
  Fe  Fe127     1.0  0.51233  0.65196  0.20923  1.0000
  S   S251      1.0  0.53824  0.63955  0.18662  1.0000
  S   S252      1.0  0.52326  0.67727  0.23053  1.0000
  Fe  Fe128     1.0  0.51342  0.63921  0.16304  1.0000
  S   S253      1.0  0.52408  0.64703  0.12862  1.0000
  Fe  Fe129     1.0  0.52916  0.60717  0.19708  1.0000
  S   S254      1.0  0.54722  0.57699  0.20764  1.0000
  S   S255      1.0  0.48774  0.65311  0.18499  1.0000
  S   S256      1.0  0.50490  0.61932  0.22097  1.0000
  S   S257      1.0  0.64226  0.54130  0.19663  1.0000
  S   S258      1.0  0.40013  0.53354  0.16670  1.0000
  H   H1935     1.0  0.47091  0.71540  0.27757  1.0000
  H   H1936     1.0  0.37569  0.59457  0.23715  1.0000
  H   H1937     1.0  0.49310  0.68289  0.12867  1.0000
  Fe  Fe130     1.0  0.50563  0.72185  0.02230  1.0000
  S   S259      1.0  0.49767  0.71619  0.05766  1.0000
  H   H1938     1.0  0.36997  0.52902  0.27144  1.0000
  H   H1939     1.0  0.36045  0.72981  0.48249  1.0000
  H   H1940     1.0  0.56261  0.63321  0.33249  1.0000
  C   C1096     1.0  0.56149  0.69799  0.11721  1.0000
  C   C1097     1.0  0.51451  0.69482  0.25077  1.0000
  C   C1098     1.0  0.52951  0.70534  0.26094  1.0000
  C   C1099     1.0  0.52353  0.71936  0.27698  1.0000
  C   C1100     1.0  0.50233  0.72325  0.28313  1.0000
  C   C1101     1.0  0.48735  0.71270  0.27299  1.0000
  C   C1102     1.0  0.49333  0.69865  0.25697  1.0000
  H   H1941     1.0  0.54596  0.70256  0.25643  1.0000
  H   H1942     1.0  0.62145  0.56141  0.12839  1.0000
  H   H1943     1.0  0.42326  0.70899  0.05071  1.0000
  H   H1944     1.0  0.48151  0.69078  0.24945  1.0000
  C   C1103     1.0  0.57386  0.56775  0.20478  1.0000
  C   C1104     1.0  0.58984  0.58063  0.19729  1.0000
  C   C1105     1.0  0.61076  0.57239  0.19533  1.0000
  C   C1106     1.0  0.61589  0.55119  0.20060  1.0000
  C   C1107     1.0  0.59991  0.53838  0.20820  1.0000
  C   C1108     1.0  0.57906  0.54665  0.21031  1.0000
  H   H1945     1.0  0.58606  0.59684  0.19284  1.0000
  H   H1946     1.0  0.62301  0.58242  0.18939  1.0000
  H   H1947     1.0  0.60362  0.52207  0.21236  1.0000
  H   H1948     1.0  0.56682  0.53655  0.21615  1.0000
  C   C1109     1.0  0.43940  0.58238  0.19517  1.0000
  C   C1110     1.0  0.44063  0.57943  0.17360  1.0000
  C   C1111     1.0  0.42887  0.56412  0.16526  1.0000
  C   C1112     1.0  0.41603  0.55126  0.17833  1.0000
  C   C1113     1.0  0.41563  0.55344  0.19997  1.0000
  C   C1114     1.0  0.42687  0.56918  0.20829  1.0000
  H   H1949     1.0  0.45006  0.58946  0.16325  1.0000
  H   H1950     1.0  0.42944  0.56254  0.14848  1.0000
  H   H1951     1.0  0.40626  0.54330  0.21019  1.0000
  H   H1952     1.0  0.42586  0.57123  0.22500  1.0000
  C   C1115     1.0  0.51603  0.66612  0.10901  1.0000
  C   C1116     1.0  0.52577  0.66545  0.08868  1.0000
  C   C1117     1.0  0.52026  0.68041  0.07269  1.0000
  C   C1118     1.0  0.50494  0.69637  0.07686  1.0000
  C   C1119     1.0  0.49529  0.69711  0.09720  1.0000
  C   C1120     1.0  0.50073  0.68210  0.11316  1.0000
  H   H1953     1.0  0.53764  0.65319  0.08526  1.0000
  H   H1954     1.0  0.52784  0.67955  0.05717  1.0000
  H   H1955     1.0  0.48338  0.70927  0.10063  1.0000
  C   C1121     1.0  0.35208  0.70329  0.46534  1.0000
  C   C1122     1.0  0.62234  0.54720  0.13904  1.0000
  H   H1956     1.0  0.57281  0.65878  0.32810  1.0000
  H   H1957     1.0  0.36365  0.55309  0.19691  1.0000
  H   H1958     1.0  0.36483  0.60934  0.21576  1.0000
  C   C1123     1.0  0.38204  0.53482  0.25970  1.0000
  C   C1124     1.0  0.37380  0.55476  0.24812  1.0000
  C   C1125     1.0  0.36126  0.60299  0.23193  1.0000
  C   C1126     1.0  0.60254  0.50663  0.08719  1.0000
  S   S260      1.0  0.49357  0.74089  0.30330  1.0000
  H   H1959     1.0  0.42375  0.50049  0.13706  1.0000
  H   H1960     1.0  0.38010  0.68647  0.49537  1.0000
  H   H1961     1.0  0.33385  0.70300  0.41620  1.0000
  H   H1962     1.0  0.60239  0.54250  0.10625  1.0000
  H   H1963     1.0  0.53535  0.72694  0.28477  1.0000
  H   H1964     1.0  0.65805  0.72954  0.47314  1.0000
  C   C1127     1.0  0.50050  0.74026  0.41009  1.0000
  H   H1965     1.0  0.57599  0.69583  0.01510  1.0000
  H   H1966     1.0  0.33654  0.58620  0.24927  1.0000
  H   H1967     1.0  0.56371  0.69146  0.08465  1.0000
  H   H1968     1.0  0.66504  0.69766  0.43876  1.0000
  C   C1128     1.0  0.57121  0.71827  0.05113  1.0000
  C   C1129     1.0  0.57869  0.72606  0.02880  1.0000
  H   H1969     1.0  0.56071  0.60002  0.13617  1.0000
  H   H1970     1.0  0.47799  0.51185  0.17331  1.0000
  H   H1971     1.0  0.45306  0.72803  0.06217  1.0000
  H   H1972     1.0  0.35140  0.74680  0.41242  1.0000
  C   C1130     1.0  0.43571  0.71451  0.03928  1.0000
  H   H1973     1.0  0.56049  0.55750  0.27784  1.0000
  H   H1974     1.0  0.37027  0.63170  0.24466  1.0000
  H   H1975     1.0  0.56818  0.68207  0.12145  1.0000
  H   H1976     1.0  0.35386  0.61622  0.26243  1.0000
  C   C1131     1.0  0.60567  0.50861  0.11048  1.0000
  H   H1977     1.0  0.58703  0.55326  0.16512  1.0000
  H   H1978     1.0  0.56710  0.70919  0.12805  1.0000
  C   C1132     1.0  0.36052  0.56900  0.20316  1.0000
  H   H1979     1.0  0.38285  0.71659  0.46977  1.0000
  H   H1980     1.0  0.44779  0.70152  0.03703  1.0000
  N   N61       1.0  0.60219  0.53595  0.13974  1.0000
  H   H1981     1.0  0.37955  0.57578  0.16255  1.0000
  H   H1982     1.0  0.58566  0.50881  0.08404  1.0000
  H   H1983     1.0  0.33620  0.50084  0.06697  1.0000
  H   H1984     1.0  0.59611  0.65143  0.22056  1.0000
  H   H1985     1.0  0.36958  0.69027  0.40557  1.0000
  H   H1986     1.0  0.56528  0.73361  0.02066  1.0000
  C   C1133     1.0  0.56182  0.58422  0.14413  1.0000
  H   H1987     1.0  0.46603  0.54342  0.19264  1.0000
  C   C1134     1.0  0.37180  0.58983  0.16976  1.0000
  H   H1988     1.0  0.62482  0.55285  0.15486  1.0000
  H   H1989     1.0  0.61538  0.50499  0.14875  1.0000
  N   N62       1.0  0.34548  0.56811  0.22226  1.0000
  H   H1990     1.0  0.58259  0.57130  0.11980  1.0000
  H   H1991     1.0  0.58701  0.63689  0.19982  1.0000
  H   H1992     1.0  0.60306  0.62364  0.21907  1.0000
  C   C1135     1.0  0.44589  0.73330  0.04737  1.0000
  Fe  Fe131     1.0  0.37716  0.50917  0.17948  1.0000
  H   H1993     1.0  0.60212  0.70075  0.02240  1.0000
  H   H1994     1.0  0.58393  0.70750  0.05702  1.0000
  H   H1995     1.0  0.36210  0.71715  0.39940  1.0000
  H   H1996     1.0  0.38349  0.59781  0.17822  1.0000
  C   C1136     1.0  0.66207  0.54653  0.13498  1.0000
  S   S261      1.0  0.34182  0.51353  0.17931  1.0000
  H   H1997     1.0  0.60937  0.72718  0.06300  1.0000
  C   C1137     1.0  0.35351  0.55097  0.23726  1.0000
  H   H1998     1.0  0.38644  0.52240  0.24847  1.0000
  N   N63       1.0  0.35010  0.71180  0.44306  1.0000
  H   H1999     1.0  0.37051  0.56687  0.25990  1.0000
  H   H2000     1.0  0.52838  0.72973  0.22133  1.0000
  H   H2001     1.0  0.64056  0.70972  0.46801  1.0000
  H   H2002     1.0  0.37609  0.57367  0.20730  1.0000
  C   C1138     1.0  0.34223  0.58885  0.23260  1.0000
  H   H2003     1.0  0.39618  0.53810  0.26796  1.0000
  C   C1139     1.0  0.58483  0.55069  0.14839  1.0000
  H   H2004     1.0  0.64244  0.53265  0.11428  1.0000
  C   C1140     1.0  0.60402  0.51719  0.15489  1.0000
  H   H2005     1.0  0.55777  0.70821  0.04954  1.0000
  C   C1141     1.0  0.35332  0.58365  0.18458  1.0000
  H   H2006     1.0  0.59107  0.73742  0.02909  1.0000
  C   C1142     1.0  0.58238  0.57259  0.13704  1.0000
  H   H2007     1.0  0.38165  0.69735  0.43901  1.0000
  H   H2008     1.0  0.58912  0.63592  0.32143  1.0000
  H   H2009     1.0  0.38646  0.55982  0.23685  1.0000
  H   H2010     1.0  0.48631  0.64087  0.28788  1.0000
  C   C1143     1.0  0.37175  0.71045  0.43199  1.0000
  H   H2011     1.0  0.40705  0.69979  0.40653  1.0000
  H   H2012     1.0  0.34183  0.54778  0.25033  1.0000
  H   H2013     1.0  0.33723  0.56150  0.08284  1.0000
  C   C1144     1.0  0.33679  0.74530  0.42244  1.0000
  H   H2014     1.0  0.49391  0.54216  0.18685  1.0000
  H   H2015     1.0  0.61072  0.52164  0.16958  1.0000
  H   H2016     1.0  0.66340  0.54855  0.15199  1.0000
  C   C1145     1.0  0.64259  0.53476  0.13137  1.0000
  H   H2017     1.0  0.54048  0.72195  0.08721  1.0000
  C   C1146     1.0  0.60390  0.73943  0.07400  1.0000
  H   H2018     1.0  0.56938  0.54358  0.14817  1.0000
  H   H2019     1.0  0.35673  0.68624  0.46547  1.0000
  H   H2020     1.0  0.58400  0.58656  0.27384  1.0000
  C   C1147     1.0  0.48023  0.51181  0.19035  1.0000
  H   H2021     1.0  0.41667  0.74622  0.06170  1.0000
  H   H2022     1.0  0.59162  0.71394  0.99947  1.0000
  H   H2023     1.0  0.50446  0.66131  0.28350  1.0000
  Fe  Fe132     1.0  0.65449  0.50700  0.19880  1.0000
  H   H2024     1.0  0.34248  0.57542  0.17527  1.0000
  C   C1148     1.0  0.58329  0.50658  0.16138  1.0000
  H   H2025     1.0  0.65704  0.72504  0.43553  1.0000
  H   H2026     1.0  0.44222  0.50902  0.16772  1.0000
  H   H2027     1.0  0.58137  0.55187  0.25838  1.0000
  H   H2028     1.0  0.48366  0.53565  0.21303  1.0000
  H   H2029     1.0  0.34202  0.68176  0.43299  1.0000
  H   H2030     1.0  0.57971  0.53041  0.11676  1.0000
  H   H2031     1.0  0.54414  0.69775  0.11926  1.0000
  H   H2032     1.0  0.59528  0.58240  0.14081  1.0000
  H   H2033     1.0  0.35597  0.53598  0.22906  1.0000
  C   C1149     1.0  0.55742  0.72528  0.08733  1.0000
  H   H2034     1.0  0.60322  0.73259  0.09025  1.0000
  C   C1150     1.0  0.36753  0.71427  0.47836  1.0000
  H   H2035     1.0  0.55553  0.55985  0.25030  1.0000
  N   N64       1.0  0.56489  0.73509  0.06636  1.0000
  H   H2036     1.0  0.49574  0.64799  0.26155  1.0000
  H   H2037     1.0  0.54813  0.57561  0.14014  1.0000
  H   H2038     1.0  0.64450  0.51929  0.13965  1.0000
  H   H2039     1.0  0.34491  0.59815  0.19008  1.0000
  C   C1151     1.0  0.48095  0.53461  0.19614  1.0000
  C   C1152     1.0  0.52471  0.74178  0.20882  1.0000
  C   C1153     1.0  0.34180  0.73430  0.44375  1.0000
  C   C1154     1.0  0.56827  0.70407  0.09452  1.0000
  N   N65       1.0  0.55742  0.62239  0.26835  1.0000
  C   C1155     1.0  0.56424  0.62269  0.29052  1.0000
  C   C1156     1.0  0.55340  0.60014  0.26372  1.0000
  C   C1157     1.0  0.57459  0.63087  0.25371  1.0000
  C   C1158     1.0  0.53758  0.63580  0.26560  1.0000
  C   C1159     1.0  0.51840  0.62974  0.28016  1.0000
  C   C1160     1.0  0.56466  0.64463  0.29979  1.0000
  C   C1161     1.0  0.57069  0.63109  0.23003  1.0000
  C   C1162     1.0  0.57312  0.58499  0.26127  1.0000
  C   C1163     1.0  0.56719  0.56218  0.26201  1.0000
  C   C1164     1.0  0.50015  0.64600  0.27809  1.0000
  C   C1165     1.0  0.57282  0.64292  0.32180  1.0000
  C   C1166     1.0  0.59050  0.63608  0.21664  1.0000
  H   H2040     1.0  0.58028  0.61522  0.29160  1.0000
  H   H2041     1.0  0.55413  0.61301  0.30142  1.0000
  H   H2042     1.0  0.54281  0.59324  0.27632  1.0000
  H   H2043     1.0  0.54463  0.59959  0.24924  1.0000
  H   H2044     1.0  0.58984  0.62217  0.25637  1.0000
  H   H2045     1.0  0.57710  0.64738  0.25703  1.0000
  H   H2046     1.0  0.54037  0.65263  0.26718  1.0000
  H   H2047     1.0  0.53253  0.63500  0.24939  1.0000
  H   H2048     1.0  0.52215  0.62849  0.29686  1.0000
  H   H2049     1.0  0.51291  0.61448  0.27585  1.0000
  H   H2050     1.0  0.57497  0.65496  0.28997  1.0000
  H   H2051     1.0  0.54873  0.65242  0.30108  1.0000
  H   H2052     1.0  0.55845  0.64342  0.22624  1.0000
  H   H2053     1.0  0.56553  0.61592  0.22525  1.0000
  H   H2054     1.0  0.58173  0.58827  0.24597  1.0000
  H   H2055     1.0  0.56106  0.58619  0.16130  1.0000
  H   H2056     1.0  0.50339  0.72957  0.42393  1.0000
  H   H2057     1.0  0.58554  0.70437  0.09332  1.0000
  C   C1167     1.0  0.65727  0.71343  0.46793  1.0000
  H   H2058     1.0  0.43406  0.73970  0.09177  1.0000
  C   C1168     1.0  0.37318  0.70669  0.40814  1.0000
  H   H2059     1.0  0.48964  0.73293  0.40010  1.0000
  H   H2060     1.0  0.63573  0.68233  0.49253  1.0000
  H   H2061     1.0  0.44765  0.51069  0.20221  1.0000
  C   C1169     1.0  0.58764  0.70795  0.01573  1.0000
  H   H2062     1.0  0.53436  0.73767  0.05345  1.0000
  C   C1170     1.0  0.46247  0.50077  0.20341  1.0000
  H   H2063     1.0  0.38018  0.72483  0.43439  1.0000
  H   H2064     1.0  0.33678  0.70472  0.47451  1.0000
  C   C1171     1.0  0.33539  0.69824  0.43293  1.0000
  H   H2065     1.0  0.36612  0.60066  0.15699  1.0000
  H   H2066     1.0  0.57421  0.50422  0.14754  1.0000
  C   C1172     1.0  0.59701  0.53030  0.11804  1.0000
  H   H2067     1.0  0.39906  0.72673  0.39976  1.0000
  S   S262      1.0  0.53284  0.71118  0.00067  1.0000
  H   H2068     1.0  0.42889  0.71863  0.02397  1.0000
  H   H2069     1.0  0.57344  0.51649  0.17233  1.0000
  H   H2070     1.0  0.51556  0.74235  0.40083  1.0000
  H   H2071     1.0  0.46638  0.50130  0.22006  1.0000
  H   H2072     1.0  0.66144  0.56214  0.12662  1.0000
  H   H2073     1.0  0.53624  0.73940  0.19536  1.0000
  H   H2074     1.0  0.61147  0.51842  0.07763  1.0000
  H   H2075     1.0  0.55842  0.73644  0.09999  1.0000
  H   H2076     1.0  0.62256  0.50570  0.11289  1.0000
  H   H2077     1.0  0.49572  0.50393  0.19336  1.0000
  C   C1173     1.0  0.35663  0.62164  0.24579  1.0000
  H   H2078     1.0  0.45852  0.73772  0.03568  1.0000
  C   C1174     1.0  0.39522  0.71015  0.39850  1.0000
  H   H2079     1.0  0.50879  0.73952  0.20358  1.0000
  H   H2080     1.0  0.34267  0.63119  0.24065  1.0000
  H   H2081     1.0  0.44447  0.74257  0.12753  1.0000
  H   H2082     1.0  0.39606  0.70662  0.38165  1.0000
  H   H2083     1.0  0.46746  0.74266  0.10985  1.0000
  H   H2084     1.0  0.35335  0.74397  0.45056  1.0000
  H   H2085     1.0  0.63588  0.74824  0.07676  1.0000
  H   H2086     1.0  0.34680  0.72981  0.99939  1.0000
  C   C1175     1.0  0.54664  0.74806  0.05764  1.0000
  S   S263      1.0  0.48178  0.71824  0.99824  1.0000
  Fe  Fe133     1.0  0.38013  0.51109  0.79387  1.0000
  S   S264      1.0  0.40090  0.53743  0.78121  1.0000
  C   C1176     1.0  0.37355  0.67563  0.58574  1.0000
  Fe  Fe134     1.0  0.50287  0.65472  0.78138  1.0000
  S   S265      1.0  0.48082  0.65167  0.81019  1.0000
  S   S266      1.0  0.49056  0.67709  0.75472  1.0000
  Fe  Fe135     1.0  0.53557  0.62373  0.80157  1.0000
  S   S267      1.0  0.51586  0.61945  0.83151  1.0000
  S   S268      1.0  0.56911  0.60961  0.79627  1.0000
  Fe  Fe136     1.0  0.48900  0.61696  0.81052  1.0000
  S   S269      1.0  0.46681  0.59180  0.82337  1.0000
  Fe  Fe137     1.0  0.50897  0.65421  0.82920  1.0000
  S   S270      1.0  0.50775  0.67815  0.85490  1.0000
  S   S271      1.0  0.50921  0.61940  0.78044  1.0000
  S   S272      1.0  0.53053  0.65903  0.80038  1.0000
  H   H2087     1.0  0.56173  0.67677  0.91198  1.0000
  S   S273      1.0  0.61544  0.52575  0.83299  1.0000
  C   C1177     1.0  0.57734  0.66882  0.91459  1.0000
  Fe  Fe138     1.0  0.64379  0.50458  0.82193  1.0000
  H   H2088     1.0  0.40684  0.61753  0.86071  1.0000
  S   S274      1.0  0.34661  0.51359  0.80706  1.0000
  Fe  Fe139     1.0  0.50942  0.71032  0.97558  1.0000
  S   S275      1.0  0.51123  0.68190  0.95466  1.0000
  C   C1178     1.0  0.58135  0.58575  0.80600  1.0000
  C   C1179     1.0  0.57119  0.57245  0.82076  1.0000
  C   C1180     1.0  0.58190  0.55422  0.82884  1.0000
  C   C1181     1.0  0.60274  0.54881  0.82194  1.0000
  C   C1182     1.0  0.61272  0.56184  0.80678  1.0000
  C   C1183     1.0  0.60212  0.58026  0.79899  1.0000
  H   H2089     1.0  0.55513  0.57633  0.82603  1.0000
  H   H2090     1.0  0.57399  0.54422  0.84049  1.0000
  H   H2091     1.0  0.62875  0.55798  0.80136  1.0000
  H   H2092     1.0  0.61014  0.59043  0.78754  1.0000
  C   C1184     1.0  0.50911  0.67863  0.88264  1.0000
  C   C1185     1.0  0.51266  0.66051  0.89531  1.0000
  C   C1186     1.0  0.51331  0.66180  0.91725  1.0000
  C   C1187     1.0  0.51057  0.68122  0.92683  1.0000
  C   C1188     1.0  0.50722  0.69933  0.91410  1.0000
  C   C1189     1.0  0.50647  0.69801  0.89219  1.0000
  H   H2093     1.0  0.51486  0.64553  0.88822  1.0000
  H   H2094     1.0  0.51592  0.64768  0.92692  1.0000
  H   H2095     1.0  0.50511  0.71437  0.92115  1.0000
  H   H2096     1.0  0.50377  0.71216  0.88259  1.0000
  C   C1190     1.0  0.41915  0.55230  0.79337  1.0000
  C   C1191     1.0  0.43030  0.56728  0.78110  1.0000
  C   C1192     1.0  0.44492  0.57947  0.78993  1.0000
  C   C1193     1.0  0.44863  0.57683  0.81123  1.0000
  C   C1194     1.0  0.43757  0.56177  0.82350  1.0000
  C   C1195     1.0  0.42295  0.54957  0.81466  1.0000
  H   H2097     1.0  0.42751  0.56957  0.76462  1.0000
  H   H2098     1.0  0.45323  0.59097  0.78025  1.0000
  H   H2099     1.0  0.44027  0.55957  0.84000  1.0000
  H   H2100     1.0  0.41452  0.53816  0.82434  1.0000
  C   C1196     1.0  0.51308  0.73125  0.70905  1.0000
  C   C1197     1.0  0.49223  0.72552  0.71019  1.0000
  C   C1198     1.0  0.48569  0.70916  0.72436  1.0000
  C   C1199     1.0  0.49974  0.69829  0.73778  1.0000
  C   C1200     1.0  0.52046  0.70439  0.73698  1.0000
  C   C1201     1.0  0.52704  0.72065  0.72271  1.0000
  H   H2101     1.0  0.42944  0.60316  0.84958  1.0000
  H   H2102     1.0  0.46964  0.70466  0.72473  1.0000
  H   H2103     1.0  0.53153  0.69628  0.74707  1.0000
  H   H2104     1.0  0.57535  0.50261  0.83711  1.0000
  C   C1202     1.0  0.40830  0.61575  0.82723  1.0000
  C   C1203     1.0  0.45338  0.66199  0.86299  1.0000
  H   H2105     1.0  0.60167  0.65054  0.89809  1.0000
  H   H2106     1.0  0.42450  0.71249  0.54026  1.0000
  C   C1204     1.0  0.63356  0.52843  0.74881  1.0000
  C   C1205     1.0  0.58497  0.50344  0.79312  1.0000
  H   H2107     1.0  0.65610  0.72926  0.50749  1.0000
  C   C1206     1.0  0.59810  0.51297  0.75716  1.0000
  H   H2108     1.0  0.36341  0.69880  0.98138  1.0000
  H   H2109     1.0  0.49248  0.52891  0.77693  1.0000
  H   H2110     1.0  0.48041  0.59294  0.89295  1.0000
  H   H2111     1.0  0.48124  0.73336  0.69984  1.0000
  C   C1207     1.0  0.56711  0.53208  0.77195  1.0000
  H   H2112     1.0  0.62978  0.70668  0.50427  1.0000
  H   H2113     1.0  0.66420  0.50052  0.97471  1.0000
  H   H2114     1.0  0.57696  0.54371  0.77837  1.0000
  H   H2115     1.0  0.63605  0.66246  0.52496  1.0000
  C   C1208     1.0  0.43174  0.63756  0.84708  1.0000
  H   H2116     1.0  0.45390  0.70424  0.87236  1.0000
  H   H2117     1.0  0.64156  0.51260  0.74971  1.0000
  H   H2118     1.0  0.44226  0.71491  0.84891  1.0000
  H   H2119     1.0  0.42478  0.68296  0.86112  1.0000
  H   H2120     1.0  0.53529  0.52211  0.78194  1.0000
  H   H2121     1.0  0.41765  0.50307  0.75381  1.0000
  H   H2122     1.0  0.44461  0.73186  0.51227  1.0000
  C   C1209     1.0  0.45178  0.70148  0.85564  1.0000
  H   H2123     1.0  0.57327  0.66914  0.81530  1.0000
  H   H2124     1.0  0.49430  0.60970  0.90857  1.0000
  H   H2125     1.0  0.51778  0.74531  0.78484  1.0000
  H   H2126     1.0  0.49716  0.52631  0.80467  1.0000
  H   H2127     1.0  0.40942  0.65121  0.87764  1.0000
  C   C1210     1.0  0.42426  0.64474  0.88430  1.0000
  C   C1211     1.0  0.42817  0.65915  0.90238  1.0000
  C   C1212     1.0  0.41121  0.65728  0.92013  1.0000
  H   H2128     1.0  0.61778  0.52672  0.77946  1.0000
  H   H2129     1.0  0.42784  0.67578  0.89664  1.0000
  H   H2130     1.0  0.44350  0.65550  0.90916  1.0000
  H   H2131     1.0  0.39547  0.66155  0.91426  1.0000
  H   H2132     1.0  0.45758  0.62282  0.90646  1.0000
  H   H2133     1.0  0.39217  0.69566  0.60165  1.0000
  H   H2134     1.0  0.41731  0.73206  0.50683  1.0000
  C   C1213     1.0  0.48642  0.60879  0.89367  1.0000
  H   H2135     1.0  0.41415  0.66808  0.93257  1.0000
  H   H2136     1.0  0.43595  0.73500  0.54968  1.0000
  H   H2137     1.0  0.36108  0.67648  0.57432  1.0000
  H   H2138     1.0  0.42348  0.72097  0.58376  1.0000
  H   H2139     1.0  0.46872  0.62243  0.85891  1.0000
  C   C1214     1.0  0.60648  0.68004  0.52654  1.0000
  H   H2140     1.0  0.56396  0.53793  0.75567  1.0000
  H   H2141     1.0  0.59377  0.51693  0.74076  1.0000
  H   H2142     1.0  0.40026  0.60081  0.82760  1.0000
  C   C1215     1.0  0.48513  0.52997  0.79304  1.0000
  H   H2143     1.0  0.39649  0.62893  0.82496  1.0000
  C   C1216     1.0  0.42858  0.73773  0.51751  1.0000
  H   H2144     1.0  0.35112  0.72698  0.56133  1.0000
  H   H2145     1.0  0.52135  0.55732  0.79324  1.0000
  S   S276      1.0  0.51335  0.74374  0.96434  1.0000
  H   H2146     1.0  0.37911  0.72135  0.97827  1.0000
  H   H2147     1.0  0.49815  0.61139  0.88045  1.0000
  C   C1217     1.0  0.61345  0.52940  0.76299  1.0000
  N   N66       1.0  0.44143  0.64240  0.86717  1.0000
  H   H2148     1.0  0.43608  0.74673  0.61484  1.0000
  H   H2149     1.0  0.36720  0.66816  0.60064  1.0000
  H   H2150     1.0  0.46030  0.66687  0.87732  1.0000
  C   C1218     1.0  0.54632  0.53393  0.78555  1.0000
  H   H2151     1.0  0.45536  0.52006  0.78512  1.0000
  H   H2152     1.0  0.42001  0.61579  0.81368  1.0000
  H   H2153     1.0  0.42062  0.65057  0.84214  1.0000
  H   H2154     1.0  0.46015  0.51723  0.81254  1.0000
  H   H2155     1.0  0.37954  0.70562  0.55644  1.0000
  H   H2156     1.0  0.58851  0.51709  0.80198  1.0000
  H   H2157     1.0  0.41937  0.74033  0.63758  1.0000
  H   H2158     1.0  0.41145  0.64107  0.92714  1.0000
  H   H2159     1.0  0.43115  0.71970  0.62184  1.0000
  H   H2160     1.0  0.36879  0.74013  0.59261  1.0000
  N   N67       1.0  0.66247  0.69586  0.50497  1.0000
  H   H2161     1.0  0.38711  0.66565  0.57963  1.0000
  H   H2162     1.0  0.57578  0.65754  0.92827  1.0000
  H   H2163     1.0  0.54968  0.53227  0.80239  1.0000
  H   H2164     1.0  0.52981  0.55749  0.76586  1.0000
  H   H2165     1.0  0.36621  0.70652  0.59609  1.0000
  H   H2166     1.0  0.46723  0.65885  0.85207  1.0000
  C   C1219     1.0  0.42408  0.73595  0.62132  1.0000
  H   H2167     1.0  0.44407  0.63617  0.83408  1.0000
  H   H2168     1.0  0.60076  0.67374  0.51219  1.0000
  H   H2169     1.0  0.40459  0.69872  0.56546  1.0000
  C   C1220     1.0  0.63937  0.69166  0.50599  1.0000
  H   H2170     1.0  0.46736  0.70076  0.84698  1.0000
  H   H2171     1.0  0.39378  0.72619  0.61478  1.0000
  C   C1221     1.0  0.38986  0.70810  0.56940  1.0000
  C   C1222     1.0  0.42351  0.72982  0.54007  1.0000
  H   H2172     1.0  0.55528  0.68843  0.82722  1.0000
  N   N68       1.0  0.57709  0.62934  0.86982  1.0000
  C   C1223     1.0  0.57107  0.64066  0.88960  1.0000
  C   C1224     1.0  0.55958  0.61563  0.86562  1.0000
  C   C1225     1.0  0.59739  0.61659  0.87273  1.0000
  C   C1226     1.0  0.58039  0.64443  0.85121  1.0000
  C   C1227     1.0  0.56235  0.66119  0.84753  1.0000
  C   C1228     1.0  0.58588  0.65767  0.89501  1.0000
  C   C1229     1.0  0.60339  0.60012  0.85606  1.0000
  C   C1230     1.0  0.55449  0.59862  0.88302  1.0000
  C   C1231     1.0  0.54097  0.58207  0.87520  1.0000
  C   C1232     1.0  0.56872  0.67710  0.83008  1.0000
  C   C1233     1.0  0.62501  0.58952  0.85934  1.0000
  H   H2173     1.0  0.57037  0.62936  0.90336  1.0000
  H   H2174     1.0  0.55490  0.64792  0.88909  1.0000
  H   H2175     1.0  0.54476  0.62532  0.86392  1.0000
  H   H2176     1.0  0.56264  0.60821  0.85027  1.0000
  H   H2177     1.0  0.59729  0.60831  0.88842  1.0000
  H   H2178     1.0  0.61067  0.62709  0.87268  1.0000
  H   H2179     1.0  0.59512  0.65265  0.85222  1.0000
  H   H2180     1.0  0.58269  0.63581  0.83647  1.0000
  H   H2181     1.0  0.55784  0.67012  0.86165  1.0000
  H   H2182     1.0  0.54829  0.65368  0.84284  1.0000
  H   H2183     1.0  0.58755  0.66979  0.88215  1.0000
  H   H2184     1.0  0.60369  0.60739  0.83997  1.0000
  H   H2185     1.0  0.59204  0.58761  0.85708  1.0000
  H   H2186     1.0  0.56879  0.59032  0.88886  1.0000
  H   H2187     1.0  0.54569  0.60602  0.89649  1.0000
  H   H2188     1.0  0.53569  0.57155  0.88853  1.0000
  H   H2189     1.0  0.52695  0.58941  0.86783  1.0000
  H   H2190     1.0  0.55021  0.57245  0.86360  1.0000
  H   H2191     1.0  0.47545  0.64085  0.89375  1.0000
  H   H2192     1.0  0.58205  0.68591  0.83462  1.0000
  C   C1234     1.0  0.46729  0.51511  0.79650  1.0000
  H   H2193     1.0  0.62537  0.58148  0.87510  1.0000
  H   H2194     1.0  0.62865  0.57761  0.84740  1.0000
  H   H2195     1.0  0.63728  0.60116  0.85762  1.0000
  N   N69       1.0  0.39415  0.73097  0.57011  1.0000
  H   H2196     1.0  0.47890  0.54633  0.79500  1.0000
  C   C1235     1.0  0.46853  0.62558  0.89260  1.0000
  H   H2197     1.0  0.33613  0.50765  0.90578  1.0000
  H   H2198     1.0  0.34774  0.74485  0.97528  1.0000
  C   C1236     1.0  0.44077  0.68122  0.85350  1.0000
  H   H2199     1.0  0.43928  0.67933  0.83649  1.0000
  H   H2200     1.0  0.63002  0.53250  0.73228  1.0000
  C   C1237     1.0  0.41142  0.73419  0.58461  1.0000
  C   C1238     1.0  0.45683  0.62440  0.87228  1.0000
  H   H2201     1.0  0.42056  0.62904  0.89137  1.0000
  H   H2202     1.0  0.36445  0.71422  0.95683  1.0000
  C   C1239     1.0  0.41909  0.61750  0.84770  1.0000
  H   H2203     1.0  0.44894  0.60940  0.87418  1.0000
  H   H2204     1.0  0.60646  0.54557  0.76093  1.0000
  H   H2205     1.0  0.58818  0.68086  0.91833  1.0000
  H   H2206     1.0  0.63527  0.68505  0.54044  1.0000
  C   C1240     1.0  0.40495  0.73755  0.60804  1.0000
  H   H2207     1.0  0.54580  0.56818  0.78458  1.0000
  C   C1241     1.0  0.38027  0.69753  0.58971  1.0000
  C   C1242     1.0  0.34568  0.72891  0.98222  1.0000
  C   C1243     1.0  0.53520  0.55551  0.78204  1.0000
  H   H2208     1.0  0.60006  0.69642  0.52814  1.0000
  H   H2209     1.0  0.64450  0.53981  0.75384  1.0000
  H   H2210     1.0  0.60054  0.67048  0.54035  1.0000
  C   C1244     1.0  0.37469  0.74418  0.57638  1.0000
  H   H2211     1.0  0.35683  0.69886  0.50794  1.0000
  N   N70       1.0  0.57859  0.51079  0.77151  1.0000
  H   H2212     1.0  0.54320  0.72483  0.72204  1.0000
  C   C1245     1.0  0.63043  0.67918  0.52562  1.0000
  C   C1246     1.0  0.66083  0.71715  0.53862  1.0000
  H   H2213     1.0  0.39028  0.73426  0.53666  1.0000
  H   H2214     1.0  0.55946  0.50237  0.74682  1.0000
  C   C1247     1.0  0.40145  0.73840  0.54824  1.0000
  H   H2215     1.0  0.64360  0.71757  0.54196  1.0000
  H   H2216     1.0  0.43123  0.74599  0.99396  1.0000
  C   C1248     1.0  0.35588  0.74326  0.56234  1.0000
  Fe  Fe140     1.0  0.53556  0.74522  0.99039  1.0000
  C   C1249     1.0  0.36424  0.71487  0.97415  1.0000
  H   H2217     1.0  0.38166  0.71064  0.50836  1.0000
  H   H2218     1.0  0.66459  0.73727  0.56426  1.0000
  C   C1250     1.0  0.37175  0.70172  0.49874  1.0000
  Fe  Fe141     1.0  0.63651  0.80169  0.46845  1.0000
  H   H2219     1.0  0.58449  0.75997  0.05440  1.0000
  S   S277      1.0  0.61636  0.81343  0.44122  1.0000
  H   H2220     1.0  0.33914  0.87105  0.05428  1.0000
  Fe  Fe142     1.0  0.50436  0.76678  0.32391  1.0000
  S   S278      1.0  0.48553  0.79766  0.32176  1.0000
  Fe  Fe143     1.0  0.53053  0.78349  0.35852  1.0000
  S   S279      1.0  0.51393  0.81544  0.35719  1.0000
  S   S280      1.0  0.55296  0.77124  0.38371  1.0000
  Fe  Fe144     1.0  0.48451  0.79774  0.35689  1.0000
  S   S281      1.0  0.45672  0.81166  0.37673  1.0000
  Fe  Fe145     1.0  0.51611  0.81310  0.32206  1.0000
  S   S282      1.0  0.52109  0.83731  0.29472  1.0000
  S   S283      1.0  0.53523  0.78217  0.32314  1.0000
  C   C1251     1.0  0.33861  0.89515  0.07697  1.0000
  H   H2221     1.0  0.60883  0.91312  0.17719  1.0000
  C   C1252     1.0  0.42356  0.99400  0.20549  1.0000
  Fe  Fe146     1.0  0.37420  0.78236  0.47088  1.0000
  S   S284      1.0  0.39220  0.76790  0.44264  1.0000
  H   H2222     1.0  0.54302  0.75685  0.25739  1.0000
  Fe  Fe147     1.0  0.51137  0.96216  0.26770  1.0000
  S   S285      1.0  0.51046  0.95545  0.23368  1.0000
  S   S286      1.0  0.51657  0.93757  0.29447  1.0000
  Fe  Fe148     1.0  0.52810  0.98490  0.22758  1.0000
  H   H2223     1.0  0.60723  0.88088  0.01429  1.0000
  Fe  Fe149     1.0  0.48054  0.97619  0.23407  1.0000
  S   S287      1.0  0.45193  0.96247  0.22038  1.0000
  C   C1253     1.0  0.47633  0.79226  0.44765  1.0000
  S   S288      1.0  0.48076  0.98158  0.26859  1.0000
  H   H2224     1.0  0.62323  0.97447  0.22942  1.0000
  H   H2225     1.0  0.42436  0.76436  0.10183  1.0000
  S   S289      1.0  0.50967  0.75597  0.01333  1.0000
  H   H2226     1.0  0.33913  0.77747  0.43110  1.0000
  C   C1254     1.0  0.58138  0.78418  0.01245  1.0000
  C   C1255     1.0  0.45667  0.79024  0.27819  1.0000
  H   H2227     1.0  0.54716  0.77689  0.07506  1.0000
  S   S290      1.0  0.36179  0.78329  0.00071  1.0000
  H   H2228     1.0  0.58582  0.94204  0.19179  1.0000
  H   H2229     1.0  0.57421  0.77707  0.26015  1.0000
  H   H2230     1.0  0.51336  0.84511  0.21024  1.0000
  H   H2231     1.0  0.49852  0.86063  0.22925  1.0000
  C   C1256     1.0  0.62011  0.87149  0.00620  1.0000
  H   H2232     1.0  0.39968  0.78222  0.03744  1.0000
  H   H2233     1.0  0.47430  0.77643  0.45528  1.0000
  C   C1257     1.0  0.46921  0.80748  0.46521  1.0000
  H   H2234     1.0  0.44130  0.81650  0.48448  1.0000
  C   C1258     1.0  0.64895  0.93689  0.15840  1.0000
  H   H2235     1.0  0.46521  0.75801  0.07355  1.0000
  C   C1259     1.0  0.47355  0.81069  0.02600  1.0000
  H   H2236     1.0  0.44468  0.78182  0.02612  1.0000
  C   C1260     1.0  0.45236  0.78068  0.04122  1.0000
  C   C1261     1.0  0.35175  0.97580  0.23563  1.0000
  C   C1262     1.0  0.42923  0.97258  0.20739  1.0000
  C   C1263     1.0  0.41604  0.95842  0.19931  1.0000
  C   C1264     1.0  0.39762  0.96548  0.18936  1.0000
  C   C1265     1.0  0.44573  0.80654  0.47100  1.0000
  H   H2237     1.0  0.47580  0.83391  0.42739  1.0000
  H   H2238     1.0  0.54374  0.79391  0.24073  1.0000
  H   H2239     1.0  0.39250  0.74880  0.00103  1.0000
  H   H2240     1.0  0.41671  0.80356  0.03281  1.0000
  C   C1266     1.0  0.44006  0.79897  0.39596  1.0000
  C   C1267     1.0  0.42660  0.81129  0.40918  1.0000
  C   C1268     1.0  0.41233  0.80201  0.42399  1.0000
  C   C1269     1.0  0.41123  0.78025  0.42563  1.0000
  C   C1270     1.0  0.42497  0.76790  0.41268  1.0000
  C   C1271     1.0  0.43939  0.77718  0.39800  1.0000
  H   H2241     1.0  0.53038  0.75774  0.08749  1.0000
  H   H2242     1.0  0.40181  0.81172  0.43377  1.0000
  C   C1272     1.0  0.52092  0.86516  0.29503  1.0000
  C   C1273     1.0  0.52165  0.87699  0.27587  1.0000
  C   C1274     1.0  0.52083  0.89910  0.27535  1.0000
  C   C1275     1.0  0.51945  0.90971  0.29402  1.0000
  C   C1276     1.0  0.51921  0.89786  0.31316  1.0000
  C   C1277     1.0  0.51979  0.87577  0.31369  1.0000
  H   H2243     1.0  0.52272  0.86901  0.26132  1.0000
  H   H2244     1.0  0.52123  0.90796  0.26052  1.0000
  H   H2245     1.0  0.51823  0.90584  0.32772  1.0000
  H   H2246     1.0  0.51933  0.86695  0.32855  1.0000
  C   C1278     1.0  0.59855  0.80133  0.42567  1.0000
  C   C1279     1.0  0.58734  0.81377  0.41088  1.0000
  C   C1280     1.0  0.57324  0.80497  0.39805  1.0000
  C   C1281     1.0  0.57021  0.78348  0.39973  1.0000
  C   C1282     1.0  0.58123  0.77107  0.41468  1.0000
  C   C1283     1.0  0.59524  0.77990  0.42760  1.0000
  H   H2247     1.0  0.58969  0.83037  0.40925  1.0000
  H   H2248     1.0  0.56493  0.81477  0.38670  1.0000
  C   C1284     1.0  0.36592  0.90055  0.01049  1.0000
  H   H2249     1.0  0.60363  0.77009  0.43888  1.0000
  H   H2250     1.0  0.50195  0.83785  0.43535  1.0000
  S   S291      1.0  0.53095  0.99056  0.26175  1.0000
  H   H2251     1.0  0.47242  0.82391  0.46071  1.0000
  N   N71       1.0  0.45023  0.90524  0.29167  1.0000
  C   C1285     1.0  0.44580  0.88569  0.30505  1.0000
  C   C1286     1.0  0.43003  0.91635  0.28494  1.0000
  C   C1287     1.0  0.46278  0.89847  0.27215  1.0000
  C   C1288     1.0  0.46308  0.91990  0.30260  1.0000
  C   C1289     1.0  0.45380  0.92779  0.32380  1.0000
  C   C1290     1.0  0.46519  0.87257  0.31291  1.0000
  C   C1291     1.0  0.46763  0.91606  0.25523  1.0000
  C   C1292     1.0  0.41045  0.91506  0.30041  1.0000
  C   C1293     1.0  0.39266  0.93028  0.29349  1.0000
  C   C1294     1.0  0.46973  0.94010  0.33427  1.0000
  C   C1295     1.0  0.45865  0.85393  0.32716  1.0000
  C   C1296     1.0  0.47764  0.90693  0.23516  1.0000
  H   H2252     1.0  0.43660  0.87516  0.29624  1.0000
  H   H2253     1.0  0.43582  0.88939  0.31928  1.0000
  H   H2254     1.0  0.43252  0.93321  0.28092  1.0000
  H   H2255     1.0  0.42513  0.90993  0.27020  1.0000
  H   H2256     1.0  0.45461  0.88617  0.26460  1.0000
  H   H2257     1.0  0.47828  0.89120  0.27611  1.0000
  H   H2258     1.0  0.47884  0.91254  0.30508  1.0000
  H   H2259     1.0  0.46602  0.93419  0.29252  1.0000
  H   H2260     1.0  0.44939  0.91471  0.33484  1.0000
  H   H2261     1.0  0.43992  0.93858  0.32126  1.0000
  H   H2262     1.0  0.47505  0.86609  0.29968  1.0000
  H   H2263     1.0  0.47485  0.88213  0.32213  1.0000
  H   H2264     1.0  0.47883  0.92681  0.26091  1.0000
  H   H2265     1.0  0.45329  0.92541  0.25095  1.0000
  H   H2266     1.0  0.40467  0.89900  0.30088  1.0000
  H   H2267     1.0  0.41384  0.91865  0.31654  1.0000
  H   H2268     1.0  0.38854  0.92723  0.27734  1.0000
  H   H2269     1.0  0.37856  0.92834  0.30426  1.0000
  H   H2270     1.0  0.39734  0.94667  0.29400  1.0000
  H   H2271     1.0  0.46269  0.94607  0.34925  1.0000
  H   H2272     1.0  0.48388  0.92992  0.33769  1.0000
  H   H2273     1.0  0.47461  0.95364  0.32394  1.0000
  H   H2274     1.0  0.44951  0.84324  0.31859  1.0000
  H   H2275     1.0  0.47287  0.84499  0.33258  1.0000
  H   H2276     1.0  0.44916  0.85926  0.34121  1.0000
  H   H2277     1.0  0.46691  0.89637  0.22843  1.0000
  H   H2278     1.0  0.48086  0.91984  0.22339  1.0000
  H   H2279     1.0  0.49269  0.89821  0.23831  1.0000
  C   C1297     1.0  0.34224  0.90459  0.00951  1.0000
  H   H2280     1.0  0.61993  0.91065  0.12508  1.0000
  N   N72       1.0  0.43792  0.77154  0.05834  1.0000
  H   H2281     1.0  0.63963  0.88104  0.10678  1.0000
  H   H2282     1.0  0.50821  0.81486  0.46050  1.0000
  H   H2283     1.0  0.44958  0.76750  0.38789  1.0000
  H   H2284     1.0  0.35516  0.89764  0.07443  1.0000
  H   H2285     1.0  0.42428  0.75106  0.41382  1.0000
  H   H2286     1.0  0.42018  0.94182  0.20066  1.0000
  C   C1298     1.0  0.39198  0.98689  0.18746  1.0000
  S   S292      1.0  0.63579  0.81084  0.02462  1.0000
  H   H2287     1.0  0.58423  0.97605  0.23176  1.0000
  C   C1299     1.0  0.54121  0.77102  0.26672  1.0000
  C   C1300     1.0  0.46056  0.80240  0.04512  1.0000
  C   C1301     1.0  0.41955  0.78659  0.06363  1.0000
  N   N73       1.0  0.51067  0.78810  0.24578  1.0000
  H   H2288     1.0  0.49071  0.82937  0.25125  1.0000
  C   C1302     1.0  0.63666  0.98518  0.10753  1.0000
  C   C1303     1.0  0.51314  0.79957  0.45388  1.0000
  H   H2289     1.0  0.51851  0.83176  0.24686  1.0000
  H   H2290     1.0  0.59248  0.91179  0.15568  1.0000
  C   C1304     1.0  0.43867  0.75523  0.09620  1.0000
  H   H2291     1.0  0.34437  0.93616  0.02015  1.0000
  C   C1305     1.0  0.63568  0.94848  0.12449  1.0000
  H   H2292     1.0  0.33710  0.91691  0.03958  1.0000
  H   H2293     1.0  0.56227  0.78937  0.28312  1.0000
  C   C1306     1.0  0.54952  0.80789  0.46363  1.0000
  H   H2294     1.0  0.49208  0.80361  0.22174  1.0000
  H   H2295     1.0  0.39452  0.97556  0.23868  1.0000
  C   C1307     1.0  0.64871  0.92266  0.17864  1.0000
  H   H2296     1.0  0.33335  0.88878  0.44946  1.0000
  C   C1308     1.0  0.47144  0.78832  0.25866  1.0000
  H   H2297     1.0  0.33859  0.87589  0.42514  1.0000
  H   H2298     1.0  0.38782  0.95434  0.18316  1.0000
  S   S293      1.0  0.34255  0.98208  0.12283  1.0000
  C   C1309     1.0  0.59262  0.99415  0.18140  1.0000
  C   C1310     1.0  0.61752  0.79533  0.01314  1.0000
  H   H2299     1.0  0.52334  0.77511  0.20347  1.0000
  H   H2300     1.0  0.43650  0.81242  0.45760  1.0000
  C   C1311     1.0  0.50403  0.82813  0.23938  1.0000
  S   S294      1.0  0.63945  0.76955  0.48415  1.0000
  H   H2301     1.0  0.46650  0.77006  0.03838  1.0000
  H   H2302     1.0  0.39501  0.82424  0.05887  1.0000
  C   C1312     1.0  0.61477  0.99310  0.17994  1.0000
  C   C1313     1.0  0.58224  0.74965  0.06880  1.0000
  C   C1314     1.0  0.58138  0.98814  0.20011  1.0000
  H   H2303     1.0  0.45669  0.76683  0.12066  1.0000
  H   H2304     1.0  0.53832  0.81250  0.43279  1.0000
  H   H2305     1.0  0.51430  0.80762  0.41013  1.0000
  C   C1315     1.0  0.49692  0.84585  0.40321  1.0000
  S   S295      1.0  0.37700  0.81280  0.48633  1.0000
  C   C1316     1.0  0.49475  0.78851  0.26414  1.0000
  C   C1317     1.0  0.42959  0.75184  0.05081  1.0000
  H   H2306     1.0  0.54223  0.76510  0.22162  1.0000
  H   H2307     1.0  0.46009  0.77718  0.28978  1.0000
  C   C1318     1.0  0.38564  0.98228  0.25244  1.0000
  C   C1319     1.0  0.50588  0.77231  0.43054  1.0000
  N   N74       1.0  0.49839  0.79371  0.43783  1.0000
  C   C1320     1.0  0.63256  0.91198  0.13613  1.0000
  S   S296      1.0  0.33900  0.78291  0.47614  1.0000
  H   H2308     1.0  0.60122  0.99492  0.28153  1.0000
  H   H2309     1.0  0.42465  0.80011  0.07194  1.0000
  H   H2310     1.0  0.40813  0.77892  0.07488  1.0000
  H   H2311     1.0  0.56617  0.80870  0.45781  1.0000
  S   S297      1.0  0.33686  0.84482  0.00597  1.0000
  S   S298      1.0  0.55344  0.99014  0.20104  1.0000
  H   H2312     1.0  0.50507  0.76476  0.05978  1.0000
  H   H2313     1.0  0.53089  0.76753  0.28082  1.0000
  H   H2314     1.0  0.59187  0.80557  0.03424  1.0000
  C   C1321     1.0  0.50945  0.76779  0.23505  1.0000
  H   H2315     1.0  0.47570  0.75834  0.42570  1.0000
  H   H2316     1.0  0.47990  0.82585  0.02938  1.0000
  H   H2317     1.0  0.51380  0.84465  0.39795  1.0000
  H   H2318     1.0  0.33262  0.94686  0.05701  1.0000
  H   H2319     1.0  0.44755  0.81419  0.04830  1.0000
  C   C1322     1.0  0.59652  0.79584  0.02123  1.0000
  H   H2320     1.0  0.42697  0.82815  0.40774  1.0000
  H   H2321     1.0  0.51927  0.80663  0.21781  1.0000
  H   H2322     1.0  0.54880  0.79653  0.47729  1.0000
  H   H2323     1.0  0.44020  0.78946  0.27387  1.0000
  H   H2324     1.0  0.52099  0.77316  0.42100  1.0000
  H   H2325     1.0  0.63533  0.92772  0.18939  1.0000
  C   C1323     1.0  0.59873  0.92261  0.16655  1.0000
  C   C1324     1.0  0.51707  0.77608  0.06236  1.0000
  H   H2326     1.0  0.50914  0.76146  0.44425  1.0000
  H   H2327     1.0  0.62731  0.98093  0.09446  1.0000
  H   H2328     1.0  0.49760  0.77471  0.27491  1.0000
  H   H2329     1.0  0.56526  0.78516  0.01858  1.0000
  C   C1325     1.0  0.59260  0.98095  0.21735  1.0000
  H   H2330     1.0  0.47762  0.80295  0.47959  1.0000
  C   C1326     1.0  0.38885  0.81045  0.05192  1.0000
  H   H2331     1.0  0.62903  0.90047  0.14916  1.0000
  H   H2332     1.0  0.45491  0.78190  0.08373  1.0000
  Fe  Fe150     1.0  0.34314  0.98187  0.15807  1.0000
  H   H2333     1.0  0.35395  0.96064  0.24469  1.0000
  H   H2334     1.0  0.62614  0.94415  0.11151  1.0000
  H   H2335     1.0  0.37010  0.89664  0.02688  1.0000
  H   H2336     1.0  0.54341  0.78555  0.44136  1.0000
  H   H2337     1.0  0.55153  0.75661  0.04276  1.0000
  H   H2338     1.0  0.37117  0.88711  0.00078  1.0000
  H   H2339     1.0  0.47077  0.80131  0.05857  1.0000
  C   C1327     1.0  0.53652  0.80097  0.44619  1.0000
  H   H2340     1.0  0.52187  0.78413  0.04721  1.0000
  H   H2341     1.0  0.46468  0.79401  0.43530  1.0000
  H   H2342     1.0  0.56865  0.76159  0.28392  1.0000
  H   H2343     1.0  0.46836  0.77338  0.25165  1.0000
  H   H2344     1.0  0.61159  0.95341  0.16388  1.0000
  C   C1328     1.0  0.58019  0.93205  0.17981  1.0000
  H   H2345     1.0  0.63372  0.88143  0.00317  1.0000
  C   C1329     1.0  0.49281  0.83195  0.42295  1.0000
  H   H2346     1.0  0.37424  0.91449  0.00430  1.0000
  H   H2347     1.0  0.48742  0.84126  0.39040  1.0000
  C   C1330     1.0  0.53211  0.79019  0.25382  1.0000
  H   H2348     1.0  0.48732  0.77104  0.40269  1.0000
  H   H2349     1.0  0.37790  0.80268  0.06355  1.0000
  H   H2350     1.0  0.63963  0.97775  0.14028  1.0000
  H   H2351     1.0  0.56935  0.94168  0.16984  1.0000
  C   C1331     1.0  0.61052  0.93994  0.15369  1.0000
  C   C1332     1.0  0.49873  0.80871  0.41890  1.0000
  N   N75       1.0  0.63193  0.93402  0.14361  1.0000
  H   H2352     1.0  0.64810  0.95319  0.16370  1.0000
  H   H2353     1.0  0.54384  0.82366  0.46869  1.0000
  S   S299      1.0  0.36854  0.99682  0.17567  1.0000
  H   H2354     1.0  0.64773  0.90597  0.17531  1.0000
  H   H2355     1.0  0.48688  0.79948  0.02188  1.0000
  H   H2356     1.0  0.48760  0.80419  0.40751  1.0000
  H   H2357     1.0  0.46711  0.80146  0.24758  1.0000
  C   C1333     1.0  0.65356  0.90392  0.12512  1.0000
  H   H2358     1.0  0.53186  0.80371  0.26415  1.0000
  H   H2359     1.0  0.51250  0.78805  0.46750  1.0000
  H   H2360     1.0  0.59950  0.94547  0.14149  1.0000
  H   H2361     1.0  0.57136  0.91936  0.18804  1.0000
  H   H2362     1.0  0.35969  0.97327  0.21987  1.0000
  S   S300      1.0  0.65396  0.98522  0.19678  1.0000
  H   H2363     1.0  0.39500  0.99450  0.25849  1.0000
  H   H2364     1.0  0.48534  0.84256  0.21459  1.0000
  S   S301      1.0  0.33884  0.92621  0.10529  1.0000
  H   H2365     1.0  0.38355  0.96975  0.26485  1.0000
  C   C1334     1.0  0.45020  0.76704  0.07758  1.0000
  H   H2366     1.0  0.46365  0.81327  0.01233  1.0000
  C   C1335     1.0  0.45274  0.75165  0.11465  1.0000
  H   H2367     1.0  0.49665  0.80215  0.27386  1.0000
  Fe  Fe151     1.0  0.34213  0.81196  0.49429  1.0000
  C   C1336     1.0  0.50635  0.80605  0.23022  1.0000
  H   H2368     1.0  0.49249  0.86242  0.40654  1.0000
  H   H2369     1.0  0.37990  0.81600  0.03816  1.0000
  C   C1337     1.0  0.63080  0.97223  0.12751  1.0000
  H   H2370     1.0  0.45827  0.80543  0.28542  1.0000
  H   H2371     1.0  0.65779  0.91377  0.11094  1.0000
  S   S302      1.0  0.50082  0.76586  0.35935  1.0000
  C   C1338     1.0  0.50006  0.84507  0.22223  1.0000
  H   H2372     1.0  0.66471  0.93493  0.15014  1.0000
  C   C1339     1.0  0.40679  0.79515  0.04487  1.0000
  H   H2373     1.0  0.57778  0.76060  0.08146  1.0000
  H   H2374     1.0  0.65360  0.98265  0.10293  1.0000
  H   H2375     1.0  0.49399  0.76707  0.22817  1.0000
  H   H2376     1.0  0.50992  0.78800  0.07303  1.0000
  C   C1340     1.0  0.52604  0.76374  0.21681  1.0000
  H   H2377     1.0  0.61389  0.97578  0.13140  1.0000
  H   H2378     1.0  0.34094  0.93717  0.22178  1.0000
  C   C1341     1.0  0.61475  0.97993  0.21591  1.0000
  C   C1342     1.0  0.56291  0.77509  0.27387  1.0000
  C   C1343     1.0  0.62602  0.98591  0.19719  1.0000
  H   H2379     1.0  0.57902  0.75444  0.41619  1.0000
  H   H2380     1.0  0.65236  0.94680  0.11843  1.0000
  H   H2381     1.0  0.51017  0.75425  0.24666  1.0000
  C   C1344     1.0  0.53603  0.76483  0.07219  1.0000
  C   C1345     1.0  0.36437  0.99189  0.24624  1.0000
  H   H2382     1.0  0.61620  0.76840  0.08361  1.0000
  H   H2383     1.0  0.34716  0.86791  0.49496  1.0000
  C   C1346     1.0  0.62052  0.75576  0.07261  1.0000
  C   C1347     1.0  0.65208  0.88163  0.11807  1.0000
  H   H2384     1.0  0.44159  0.79026  0.47555  1.0000
  H   H2385     1.0  0.42234  0.75514  0.03559  1.0000
  H   H2386     1.0  0.64874  0.87073  0.13174  1.0000
  C   C1348     1.0  0.49080  0.76136  0.41697  1.0000
  H   H2387     1.0  0.62234  0.76279  0.05641  1.0000
  H   H2388     1.0  0.62458  0.85788  0.01675  1.0000
  H   H2389     1.0  0.57948  0.98930  0.26656  1.0000
  Fe  Fe152     1.0  0.33670  0.81054  0.99919  1.0000
  H   H2390     1.0  0.33487  0.88995  0.01525  1.0000
  C   C1349     1.0  0.33401  0.92286  0.02340  1.0000
  H   H2391     1.0  0.35573  0.99774  0.26052  1.0000
  Fe  Fe153     1.0  0.63618  0.78634  0.51447  1.0000
  S   S303      1.0  0.61792  0.77217  0.54306  1.0000
  Fe  Fe154     1.0  0.51002  0.77668  0.66725  1.0000
  S   S304      1.0  0.47914  0.79482  0.67155  1.0000
  H   H2392     1.0  0.37643  0.97341  0.91708  1.0000
  Fe  Fe155     1.0  0.52329  0.80426  0.62847  1.0000
  S   S305      1.0  0.49302  0.82415  0.63079  1.0000
  S   S306      1.0  0.54545  0.81645  0.60161  1.0000
  Fe  Fe156     1.0  0.49678  0.82415  0.66550  1.0000
  S   S307      1.0  0.48373  0.85227  0.68451  1.0000
  Fe  Fe157     1.0  0.47713  0.79399  0.63650  1.0000
  S   S308      1.0  0.44410  0.79028  0.62545  1.0000
  S   S309      1.0  0.52812  0.80629  0.66301  1.0000
  S   S310      1.0  0.50707  0.77372  0.63233  1.0000
  Fe  Fe158     1.0  0.38053  0.79302  0.51634  1.0000
  S   S311      1.0  0.41104  0.79661  0.53279  1.0000
  S   S312      1.0  0.64415  0.96997  0.82648  1.0000
  H   H2393     1.0  0.34064  0.77283  0.57215  1.0000
  C   C1350     1.0  0.40236  0.99337  0.77996  1.0000
  C   C1351     1.0  0.50422  0.82761  0.73978  1.0000
  C   C1352     1.0  0.42301  0.97661  0.81451  1.0000
  Fe  Fe159     1.0  0.51530  0.96189  0.73810  1.0000
  S   S313      1.0  0.51771  0.96564  0.77279  1.0000
  S   S314      1.0  0.52419  0.92959  0.72451  1.0000
  H   H2394     1.0  0.64081  0.89107  0.56642  1.0000
  H   H2395     1.0  0.58157  0.86356  0.60767  1.0000
  C   C1353     1.0  0.61473  0.85857  0.57756  1.0000
  H   H2396     1.0  0.61584  0.90481  0.92610  1.0000
  S   S315      1.0  0.48517  0.98170  0.73608  1.0000
  C   C1354     1.0  0.43184  0.97721  0.71998  1.0000
  H   H2397     1.0  0.42801  0.75511  0.51640  1.0000
  H   H2398     1.0  0.44771  0.76223  0.71936  1.0000
  C   C1355     1.0  0.45123  0.77861  0.72217  1.0000
  C   C1356     1.0  0.42240  0.79830  0.98481  1.0000
  S   S316      1.0  0.46168  0.77803  0.98294  1.0000
  H   H2399     1.0  0.44936  0.78814  0.70739  1.0000
  C   C1357     1.0  0.62186  0.98102  0.81346  1.0000
  C   C1358     1.0  0.60760  0.96749  0.80615  1.0000
  C   C1359     1.0  0.59007  0.97530  0.79517  1.0000
  C   C1360     1.0  0.65180  0.80991  0.56704  1.0000
  H   H2400     1.0  0.59091  0.87474  0.51836  1.0000
  C   C1361     1.0  0.63004  0.85000  0.97436  1.0000
  H   H2401     1.0  0.61009  0.95078  0.80907  1.0000
  H   H2402     1.0  0.57928  0.96464  0.78976  1.0000
  C   C1362     1.0  0.43494  0.98398  0.79674  1.0000
  C   C1363     1.0  0.60808  0.77112  0.98743  1.0000
  H   H2403     1.0  0.59610  0.87524  0.62687  1.0000
  H   H2404     1.0  0.47386  0.76976  0.74436  1.0000
  H   H2405     1.0  0.62164  0.94403  0.76855  1.0000
  C   C1364     1.0  0.63612  0.82593  0.57795  1.0000
  H   H2406     1.0  0.51660  0.77865  0.72239  1.0000
  H   H2407     1.0  0.48270  0.87064  0.76706  1.0000
  C   C1365     1.0  0.51724  0.79579  0.72296  1.0000
  C   C1366     1.0  0.37250  0.97914  0.90106  1.0000
  C   C1367     1.0  0.41967  0.79467  0.55879  1.0000
  C   C1368     1.0  0.44136  0.79328  0.56162  1.0000
  C   C1369     1.0  0.44912  0.79206  0.58184  1.0000
  C   C1370     1.0  0.43525  0.79212  0.59956  1.0000
  C   C1371     1.0  0.41354  0.79349  0.59676  1.0000
  C   C1372     1.0  0.40578  0.79487  0.57651  1.0000
  H   H2408     1.0  0.51982  0.83047  0.74554  1.0000
  H   H2409     1.0  0.46585  0.79101  0.58370  1.0000
  H   H2410     1.0  0.40266  0.79371  0.61035  1.0000
  H   H2411     1.0  0.38908  0.79645  0.57460  1.0000
  C   C1373     1.0  0.49557  0.87413  0.69434  1.0000
  C   C1374     1.0  0.51707  0.87416  0.69715  1.0000
  C   C1375     1.0  0.52545  0.89128  0.70627  1.0000
  C   C1376     1.0  0.51260  0.90878  0.71246  1.0000
  C   C1377     1.0  0.49116  0.90893  0.70918  1.0000
  C   C1378     1.0  0.48270  0.89165  0.70041  1.0000
  H   H2412     1.0  0.52723  0.86087  0.69261  1.0000
  H   H2413     1.0  0.54208  0.89097  0.70859  1.0000
  H   H2414     1.0  0.48115  0.92239  0.71336  1.0000
  H   H2415     1.0  0.46609  0.89193  0.69815  1.0000
  C   C1379     1.0  0.59722  0.78439  0.55877  1.0000
  C   C1380     1.0  0.59005  0.77419  0.57760  1.0000
  C   C1381     1.0  0.57390  0.78348  0.59069  1.0000
  C   C1382     1.0  0.56490  0.80326  0.58519  1.0000
  C   C1383     1.0  0.57206  0.81343  0.56632  1.0000
  C   C1384     1.0  0.58786  0.80393  0.55305  1.0000
  C   C1385     1.0  0.64423  0.83138  0.94364  1.0000
  H   H2416     1.0  0.56863  0.77547  0.60515  1.0000
  H   H2417     1.0  0.56506  0.82861  0.56179  1.0000
  H   H2418     1.0  0.59255  0.81154  0.53823  1.0000
  C   C1386     1.0  0.62026  0.86356  0.53138  1.0000
  Fe  Fe160     1.0  0.33693  0.98215  0.82328  1.0000
  H   H2419     1.0  0.57214  0.79015  0.71621  1.0000
  H   H2420     1.0  0.62184  0.87901  0.53780  1.0000
  H   H2421     1.0  0.56827  0.81471  0.94660  1.0000
  H   H2422     1.0  0.63158  0.98125  0.76408  1.0000
  H   H2423     1.0  0.63526  0.93871  0.74359  1.0000
  N   N76       1.0  0.43972  0.92651  0.75620  1.0000
  C   C1387     1.0  0.46025  0.91761  0.76424  1.0000
  C   C1388     1.0  0.43183  0.91211  0.74064  1.0000
  C   C1389     1.0  0.44380  0.94723  0.74481  1.0000
  C   C1390     1.0  0.42342  0.93069  0.77374  1.0000
  C   C1391     1.0  0.41802  0.91189  0.78874  1.0000
  C   C1392     1.0  0.47075  0.93088  0.77979  1.0000
  C   C1393     1.0  0.42504  0.95814  0.73342  1.0000
  C   C1394     1.0  0.43716  0.88824  0.74397  1.0000
  C   C1395     1.0  0.42580  0.87561  0.72894  1.0000
  C   C1396     1.0  0.40319  0.91895  0.80701  1.0000
  C   C1397     1.0  0.49045  0.91929  0.78782  1.0000
  H   H2424     1.0  0.63940  0.78135  0.99043  1.0000
  H   H2425     1.0  0.47187  0.91494  0.75082  1.0000
  H   H2426     1.0  0.45844  0.90206  0.77224  1.0000
  H   H2427     1.0  0.41451  0.91452  0.73982  1.0000
  H   H2428     1.0  0.43853  0.91604  0.72452  1.0000
  H   H2429     1.0  0.45726  0.94525  0.73306  1.0000
  H   H2430     1.0  0.44846  0.95878  0.75586  1.0000
  H   H2431     1.0  0.42807  0.94352  0.78329  1.0000
  H   H2432     1.0  0.40833  0.93666  0.76734  1.0000
  H   H2433     1.0  0.43217  0.90422  0.79554  1.0000
  H   H2434     1.0  0.40986  0.90034  0.78031  1.0000
  H   H2435     1.0  0.47571  0.94574  0.77200  1.0000
  H   H2436     1.0  0.46003  0.93439  0.79359  1.0000
  H   H2437     1.0  0.41257  0.96369  0.74497  1.0000
  H   H2438     1.0  0.41809  0.94753  0.72291  1.0000
  H   H2439     1.0  0.45425  0.88482  0.74076  1.0000
  H   H2440     1.0  0.43292  0.88245  0.76015  1.0000
  H   H2441     1.0  0.43048  0.85873  0.73123  1.0000
  H   H2442     1.0  0.40855  0.87770  0.73197  1.0000
  H   H2443     1.0  0.43001  0.88053  0.71241  1.0000
  H   H2444     1.0  0.41094  0.92989  0.81663  1.0000
  H   H2445     1.0  0.38862  0.92690  0.80120  1.0000
  H   H2446     1.0  0.39882  0.90517  0.81719  1.0000
  H   H2447     1.0  0.49760  0.92907  0.79903  1.0000
  H   H2448     1.0  0.48656  0.90424  0.79608  1.0000
  H   H2449     1.0  0.50214  0.91621  0.77460  1.0000
  C   C1398     1.0  0.43376  0.77887  0.98673  1.0000
  H   H2450     1.0  0.63833  0.88623  0.95231  1.0000
  H   H2451     1.0  0.64127  0.82699  0.59413  1.0000
  N   N77       1.0  0.44196  0.86533  0.62296  1.0000
  C   C1399     1.0  0.45032  0.85943  0.60131  1.0000
  C   C1400     1.0  0.45925  0.87311  0.63530  1.0000
  C   C1401     1.0  0.43430  0.84569  0.63424  1.0000
  C   C1402     1.0  0.42374  0.88127  0.62218  1.0000
  C   C1403     1.0  0.43421  0.85149  0.58677  1.0000
  C   C1404     1.0  0.42650  0.84773  0.65756  1.0000
  C   C1405     1.0  0.47710  0.88467  0.62293  1.0000
  C   C1406     1.0  0.49184  0.89355  0.63777  1.0000
  C   C1407     1.0  0.42140  0.82640  0.66771  1.0000
  H   H2452     1.0  0.46318  0.84701  0.60261  1.0000
  H   H2453     1.0  0.45761  0.87276  0.59258  1.0000
  H   H2454     1.0  0.45255  0.88335  0.64788  1.0000
  H   H2455     1.0  0.46750  0.85981  0.64377  1.0000
  H   H2456     1.0  0.44701  0.83308  0.63371  1.0000
  H   H2457     1.0  0.42107  0.83958  0.62632  1.0000
  H   H2458     1.0  0.40987  0.87428  0.61618  1.0000
  H   H2459     1.0  0.41853  0.88595  0.63825  1.0000
  H   H2460     1.0  0.42801  0.83653  0.59306  1.0000
  H   H2461     1.0  0.41197  0.85800  0.65882  1.0000
  H   H2462     1.0  0.43844  0.85422  0.66689  1.0000
  H   H2463     1.0  0.48671  0.87356  0.61299  1.0000
  H   H2464     1.0  0.47099  0.89771  0.61267  1.0000
  H   H2465     1.0  0.49950  0.88072  0.64737  1.0000
  H   H2466     1.0  0.50430  0.90193  0.62855  1.0000
  H   H2467     1.0  0.48318  0.90473  0.64834  1.0000
  H   H2468     1.0  0.41553  0.82821  0.68423  1.0000
  H   H2469     1.0  0.40920  0.81924  0.65918  1.0000
  H   H2470     1.0  0.43566  0.81567  0.66757  1.0000
  S   S317      1.0  0.46277  0.98220  0.79696  1.0000
  H   H2471     1.0  0.39194  0.97169  0.82869  1.0000
  C   C1408     1.0  0.65404  0.78951  0.58032  1.0000
  H   H2472     1.0  0.43880  0.91108  0.61747  1.0000
  S   S318      1.0  0.34571  0.79381  0.52525  1.0000
  H   H2473     1.0  0.42089  0.86311  0.58472  1.0000
  C   C1409     1.0  0.40749  0.91551  0.60758  1.0000
  C   C1410     1.0  0.49477  0.86207  0.75711  1.0000
  C   C1411     1.0  0.62049  0.86224  0.93848  1.0000
  H   H2474     1.0  0.45790  0.83592  0.56606  1.0000
  H   H2475     1.0  0.34376  0.90642  0.49876  1.0000
  H   H2476     1.0  0.66063  0.79231  0.59553  1.0000
  S   S319      1.0  0.34081  0.97286  0.85716  1.0000
  H   H2477     1.0  0.55425  0.76947  0.72100  1.0000
  C   C1412     1.0  0.63702  0.87920  0.93698  1.0000
  H   H2478     1.0  0.51322  0.80183  0.70701  1.0000
  C   C1413     1.0  0.54033  0.80092  0.72567  1.0000
  H   H2479     1.0  0.64566  0.84041  0.53601  1.0000
  S   S320      1.0  0.36258  0.98773  0.79729  1.0000
  H   H2480     1.0  0.61368  0.81053  0.92790  1.0000
  H   H2481     1.0  0.61908  0.85722  0.92225  1.0000
  H   H2482     1.0  0.66057  0.99532  0.79080  1.0000
  C   C1414     1.0  0.38941  0.78214  0.99457  1.0000
  H   H2483     1.0  0.40159  0.75578  0.54721  1.0000
  C   C1415     1.0  0.59707  0.86110  0.52795  1.0000
  H   H2484     1.0  0.64509  0.85794  0.97362  1.0000
  C   C1416     1.0  0.64963  0.80967  0.95429  1.0000
  H   H2485     1.0  0.37547  0.96601  0.89038  1.0000
  H   H2486     1.0  0.55315  0.78602  0.69738  1.0000
  H   H2487     1.0  0.39198  0.81504  0.98727  1.0000
  H   H2488     1.0  0.40247  0.99160  0.89454  1.0000
  H   H2489     1.0  0.57789  0.79911  0.92501  1.0000
  H   H2490     1.0  0.62869  0.87163  0.60437  1.0000
  H   H2491     1.0  0.58761  0.86027  0.54301  1.0000
  C   C1417     1.0  0.47358  0.77902  0.72931  1.0000
  H   H2492     1.0  0.64277  0.82923  0.92665  1.0000
  C   C1418     1.0  0.51316  0.77114  0.76211  1.0000
  C   C1419     1.0  0.42778  0.90192  0.60941  1.0000
  C   C1420     1.0  0.61280  0.86414  0.98564  1.0000
  N   N78       1.0  0.50142  0.80436  0.73920  1.0000
  C   C1421     1.0  0.65371  0.85840  0.56974  1.0000
  C   C1422     1.0  0.47962  0.80170  0.73223  1.0000
  C   C1423     1.0  0.51074  0.76159  0.78441  1.0000
  C   C1424     1.0  0.50413  0.79426  0.76084  1.0000
  C   C1425     1.0  0.58224  0.80585  0.93970  1.0000
  H   H2493     1.0  0.65270  0.87250  0.93173  1.0000
  C   C1426     1.0  0.48772  0.84016  0.75364  1.0000
  H   H2494     1.0  0.59703  0.75900  0.58215  1.0000
  H   H2495     1.0  0.38224  0.99260  0.86094  1.0000
  H   H2496     1.0  0.61288  0.95715  0.74488  1.0000
  Fe  Fe161     1.0  0.48705  0.75176  0.98838  1.0000
  C   C1427     1.0  0.62696  0.95104  0.75306  1.0000
  H   H2497     1.0  0.49390  0.76101  0.78960  1.0000
  H   H2498     1.0  0.45227  0.79324  0.54804  1.0000
  H   H2499     1.0  0.46761  0.80815  0.74380  1.0000
  H   H2500     1.0  0.65294  0.81129  0.97089  1.0000
  H   H2501     1.0  0.59278  0.88868  0.60179  1.0000
  H   H2502     1.0  0.44980  0.86228  0.55724  1.0000
  H   H2503     1.0  0.51483  0.80319  0.76969  1.0000
  H   H2504     1.0  0.48892  0.79508  0.77026  1.0000
  H   H2505     1.0  0.61272  0.76153  0.97432  1.0000
  C   C1428     1.0  0.58703  0.77183  0.99533  1.0000
  H   H2506     1.0  0.33871  0.90753  0.99291  1.0000
  H   H2507     1.0  0.54394  0.80042  0.74243  1.0000
  H   H2508     1.0  0.48494  0.83207  0.76920  1.0000
  H   H2509     1.0  0.47264  0.84215  0.74584  1.0000
  H   H2510     1.0  0.64638  0.97526  0.73999  1.0000
  N   N79       1.0  0.63379  0.84749  0.56724  1.0000
  C   C1429     1.0  0.64125  0.96890  0.75578  1.0000
  C   C1430     1.0  0.63118  0.89698  0.92127  1.0000
  H   H2511     1.0  0.43097  0.96988  0.82789  1.0000
  H   H2512     1.0  0.60846  0.87831  0.97590  1.0000
  H   H2513     1.0  0.35558  0.98411  0.90153  1.0000
  C   C1431     1.0  0.63042  0.84479  0.54439  1.0000
  C   C1432     1.0  0.59523  0.87305  0.60985  1.0000
  H   H2514     1.0  0.65842  0.84045  0.94437  1.0000
  H   H2515     1.0  0.49698  0.87102  0.74191  1.0000
  H   H2516     1.0  0.60842  0.81772  0.96771  1.0000
  C   C1433     1.0  0.44437  0.84751  0.56499  1.0000
  H   H2517     1.0  0.43419  0.89906  0.59327  1.0000
  H   H2518     1.0  0.61723  0.84677  0.61041  1.0000
  H   H2519     1.0  0.41086  0.93040  0.59872  1.0000
  H   H2520     1.0  0.65411  0.95809  0.78506  1.0000
  H   H2521     1.0  0.50415  0.83502  0.72363  1.0000
  H   H2522     1.0  0.62067  0.81856  0.57962  1.0000
  H   H2523     1.0  0.39598  0.90736  0.59903  1.0000
  H   H2524     1.0  0.62078  0.83116  0.54273  1.0000
  C   C1434     1.0  0.40088  0.97762  0.81503  1.0000
  H   H2525     1.0  0.43275  0.84114  0.55512  1.0000
  H   H2526     1.0  0.61136  0.87422  0.57009  1.0000
  C   C1435     1.0  0.61551  0.86190  0.60133  1.0000
  S   S321      1.0  0.56855  0.75756  0.98270  1.0000
  H   H2527     1.0  0.63859  0.78251  0.58327  1.0000
  H   H2528     1.0  0.43975  0.78469  0.73441  1.0000
  H   H2529     1.0  0.43070  0.81223  0.98043  1.0000
  H   H2530     1.0  0.50972  0.86117  0.76515  1.0000
  N   N80       1.0  0.62524  0.84345  0.95291  1.0000
  C   C1436     1.0  0.60639  0.83027  0.95519  1.0000
  H   H2531     1.0  0.60061  0.84961  0.57547  1.0000
  C   C1437     1.0  0.60042  0.82015  0.93499  1.0000
  H   H2532     1.0  0.65738  0.85811  0.58653  1.0000
  H   H2533     1.0  0.63042  0.89097  0.90536  1.0000
  C   C1438     1.0  0.58656  0.99685  0.79124  1.0000
  H   H2534     1.0  0.59224  0.83985  0.96063  1.0000
  H   H2535     1.0  0.58680  0.79273  0.95079  1.0000
  Fe  Fe162     1.0  0.48819  0.98666  0.77041  1.0000
  H   H2536     1.0  0.63665  0.79903  0.95368  1.0000
  H   H2537     1.0  0.40050  0.91931  0.62334  1.0000
  H   H2538     1.0  0.59541  0.83240  0.92320  1.0000
  H   H2539     1.0  0.62862  0.86436  0.51562  1.0000
  H   H2540     1.0  0.48421  0.77127  0.71737  1.0000
  H   H2541     1.0  0.54304  0.81696  0.71900  1.0000
  H   H2542     1.0  0.64332  0.90877  0.92057  1.0000
  H   H2543     1.0  0.60492  0.86990  0.94291  1.0000
  H   H2544     1.0  0.47729  0.81085  0.71718  1.0000
  H   H2545     1.0  0.50559  0.76090  0.75175  1.0000
  H   H2546     1.0  0.44402  0.97254  0.70773  1.0000
  C   C1439     1.0  0.39041  0.98607  0.79773  1.0000
  H   H2547     1.0  0.53014  0.77034  0.75738  1.0000
  H   H2548     1.0  0.65851  0.96631  0.99547  1.0000
  C   C1440     1.0  0.40076  0.76268  0.99638  1.0000
  C   C1441     1.0  0.42446  0.99240  0.77947  1.0000
  C   C1442     1.0  0.66030  0.96143  0.76868  1.0000
  Fe  Fe163     1.0  0.34403  0.76491  0.50640  1.0000
  S   S322      1.0  0.53538  0.98934  0.72976  1.0000
  H   H2549     1.0  0.65535  0.88133  0.54332  1.0000
  C   C1443     1.0  0.55587  0.78570  0.71436  1.0000
  H   H2550     1.0  0.65697  0.98442  0.96038  1.0000
  H   H2551     1.0  0.63261  0.83603  0.98507  1.0000
  H   H2552     1.0  0.59853  0.85535  0.98955  1.0000
  S   S323      1.0  0.52272  0.75116  0.69078  1.0000
  H   H2553     1.0  0.51885  0.77079  0.79542  1.0000
  H   H2554     1.0  0.41815  0.98474  0.71214  1.0000
  S   S324      1.0  0.63115  0.81825  0.49891  1.0000
  H   H2555     1.0  0.37858  0.76088  0.57658  1.0000
  C   C1444     1.0  0.42276  0.76102  0.99245  1.0000
  H   H2556     1.0  0.59510  0.84676  0.51935  1.0000
  Fe  Fe164     1.0  0.53580  0.99428  0.76429  1.0000
  H   H2557     1.0  0.43815  0.98891  0.72980  1.0000
  S   S325      1.0  0.37913  0.76280  0.50034  1.0000
  H   H2558     1.0  0.39731  0.75345  0.60969  1.0000
  C   C1445     1.0  0.40040  0.79995  0.98869  1.0000
  H   H2559     1.0  0.64618  0.80595  0.55177  1.0000
  H   H2560     1.0  0.66071  0.75099  0.53955  1.0000
  C   C1446     1.0  0.65454  0.88117  0.56071  1.0000
  H   H2561     1.0  0.43339  0.99840  0.76584  1.0000
  C   C1447     1.0  0.33684  0.75623  0.57108  1.0000
  H   H2562     1.0  0.66166  0.94827  0.97458  1.0000
  H   H2563     1.0  0.66477  0.77816  0.57182  1.0000
  C   C1448     1.0  0.62324  0.78257  0.99638  1.0000
  C   C1449     1.0  0.38589  0.99745  0.89389  1.0000
  H   H2564     1.0  0.35980  0.74975  0.54630  1.0000
  H   H2565     1.0  0.41982  0.74851  0.57939  1.0000
  C   C1450     1.0  0.76397  0.08494  0.03393  1.0000
  H   H2566     1.0  0.74058  0.06608  0.10886  1.0000
  H   H2567     1.0  0.85932  0.22306  0.01376  1.0000
  Fe  Fe165     1.0  0.69400  0.12200  0.02523  1.0000
  S   S326      1.0  0.68365  0.10714  0.05728  1.0000
  S   S327      1.0  0.69398  0.15719  0.02315  1.0000
  H   H2568     1.0  0.91229  0.14913  0.25567  1.0000
  H   H2569     1.0  0.77951  0.07852  0.03881  1.0000
  S   S328      1.0  0.71540  0.02116  0.10320  1.0000
  H   H2570     1.0  0.76538  0.06412  0.42524  1.0000
  Fe  Fe166     1.0  0.98294  0.11965  0.31720  1.0000
  S   S329      1.0  0.95063  0.10597  0.32382  1.0000
  C   C1451     1.0  0.72641  0.24360  0.49592  1.0000
  C   C1452     1.0  0.79155  0.99920  0.21894  1.0000
  H   H2571     1.0  0.71027  0.13966  0.09885  1.0000
  S   S330      1.0  0.98828  0.15318  0.32405  1.0000
  S   S331      1.0  0.84392  0.01131  0.30298  1.0000
  C   C1453     1.0  0.99639  0.19695  0.40118  1.0000
  H   H2572     1.0  0.70739  0.17383  0.06364  1.0000
  S   S332      1.0  0.90393  0.03067  0.28750  1.0000
  H   H2573     1.0  0.69885  0.05820  0.45591  1.0000
  C   C1454     1.0  0.85102  0.23219  0.05611  1.0000
  H   H2574     1.0  0.90015  0.10439  0.24835  1.0000
  H   H2575     1.0  0.86643  0.23157  0.06322  1.0000
  C   C1455     1.0  0.92387  0.11783  0.26593  1.0000
  H   H2576     1.0  0.81588  0.05749  0.48125  1.0000
  C   C1456     1.0  0.93905  0.08383  0.31428  1.0000
  C   C1457     1.0  0.92135  0.07583  0.32539  1.0000
  C   C1458     1.0  0.91083  0.05914  0.31786  1.0000
  C   C1459     1.0  0.91755  0.05057  0.29875  1.0000
  C   C1460     1.0  0.93527  0.05856  0.28764  1.0000
  C   C1461     1.0  0.94615  0.07483  0.29548  1.0000
  H   H2577     1.0  0.91561  0.08271  0.33988  1.0000
  H   H2578     1.0  0.89717  0.05335  0.32654  1.0000
  H   H2579     1.0  0.94057  0.05219  0.27278  1.0000
  H   H2580     1.0  0.95964  0.08083  0.28668  1.0000
  H   H2581     1.0  0.74971  0.08141  0.06479  1.0000
  H   H2582     1.0  0.93124  0.17907  0.24522  1.0000
  N   N81       1.0  0.74995  0.12405  0.07863  1.0000
  H   H2583     1.0  0.68618  0.15325  0.43367  1.0000
  H   H2584     1.0  0.76220  0.06558  0.12561  1.0000
  H   H2585     1.0  0.81964  0.09477  0.48633  1.0000
  H   H2586     1.0  0.81984  0.24618  0.06396  1.0000
  C   C1462     1.0  0.86140  0.02749  0.39275  1.0000
  H   H2587     1.0  0.98414  0.20867  0.39754  1.0000
  S   S333      1.0  0.82147  0.00351  0.36048  1.0000
  H   H2588     1.0  0.84486  0.08161  0.48078  1.0000
  C   C1463     1.0  0.82968  0.08671  0.47409  1.0000
  H   H2589     1.0  0.83539  0.13790  0.02691  1.0000
  C   C1464     1.0  0.69235  0.08298  0.06966  1.0000
  C   C1465     1.0  0.70596  0.06850  0.05934  1.0000
  C   C1466     1.0  0.71278  0.04973  0.06990  1.0000
  C   C1467     1.0  0.70585  0.04499  0.09080  1.0000
  C   C1468     1.0  0.69212  0.05941  0.10111  1.0000
  C   C1469     1.0  0.68546  0.07830  0.09059  1.0000
  H   H2590     1.0  0.71123  0.07174  0.04322  1.0000
  H   H2591     1.0  0.93356  0.20047  0.21014  1.0000
  H   H2592     1.0  0.68670  0.05603  0.11719  1.0000
  H   H2593     1.0  0.86356  0.03601  0.37730  1.0000
  H   H2594     1.0  0.72779  0.16064  0.09412  1.0000
  H   H2595     1.0  0.95877  0.17818  0.24144  1.0000
  C   C1470     1.0  0.84402  0.20993  0.05246  1.0000
  H   H2596     1.0  0.77879  0.01529  0.32719  1.0000
  H   H2597     1.0  0.71248  0.11758  0.48463  1.0000
  H   H2598     1.0  0.69177  0.17280  0.08801  1.0000
  C   C1471     1.0  0.81992  0.02098  0.46069  1.0000
  H   H2599     1.0  0.70536  0.04538  0.01420  1.0000
  H   H2600     1.0  0.95499  0.01589  0.28955  1.0000
  C   C1472     1.0  0.70066  0.16316  0.07617  1.0000
  H   H2601     1.0  0.85189  0.16899  0.05551  1.0000
  C   C1473     1.0  0.83531  0.24377  0.07097  1.0000
  H   H2602     1.0  0.99646  0.18295  0.37101  1.0000
  C   C1474     1.0  0.90251  0.10864  0.26462  1.0000
  H   H2603     1.0  0.87650  0.19798  0.07577  1.0000
  C   C1475     1.0  0.94197  0.16720  0.21564  1.0000
  H   H2604     1.0  0.84822  0.05355  0.45503  1.0000
  C   C1476     1.0  0.76462  0.13820  0.08790  1.0000
  C   C1477     1.0  0.84416  0.03884  0.40617  1.0000
  C   C1478     1.0  0.82389  0.14828  0.03573  1.0000
  H   H2605     1.0  0.75753  0.16829  0.07069  1.0000
  H   H2606     1.0  0.77930  0.12917  0.09201  1.0000
  H   H2607     1.0  0.92018  0.18738  0.05505  1.0000
  H   H2608     1.0  0.77818  0.15232  0.05828  1.0000
  S   S334      1.0  0.75149  0.17233  0.01890  1.0000
  H   H2609     1.0  0.85236  0.24164  0.04121  1.0000
  H   H2610     1.0  0.79772  0.22896  0.03240  1.0000
  S   S335      1.0  0.99562  0.21558  0.43919  1.0000
  H   H2611     1.0  0.83254  0.09805  0.46066  1.0000
  C   C1479     1.0  0.78626  0.00559  0.31463  1.0000
  S   S336      1.0  0.72587  0.11884  0.00880  1.0000
  H   H2612     1.0  0.81693  0.18083  0.04056  1.0000
  C   C1480     1.0  0.90922  0.19506  0.06682  1.0000
  H   H2613     1.0  0.79154  0.18325  0.07337  1.0000
  H   H2614     1.0  0.98378  0.15662  0.22590  1.0000
  H   H2615     1.0  0.80805  0.14610  0.03022  1.0000
  H   H2616     1.0  0.94240  0.18681  0.18696  1.0000
  C   C1481     1.0  0.74972  0.07584  0.11848  1.0000
  H   H2617     1.0  0.74919  0.04538  0.43918  1.0000
  H   H2618     1.0  0.86291  0.16461  0.03007  1.0000
  S   S337      1.0  0.70518  0.01191  0.16807  1.0000
  C   C1482     1.0  0.78247  0.04015  0.44388  1.0000
  C   C1483     1.0  0.76438  0.04734  0.43021  1.0000
  H   H2619     1.0  0.96113  0.19327  0.20520  1.0000
  C   C1484     1.0  0.83203  0.05652  0.44975  1.0000
  C   C1485     1.0  0.77120  0.15731  0.07363  1.0000
  H   H2620     1.0  0.93297  0.00895  0.34423  1.0000
  H   H2621     1.0  0.83363  0.06815  0.43637  1.0000
  H   H2622     1.0  0.77992  0.02373  0.44941  1.0000
  H   H2623     1.0  0.80349  0.07392  0.46119  1.0000
  S   S338      1.0  0.71281  0.22162  0.48827  1.0000
  H   H2624     1.0  0.83564  0.01073  0.42406  1.0000
  H   H2625     1.0  0.88597  0.21412  0.03763  1.0000
  Fe  Fe167     1.0  0.70851  0.00276  0.13428  1.0000
  C   C1486     1.0  0.81868  0.06789  0.46715  1.0000
  C   C1487     1.0  0.80384  0.04141  0.43112  1.0000
  H   H2626     1.0  0.81352  0.00676  0.45480  1.0000
  H   H2627     1.0  0.78149  0.04982  0.45779  1.0000
  H   H2628     1.0  0.95477  0.13862  0.28365  1.0000
  H   H2629     1.0  0.88974  0.11999  0.26991  1.0000
  H   H2630     1.0  0.78609  0.00863  0.38966  1.0000
  C   C1488     1.0  0.77742  0.20430  0.02598  1.0000
  Fe  Fe168     1.0  0.74358  0.00862  0.49246  1.0000
  S   S339      1.0  0.68416  0.17169  0.47785  1.0000
  H   H2631     1.0  0.84931  0.05476  0.40837  1.0000
  N   N82       1.0  0.94624  0.14856  0.25217  1.0000
  H   H2632     1.0  0.92566  0.12089  0.28261  1.0000
  C   C1489     1.0  0.82912  0.17116  0.03187  1.0000
  H   H2633     1.0  0.73527  0.09883  0.04760  1.0000
  H   H2634     1.0  0.83757  0.24833  0.47952  1.0000
  C   C1490     1.0  0.71801  0.14983  0.08654  1.0000
  H   H2635     1.0  0.79644  0.01086  0.28174  1.0000
  C   C1491     1.0  0.88658  0.19036  0.06335  1.0000
  H   H2636     1.0  0.98183  0.04200  0.29076  1.0000
  C   C1492     1.0  0.93291  0.16570  0.28674  1.0000
  N   N83       1.0  0.82370  0.03665  0.44264  1.0000
  C   C1493     1.0  0.73116  0.13641  0.07038  1.0000
  H   H2637     1.0  0.73581  0.14672  0.05658  1.0000
  H   H2638     1.0  0.91839  0.15700  0.28846  1.0000
  H   H2639     1.0  0.82386  0.14374  0.05270  1.0000
  H   H2640     1.0  0.77239  0.02534  0.28973  1.0000
  H   H2641     1.0  0.90169  0.09424  0.27500  1.0000
  H   H2642     1.0  0.75551  0.07205  0.02787  1.0000
  H   H2643     1.0  0.80284  0.03018  0.41861  1.0000
  H   H2644     1.0  0.87650  0.02670  0.40051  1.0000
  H   H2645     1.0  0.83345  0.23491  0.08626  1.0000
  C   C1494     1.0  0.92580  0.13805  0.25165  1.0000
  H   H2646     1.0  0.91339  0.18908  0.08270  1.0000
  H   H2647     1.0  0.92592  0.16244  0.21318  1.0000
  C   C1495     1.0  0.75117  0.09417  0.05255  1.0000
  C   C1496     1.0  0.83933  0.01360  0.47308  1.0000
  H   H2648     1.0  0.76373  0.12447  0.04687  1.0000
  C   C1497     1.0  0.74238  0.10848  0.09544  1.0000
  H   H2649     1.0  0.93599  0.10567  0.26110  1.0000
  H   H2650     1.0  0.72026  0.12574  0.06418  1.0000
  H   H2651     1.0  0.92930  0.18119  0.27894  1.0000
  C   C1498     1.0  0.76162  0.11324  0.06059  1.0000
  C   C1499     1.0  0.76887  0.19271  0.01066  1.0000
  C   C1500     1.0  0.85137  0.17498  0.03893  1.0000
  C   C1501     1.0  0.98502  0.14367  0.23796  1.0000
  Fe  Fe169     1.0  0.72528  0.15414  0.00508  1.0000
  H   H2652     1.0  0.76933  0.10204  0.11486  1.0000
  H   H2653     1.0  0.72989  0.09919  0.08963  1.0000
  C   C1502     1.0  0.96750  0.01297  0.30067  1.0000
  H   H2654     1.0  0.75778  0.14408  0.10305  1.0000
  H   H2655     1.0  0.80421  0.05704  0.42273  1.0000
  H   H2656     1.0  0.92591  0.17844  0.31731  1.0000
  C   C1503     1.0  0.69556  0.13814  0.43506  1.0000
  C   C1504     1.0  0.94493  0.18825  0.20383  1.0000
  H   H2657     1.0  0.68177  0.12859  0.46513  1.0000
  H   H2658     1.0  0.99111  0.14999  0.25201  1.0000
  H   H2659     1.0  0.69393  0.10772  0.45013  1.0000
  C   C1505     1.0  0.98640  0.02503  0.29227  1.0000
  H   H2660     1.0  0.91114  0.21223  0.06568  1.0000
  H   H2661     1.0  0.92333  0.13353  0.23545  1.0000
  H   H2662     1.0  0.71064  0.14111  0.44183  1.0000
  C   C1506     1.0  0.95075  0.15326  0.27430  1.0000
  H   H2663     1.0  0.79725  0.03329  0.29748  1.0000
  C   C1507     1.0  0.96362  0.13394  0.24346  1.0000
  C   C1508     1.0  0.88049  0.19802  0.04104  1.0000
  H   H2664     1.0  0.96497  0.16245  0.27426  1.0000
  H   H2665     1.0  0.95331  0.15561  0.20838  1.0000
  H   H2666     1.0  0.78089  0.17535  0.09904  1.0000
  H   H2667     1.0  0.84720  0.02705  0.47870  1.0000
  Fe  Fe170     1.0  0.87940  0.00786  0.30097  1.0000
  C   C1509     1.0  0.94481  0.16896  0.23939  1.0000
  H   H2668     1.0  0.99209  0.01971  0.27657  1.0000
  H   H2669     1.0  0.77779  0.10790  0.06464  1.0000
  H   H2670     1.0  0.99634  0.12179  0.21422  1.0000
  C   C1510     1.0  0.72134  0.06469  0.49406  1.0000
  H   H2671     1.0  0.77006  0.08596  0.09264  1.0000
  H   H2672     1.0  0.82771  0.21194  0.04734  1.0000
  H   H2673     1.0  0.84259  0.20137  0.06799  1.0000
  C   C1511     1.0  0.79184  0.21994  0.02043  1.0000
  H   H2674     1.0  0.94235  0.15470  0.31768  1.0000
  H   H2675     1.0  0.95887  0.12663  0.22919  1.0000
  C   C1512     1.0  0.93902  0.16974  0.30879  1.0000
  C   C1513     1.0  0.78739  0.16955  0.08378  1.0000
  H   H2676     1.0  0.68955  0.15298  0.06944  1.0000
  H   H2677     1.0  0.76629  0.09699  0.02106  1.0000
  Fe  Fe171     1.0  0.68451  0.20081  0.49660  1.0000
  H   H2678     1.0  0.80765  0.02698  0.47218  1.0000
  H   H2679     1.0  0.88518  0.17318  0.06547  1.0000
  N   N84       1.0  0.85760  0.19738  0.03694  1.0000
  H   H2680     1.0  0.72340  0.03871  0.06177  1.0000
  H   H2681     1.0  0.81751  0.00349  0.23835  1.0000
  H   H2682     1.0  0.73918  0.08236  0.13126  1.0000
  C   C1514     1.0  0.72289  0.08480  0.48436  1.0000
  H   H2683     1.0  0.73463  0.11668  0.10897  1.0000
  H   H2684     1.0  0.95297  0.17934  0.30807  1.0000
  H   H2685     1.0  0.67667  0.04183  0.45725  1.0000
  H   H2686     1.0  0.82992  0.04028  0.39702  1.0000
  C   C1515     1.0  0.75955  0.09338  0.10486  1.0000
  H   H2687     1.0  0.96668  0.12057  0.25485  1.0000
  H   H2688     1.0  0.80187  0.15956  0.08625  1.0000
  H   H2689     1.0  0.77258  0.20138  0.04227  1.0000
  H   H2690     1.0  0.80105  0.23937  0.48562  1.0000
  H   H2691     1.0  0.73364  0.08697  0.47083  1.0000
  H   H2692     1.0  0.69896  0.13203  0.41920  1.0000
  H   H2693     1.0  0.76463  0.03781  0.41614  1.0000
  C   C1516     1.0  0.78812  0.01958  0.29464  1.0000
  H   H2694     1.0  0.80235  0.00070  0.31891  1.0000
  H   H2695     1.0  0.96171  0.01989  0.31563  1.0000
  C   C1517     1.0  0.68381  0.12233  0.44928  1.0000
  H   H2696     1.0  0.74447  0.24584  0.46646  1.0000
  H   H2697     1.0  0.67485  0.08934  0.09872  1.0000
  H   H2698     1.0  0.85549  0.02464  0.43473  1.0000
  H   H2699     1.0  0.86481  0.20862  0.49498  1.0000
  H   H2700     1.0  0.68640  0.06713  0.01167  1.0000
  S   S340      1.0  0.73693  0.04342  0.48327  1.0000
  H   H2701     1.0  0.89019  0.18799  0.03008  1.0000
  H   H2702     1.0  0.99185  0.22788  0.25976  1.0000
  H   H2703     1.0  0.79458  0.01288  0.20887  1.0000
  H   H2704     1.0  0.85709  0.01136  0.38993  1.0000
  C   C1518     1.0  0.67186  0.07174  0.43979  1.0000
  H   H2705     1.0  0.85075  0.00418  0.46315  1.0000
  C   C1519     1.0  0.69749  0.05636  0.00280  1.0000
  H   H2706     1.0  0.83731  0.20814  0.01245  1.0000
  C   C1520     1.0  0.71074  0.10219  0.49202  1.0000
  H   H2707     1.0  0.69278  0.04461  0.43329  1.0000
  C   C1521     1.0  0.84006  0.02674  0.42756  1.0000
  H   H2708     1.0  0.73201  0.00263  0.37753  1.0000
  H   H2709     1.0  0.67338  0.08574  0.47006  1.0000
  C   C1522     1.0  0.83317  0.99965  0.49225  1.0000
  C   C1523     1.0  0.68584  0.05296  0.44707  1.0000
  H   H2710     1.0  0.68183  0.08211  0.42964  1.0000
  H   H2711     1.0  0.99514  0.24747  0.22525  1.0000
  C   C1524     1.0  0.99868  0.21996  0.24624  1.0000
  C   C1525     1.0  0.79850  0.22394  0.99941  1.0000
  H   H2712     1.0  0.82789  0.17499  0.01487  1.0000
  C   C1526     1.0  0.85427  0.20675  0.01526  1.0000
  H   H2713     1.0  0.93060  0.99897  0.31151  1.0000
  C   C1527     1.0  0.79004  0.21228  0.98412  1.0000
  H   H2714     1.0  0.98221  0.19890  0.73876  1.0000
  H   H2715     1.0  0.94172  0.00999  0.69504  1.0000
  C   C1528     1.0  0.93588  0.19527  0.50941  1.0000
  H   H2716     1.0  0.75403  0.00940  0.74839  1.0000
  S   S341      1.0  0.71014  0.15420  0.97397  1.0000
  Fe  Fe172     1.0  0.70851  0.11898  0.97897  1.0000
  S   S342      1.0  0.72077  0.09297  0.95693  1.0000
  H   H2717     1.0  0.78851  0.02555  0.62188  1.0000
  H   H2718     1.0  0.91222  0.17776  0.87512  1.0000
  C   C1529     1.0  0.68399  0.01492  0.77564  1.0000
  C   C1530     1.0  0.92346  0.22619  0.56890  1.0000
  S   S343      1.0  0.68485  0.04845  0.87983  1.0000
  H   H2719     1.0  0.92483  0.19456  0.78347  1.0000
  H   H2720     1.0  0.98805  0.21548  0.82570  1.0000
  H   H2721     1.0  0.68405  0.04692  0.78539  1.0000
  Fe  Fe173     1.0  0.97873  0.11804  0.68678  1.0000
  H   H2722     1.0  0.74799  0.01061  0.55472  1.0000
  S   S344      1.0  0.94945  0.10142  0.67835  1.0000
  H   H2723     1.0  0.88299  0.19629  0.99718  1.0000
  S   S345      1.0  0.83519  0.01422  0.68563  1.0000
  H   H2724     1.0  0.71061  0.00092  0.71467  1.0000
  S   S346      1.0  0.97825  0.15295  0.69170  1.0000
  S   S347      1.0  0.89281  0.02493  0.70897  1.0000
  H   H2725     1.0  0.68138  0.09985  0.93513  1.0000
  S   S348      1.0  0.69241  0.00833  0.83302  1.0000
  H   H2726     1.0  0.83018  0.01671  0.73820  1.0000
  H   H2727     1.0  0.79241  0.22466  0.54189  1.0000
  H   H2728     1.0  0.94602  0.22680  0.53033  1.0000
  H   H2729     1.0  0.97136  0.20201  0.68780  1.0000
  C   C1531     1.0  0.69521  0.07961  0.51922  1.0000
  C   C1532     1.0  0.93510  0.07907  0.68679  1.0000
  C   C1533     1.0  0.92131  0.07127  0.67306  1.0000
  C   C1534     1.0  0.90878  0.05433  0.67925  1.0000
  C   C1535     1.0  0.90946  0.04522  0.69953  1.0000
  C   C1536     1.0  0.92336  0.05288  0.71322  1.0000
  C   C1537     1.0  0.93621  0.06955  0.70688  1.0000
  H   H2730     1.0  0.92023  0.07851  0.65751  1.0000
  H   H2731     1.0  0.89820  0.04871  0.66850  1.0000
  H   H2732     1.0  0.92406  0.04601  0.72895  1.0000
  H   H2733     1.0  0.94658  0.07540  0.71769  1.0000
  H   H2734     1.0  0.95111  0.20297  0.87944  1.0000
  H   H2735     1.0  0.67751  0.04257  0.94525  1.0000
  H   H2736     1.0  0.83033  0.04139  0.79238  1.0000
  C   C1538     1.0  0.85046  0.22985  0.51800  1.0000
  C   C1539     1.0  0.94204  0.19592  0.84753  1.0000
  H   H2737     1.0  0.77971  0.02842  0.55535  1.0000
  C   C1540     1.0  0.73770  0.02207  0.56364  1.0000
  H   H2738     1.0  0.69728  0.01038  0.78549  1.0000
  S   S349      1.0  0.81793  0.24250  0.99142  1.0000
  H   H2739     1.0  0.98594  0.21559  0.86600  1.0000
  C   C1541     1.0  0.75949  0.03326  0.59145  1.0000
  S   S350      1.0  0.67646  0.12040  0.99584  1.0000
  H   H2740     1.0  0.87015  0.07111  0.69563  1.0000
  H   H2741     1.0  0.67692  0.05614  0.97768  1.0000
  H   H2742     1.0  0.75498  0.03321  0.52593  1.0000
  C   C1542     1.0  0.95281  0.23317  0.84324  1.0000
  C   C1543     1.0  0.76857  0.04246  0.55479  1.0000
  H   H2743     1.0  0.98336  0.01058  0.71657  1.0000
  C   C1544     1.0  0.71010  0.08075  0.93575  1.0000
  C   C1545     1.0  0.69058  0.08704  0.92811  1.0000
  C   C1546     1.0  0.68311  0.07700  0.91104  1.0000
  C   C1547     1.0  0.69480  0.06030  0.90162  1.0000
  C   C1548     1.0  0.71422  0.05390  0.90939  1.0000
  C   C1549     1.0  0.72182  0.06410  0.92624  1.0000
  H   H2744     1.0  0.77846  0.05168  0.50086  1.0000
  Fe  Fe174     1.0  0.86816  0.00567  0.69497  1.0000
  H   H2745     1.0  0.73780  0.99864  0.58996  1.0000
  C   C1550     1.0  0.86579  0.19512  0.99683  1.0000
  C   C1551     1.0  0.85297  0.01880  0.76128  1.0000
  H   H2746     1.0  0.86734  0.09800  0.70270  1.0000
  H   H2747     1.0  0.96438  0.24344  0.83486  1.0000
  C   C1552     1.0  0.70747  0.06221  0.51165  1.0000
  H   H2748     1.0  0.71042  0.04069  0.96375  1.0000
  H   H2749     1.0  0.77802  0.24546  0.52883  1.0000
  C   C1553     1.0  0.70808  0.08293  0.58780  1.0000
  H   H2750     1.0  0.94928  0.17976  0.84628  1.0000
  C   C1554     1.0  0.76296  0.04657  0.53162  1.0000
  H   H2751     1.0  0.82668  0.21579  0.50107  1.0000
  N   N85       1.0  0.95558  0.21135  0.83523  1.0000
  C   C1555     1.0  0.95336  0.00255  0.70551  1.0000
  H   H2752     1.0  0.82454  0.21141  0.52852  1.0000
  H   H2753     1.0  0.93786  0.16700  0.88198  1.0000
  H   H2754     1.0  0.73700  0.05917  0.93187  1.0000
  C   C1556     1.0  0.78070  0.04149  0.62197  1.0000
  H   H2755     1.0  0.95658  0.23338  0.85989  1.0000
  H   H2756     1.0  0.95203  0.19354  0.50205  1.0000
  H   H2757     1.0  0.79190  0.05233  0.62750  1.0000
  H   H2758     1.0  0.76685  0.06462  0.60084  1.0000
  S   S351      1.0  0.67487  0.18326  0.52698  1.0000
  H   H2759     1.0  0.79019  0.06423  0.52148  1.0000
  C   C1557     1.0  0.67304  0.02632  0.94986  1.0000
  H   H2760     1.0  0.76846  0.01788  0.59031  1.0000
  H   H2761     1.0  0.96597  0.20811  0.53713  1.0000
  H   H2762     1.0  0.97420  0.22136  0.70684  1.0000
  H   H2763     1.0  0.67932  0.01984  0.91666  1.0000
  N   N86       1.0  0.94549  0.21747  0.56345  1.0000
  C   C1558     1.0  0.94911  0.21268  0.54063  1.0000
  H   H2764     1.0  0.81886  0.02121  0.76331  1.0000
  C   C1559     1.0  0.94948  0.19720  0.57610  1.0000
  H   H2765     1.0  0.75523  0.19503  0.51498  1.0000
  H   H2766     1.0  0.97039  0.18936  0.79624  1.0000
  Fe  Fe175     1.0  0.67877  0.15548  0.99266  1.0000
  C   C1560     1.0  0.94984  0.19896  0.60018  1.0000
  H   H2767     1.0  0.96000  0.23552  0.58589  1.0000
  H   H2768     1.0  0.71671  0.01815  0.59239  1.0000
  H   H2769     1.0  0.95840  0.22504  0.80355  1.0000
  C   C1561     1.0  0.94881  0.17751  0.61164  1.0000
  C   C1562     1.0  0.73735  0.05984  0.57132  1.0000
  H   H2770     1.0  0.86505  0.01636  0.74829  1.0000
  H   H2771     1.0  0.92821  0.21024  0.50353  1.0000
  H   H2772     1.0  0.96477  0.18937  0.57075  1.0000
  H   H2773     1.0  0.93739  0.18597  0.57343  1.0000
  H   H2774     1.0  0.91292  0.21333  0.57366  1.0000
  H   H2775     1.0  0.68442  0.07747  0.53273  1.0000
  H   H2776     1.0  0.92017  0.19536  0.54015  1.0000
  H   H2777     1.0  0.83068  0.00836  0.58293  1.0000
  H   H2778     1.0  0.71306  0.01937  0.93519  1.0000
  H   H2779     1.0  0.86336  0.19769  0.52167  1.0000
  H   H2780     1.0  0.69004  0.01940  0.75954  1.0000
  H   H2781     1.0  0.97947  0.23269  0.75646  1.0000
  C   C1563     1.0  0.93077  0.24422  0.84071  1.0000
  H   H2782     1.0  0.76868  0.19603  0.53886  1.0000
  H   H2783     1.0  0.67010  0.00401  0.98718  1.0000
  H   H2784     1.0  0.96519  0.03255  0.71187  1.0000
  H   H2785     1.0  0.94661  0.20764  0.77035  1.0000
  H   H2786     1.0  0.70941  0.06585  0.99409  1.0000
  H   H2787     1.0  0.93345  0.17078  0.60981  1.0000
  H   H2788     1.0  0.96155  0.16656  0.60548  1.0000
  H   H2789     1.0  0.77756  0.05597  0.55862  1.0000
  C   C1564     1.0  0.77441  0.04865  0.59997  1.0000
  C   C1565     1.0  0.67272  0.03452  0.78459  1.0000
  H   H2790     1.0  0.79414  0.03624  0.51904  1.0000
  C   C1566     1.0  0.91225  0.23951  0.55145  1.0000
  H   H2791     1.0  0.88100  0.23872  0.56702  1.0000
  H   H2792     1.0  0.88118  0.07905  0.71924  1.0000
  H   H2793     1.0  0.66815  0.08226  0.90508  1.0000
  N   N87       1.0  0.82919  0.04918  0.74600  1.0000
  H   H2794     1.0  0.72604  0.02839  0.55238  1.0000
  C   C1567     1.0  0.80931  0.05303  0.73448  1.0000
  C   C1568     1.0  0.84733  0.05437  0.73072  1.0000
  C   C1569     1.0  0.82920  0.06297  0.76451  1.0000
  C   C1570     1.0  0.81978  0.05411  0.78588  1.0000
  S   S352      1.0  0.99724  0.24736  0.79288  1.0000
  C   C1571     1.0  0.84711  0.07718  0.72123  1.0000
  C   C1572     1.0  0.78840  0.04986  0.74735  1.0000
  C   C1573     1.0  0.76990  0.05170  0.73321  1.0000
  C   C1574     1.0  0.81708  0.07105  0.80198  1.0000
  H   H2795     1.0  0.97857  0.02002  0.68998  1.0000
  C   C1575     1.0  0.86775  0.08154  0.70902  1.0000
  H   H2796     1.0  0.71918  0.09447  0.59219  1.0000
  S   S353      1.0  0.98389  0.22813  0.49888  1.0000
  H   H2797     1.0  0.80775  0.06943  0.72815  1.0000
  H   H2798     1.0  0.80988  0.04295  0.72068  1.0000
  H   H2799     1.0  0.91916  0.00358  0.63464  1.0000
  H   H2800     1.0  0.92653  0.19540  0.84059  1.0000
  H   H2801     1.0  0.84550  0.06686  0.76743  1.0000
  H   H2802     1.0  0.82084  0.07833  0.76083  1.0000
  H   H2803     1.0  0.74700  0.03069  0.60391  1.0000
  H   H2804     1.0  0.80436  0.04752  0.78462  1.0000
  C   C1576     1.0  0.78271  0.04986  0.51744  1.0000
  H   H2805     1.0  0.94563  0.00156  0.72149  1.0000
  H   H2806     1.0  0.84458  0.08873  0.73362  1.0000
  H   H2807     1.0  0.83466  0.07993  0.70993  1.0000
  H   H2808     1.0  0.78824  0.03433  0.75563  1.0000
  H   H2809     1.0  0.78562  0.06220  0.75894  1.0000
  H   H2810     1.0  0.77148  0.03927  0.72159  1.0000
  H   H2811     1.0  0.75507  0.04976  0.74286  1.0000
  H   H2812     1.0  0.76897  0.06727  0.72479  1.0000
  H   H2813     1.0  0.81088  0.06417  0.81722  1.0000
  H   H2814     1.0  0.83237  0.07770  0.80437  1.0000
  H   H2815     1.0  0.80579  0.08378  0.79676  1.0000
  H   H2816     1.0  0.94408  0.17935  0.53825  1.0000
  C   C1577     1.0  0.97848  0.20424  0.83538  1.0000
  H   H2817     1.0  0.71169  0.02170  0.98487  1.0000
  H   H2818     1.0  0.78913  0.04929  0.58993  1.0000
  C   C1578     1.0  0.78053  0.21633  0.51293  1.0000
  C   C1579     1.0  0.77525  0.19698  0.98963  1.0000
  C   C1580     1.0  0.68553  0.04436  0.98772  1.0000
  H   H2819     1.0  0.86806  0.19668  0.96278  1.0000
  H   H2820     1.0  0.76675  0.04136  0.63316  1.0000
  C   C1581     1.0  0.98138  0.21442  0.69236  1.0000
  H   H2821     1.0  0.90817  0.22949  0.53883  1.0000
  C   C1582     1.0  0.93702  0.19983  0.87116  1.0000
  H   H2822     1.0  0.69443  0.08327  0.59937  1.0000
  H   H2823     1.0  0.84219  0.20317  0.97413  1.0000
  Fe  Fe176     1.0  0.69201  0.01556  0.86751  1.0000
  C   C1583     1.0  0.72618  0.00851  0.58108  1.0000
  H   H2824     1.0  0.71136  0.24595  0.52672  1.0000
  C   C1584     1.0  0.79023  0.23254  0.52624  1.0000
  H   H2825     1.0  0.95082  0.17906  0.62860  1.0000
  H   H2826     1.0  0.73429  0.00327  0.96540  1.0000
  C   C1585     1.0  0.70070  0.03003  0.97406  1.0000
  H   H2827     1.0  0.70663  0.05023  0.58377  1.0000
  H   H2828     1.0  0.72358  0.04134  0.90213  1.0000
  N   N88       1.0  0.69059  0.01462  0.96112  1.0000
  H   H2829     1.0  0.74860  0.00200  0.92873  1.0000
  H   H2830     1.0  0.92688  0.18216  0.50465  1.0000
  H   H2831     1.0  0.75256  0.06086  0.52960  1.0000
  H   H2832     1.0  0.74738  0.07309  0.57352  1.0000
  H   H2833     1.0  0.86248  0.22167  0.97430  1.0000
  H   H2834     1.0  0.73032  0.06354  0.55602  1.0000
  C   C1586     1.0  0.93649  0.19469  0.53326  1.0000
  H   H2835     1.0  0.94390  0.24730  0.93167  1.0000
  H   H2836     1.0  0.94792  0.17843  0.81001  1.0000
  C   C1587     1.0  0.70713  0.00623  0.94542  1.0000
  N   N89       1.0  0.75039  0.03947  0.57065  1.0000
  H   H2837     1.0  0.98065  0.18813  0.86624  1.0000
  S   S354      1.0  0.68056  0.12099  0.51956  1.0000
  C   C1588     1.0  0.71867  0.06091  0.58776  1.0000
  H   H2838     1.0  0.70235  0.08763  0.57210  1.0000
  H   H2839     1.0  0.84832  0.04367  0.71743  1.0000
  H   H2840     1.0  0.94460  0.00034  0.66224  1.0000
  C   C1589     1.0  0.92689  0.18108  0.88245  1.0000
  H   H2841     1.0  0.72366  0.05691  0.60381  1.0000
  C   C1590     1.0  0.82743  0.22382  0.51604  1.0000
  H   H2842     1.0  0.86248  0.05163  0.73836  1.0000
  H   H2843     1.0  0.92337  0.23580  0.58296  1.0000
  C   C1591     1.0  0.83172  0.02617  0.75211  1.0000
  Fe  Fe177     1.0  0.67253  0.15488  0.50752  1.0000
  C   C1592     1.0  0.95344  0.19220  0.80053  1.0000
  H   H2844     1.0  0.98140  0.18888  0.82809  1.0000
  H   H2845     1.0  0.92584  0.21359  0.87302  1.0000
  C   C1593     1.0  0.98798  0.20118  0.85704  1.0000
  H   H2846     1.0  0.85869  0.03055  0.77141  1.0000
  H   H2847     1.0  0.70601  0.04687  0.51925  1.0000
  H   H2848     1.0  0.76904  0.18826  0.97757  1.0000
  H   H2849     1.0  0.85313  0.23326  0.53442  1.0000
  H   H2850     1.0  0.93649  0.20914  0.60632  1.0000
  H   H2851     1.0  0.92297  0.18456  0.89911  1.0000
  N   N90       1.0  0.81056  0.24132  0.51740  1.0000
  H   H2852     1.0  0.96470  0.20555  0.60417  1.0000
  H   H2853     1.0  0.93281  0.21751  0.81163  1.0000
  H   H2854     1.0  0.97756  0.22500  0.56594  1.0000
  H   H2855     1.0  0.86227  0.17837  0.99731  1.0000
  C   C1594     1.0  0.69662  0.09969  0.50939  1.0000
  H   H2856     1.0  0.91818  0.23298  0.84274  1.0000
  H   H2857     1.0  0.82435  0.23525  0.55703  1.0000
  H   H2858     1.0  0.79493  0.21512  0.96781  1.0000
  H   H2859     1.0  0.94641  0.17952  0.77108  1.0000
  C   C1595     1.0  0.85921  0.20479  0.97576  1.0000
  H   H2860     1.0  0.73684  0.00302  0.78387  1.0000
  C   C1596     1.0  0.76270  0.20553  0.52530  1.0000
  C   C1597     1.0  0.96156  0.23235  0.56895  1.0000
  C   C1598     1.0  0.94207  0.19365  0.78013  1.0000
  H   H2861     1.0  0.75049  0.21727  0.53100  1.0000
  C   C1599     1.0  0.94970  0.21265  0.81263  1.0000
  C   C1600     1.0  0.97129  0.01723  0.70600  1.0000
  C   C1601     1.0  0.99141  0.20084  0.75205  1.0000
  C   C1602     1.0  0.98972  0.22000  0.76233  1.0000
  H   H2862     1.0  0.98195  0.22664  0.67944  1.0000
  S   S355      1.0  0.77695  0.99944  0.50002  1.0000
  H   H2863     1.0  0.88233  0.21669  0.51362  1.0000
  H   H2864     1.0  0.84061  0.00017  0.78818  1.0000
  H   H2865     1.0  0.70035  0.00234  0.56179  1.0000
  C   C1603     1.0  0.66669  0.01755  0.92908  1.0000
  C   C1604     1.0  0.76190  0.99921  0.75973  1.0000
  H   H2866     1.0  0.85447  0.24395  0.50827  1.0000
  H   H2867     1.0  0.79244  0.20412  0.50772  1.0000
  H   H2868     1.0  0.77363  0.22420  0.49891  1.0000
  H   H2869     1.0  0.82273  0.00856  0.50354  1.0000
  C   C1605     1.0  0.86613  0.21205  0.51168  1.0000
  H   H2870     1.0  0.67388  0.03530  0.99725  1.0000
  H   H2871     1.0  0.66586  0.03108  0.80066  1.0000
  Fe  Fe178     1.0  0.68511  0.47763  0.17331  1.0000
  S   S356      1.0  0.68086  0.45091  0.19734  1.0000
  H   H2872     1.0  0.95924  0.29258  0.03984  1.0000
  Fe  Fe179     1.0  0.68416  0.47472  0.22191  1.0000
  S   S357      1.0  0.70747  0.46459  0.24753  1.0000
  H   H2873     1.0  0.88042  0.39586  0.44684  1.0000
  C   C1606     1.0  0.89046  0.43492  0.34109  1.0000
  S   S358      1.0  0.98086  0.29086  0.16984  1.0000
  H   H2874     1.0  0.97342  0.35081  0.12303  1.0000
  Fe  Fe180     1.0  0.98693  0.29635  0.13476  1.0000
  S   S359      1.0  0.96500  0.30646  0.10817  1.0000
  N   N91       1.0  0.94354  0.35731  0.16018  1.0000
  Fe  Fe181     1.0  0.87406  0.28336  0.02806  1.0000
  S   S360      1.0  0.89416  0.26996  0.05490  1.0000
  S   S361      1.0  0.83847  0.28524  0.03124  1.0000
  S   S362      1.0  0.82046  0.46295  0.32734  1.0000
  H   H2875     1.0  0.98850  0.30887  0.05476  1.0000
  H   H2876     1.0  0.86717  0.37443  0.43846  1.0000
  C   C1607     1.0  0.99786  0.37648  0.22004  1.0000
  Fe  Fe182     1.0  0.82015  0.45617  0.36244  1.0000
  S   S363      1.0  0.82175  0.42189  0.37483  1.0000
  H   H2877     1.0  0.93762  0.34202  0.44067  1.0000
  H   H2878     1.0  0.85811  0.40477  0.34592  1.0000
  H   H2879     1.0  0.83193  0.27300  0.49202  1.0000
  S   S364      1.0  0.82069  0.32105  0.48489  1.0000
  H   H2880     1.0  0.81227  0.25859  0.45278  1.0000
  H   H2881     1.0  0.95804  0.35073  0.22320  1.0000
  H   H2882     1.0  0.84724  0.37209  0.01607  1.0000
  C   C1608     1.0  0.75350  0.26903  0.48718  1.0000
  S   S365      1.0  0.82622  0.38558  0.46968  1.0000
  C   C1609     1.0  0.73878  0.46135  0.27591  1.0000
  C   C1610     1.0  0.86253  0.31131  0.44816  1.0000
  C   C1611     1.0  0.80163  0.48072  0.25826  1.0000
  H   H2883     1.0  0.90632  0.33698  0.15617  1.0000
  H   H2884     1.0  0.93009  0.29685  0.14090  1.0000
  C   C1612     1.0  0.79656  0.48636  0.18919  1.0000
  C   C1613     1.0  0.94057  0.33731  0.14934  1.0000
  H   H2885     1.0  0.92858  0.36567  0.47238  1.0000
  H   H2886     1.0  0.90765  0.43668  0.33882  1.0000
  H   H2887     1.0  0.90223  0.30074  0.14624  1.0000
  Fe  Fe183     1.0  0.74506  0.48534  0.02470  1.0000
  S   S366      1.0  0.71665  0.47857  0.04709  1.0000
  S   S367      1.0  0.77886  0.48660  0.03171  1.0000
  H   H2888     1.0  0.90190  0.48409  0.33864  1.0000
  Fe  Fe184     1.0  0.84038  0.31504  0.01086  1.0000
  N   N92       1.0  0.89964  0.35453  0.46221  1.0000
  H   H2889     1.0  0.94005  0.32462  0.07539  1.0000
  H   H2890     1.0  0.89121  0.32356  0.47340  1.0000
  H   H2891     1.0  0.92141  0.37092  0.13821  1.0000
  C   C1614     1.0  0.82260  0.41213  0.40136  1.0000
  C   C1615     1.0  0.82043  0.39061  0.40607  1.0000
  C   C1616     1.0  0.82118  0.38218  0.42686  1.0000
  C   C1617     1.0  0.82438  0.39517  0.44319  1.0000
  C   C1618     1.0  0.82693  0.41660  0.43841  1.0000
  C   C1619     1.0  0.82589  0.42507  0.41769  1.0000
  H   H2892     1.0  0.81793  0.38043  0.39357  1.0000
  H   H2893     1.0  0.81931  0.36567  0.43021  1.0000
  H   H2894     1.0  0.82952  0.42680  0.45086  1.0000
  H   H2895     1.0  0.82769  0.44161  0.41436  1.0000
  C   C1620     1.0  0.82526  0.26066  0.48335  1.0000
  H   H2896     1.0  0.73066  0.43605  0.20703  1.0000
  H   H2897     1.0  0.79888  0.46826  0.22812  1.0000
  C   C1621     1.0  0.92643  0.37340  0.15424  1.0000
  H   H2898     1.0  0.74761  0.46353  0.22601  1.0000
  C   C1622     1.0  0.75225  0.46864  0.29043  1.0000
  H   H2899     1.0  0.80363  0.47171  0.07116  1.0000
  H   H2900     1.0  0.98739  0.39493  0.13040  1.0000
  C   C1623     1.0  0.94567  0.29569  0.09334  1.0000
  C   C1624     1.0  0.93978  0.27502  0.09647  1.0000
  C   C1625     1.0  0.92411  0.26748  0.08455  1.0000
  C   C1626     1.0  0.91407  0.28041  0.06927  1.0000
  C   C1627     1.0  0.92006  0.30106  0.06606  1.0000
  C   C1628     1.0  0.93571  0.30860  0.07800  1.0000
  H   H2901     1.0  0.94717  0.26486  0.10819  1.0000
  C   C1629     1.0  0.91193  0.41123  0.15227  1.0000
  H   H2902     1.0  0.91256  0.31126  0.05445  1.0000
  C   C1630     1.0  0.98974  0.37892  0.12441  1.0000
  H   H2903     1.0  0.90406  0.40834  0.13776  1.0000
  H   H2904     1.0  0.77853  0.46159  0.24726  1.0000
  H   H2905     1.0  0.76494  0.27546  0.47590  1.0000
  H   H2906     1.0  0.77088  0.45773  0.21091  1.0000
  C   C1631     1.0  0.72387  0.47492  0.26602  1.0000
  H   H2907     1.0  0.95946  0.37845  0.19401  1.0000
  H   H2908     1.0  0.86983  0.36880  0.47384  1.0000
  C   C1632     1.0  0.94295  0.48427  0.30152  1.0000
  Fe  Fe185     1.0  0.99431  0.48192  0.27136  1.0000
  H   H2909     1.0  0.86948  0.34094  0.43385  1.0000
  C   C1633     1.0  0.71232  0.47891  0.11957  1.0000
  H   H2910     1.0  0.89060  0.44475  0.39445  1.0000
  H   H2911     1.0  0.86187  0.30293  0.46378  1.0000
  C   C1634     1.0  0.71540  0.47925  0.07498  1.0000
  C   C1635     1.0  0.69620  0.47609  0.08632  1.0000
  C   C1636     1.0  0.69461  0.47602  0.10846  1.0000
  H   H2912     1.0  0.76349  0.45787  0.29783  1.0000
  H   H2913     1.0  0.74080  0.49562  0.35479  1.0000
  H   H2914     1.0  0.82933  0.45907  0.07340  1.0000
  H   H2915     1.0  0.67979  0.47340  0.11692  1.0000
  C   C1637     1.0  0.95927  0.33737  0.46520  1.0000
  H   H2916     1.0  0.74182  0.41808  0.01652  1.0000
  C   C1638     1.0  0.81231  0.41383  0.00725  1.0000
  H   H2917     1.0  0.91993  0.34303  0.48668  1.0000
  N   N93       1.0  0.88355  0.41862  0.32704  1.0000
  C   C1639     1.0  0.88726  0.42690  0.30469  1.0000
  C   C1640     1.0  0.86041  0.41586  0.33212  1.0000
  C   C1641     1.0  0.89624  0.39847  0.33154  1.0000
  C   C1642     1.0  0.89385  0.38042  0.31682  1.0000
  C   C1643     1.0  0.91038  0.43054  0.29734  1.0000
  C   C1644     1.0  0.84729  0.40898  0.31424  1.0000
  C   C1645     1.0  0.82561  0.40251  0.32254  1.0000
  C   C1646     1.0  0.90995  0.36237  0.32103  1.0000
  C   C1647     1.0  0.91243  0.43601  0.27381  1.0000
  H   H2918     1.0  0.87802  0.44205  0.30227  1.0000
  H   H2919     1.0  0.88136  0.41640  0.29342  1.0000
  H   H2920     1.0  0.85243  0.43087  0.33708  1.0000
  H   H2921     1.0  0.91319  0.40148  0.33175  1.0000
  H   H2922     1.0  0.89198  0.39198  0.34755  1.0000
  H   H2923     1.0  0.89616  0.38546  0.30008  1.0000
  H   H2924     1.0  0.87813  0.37408  0.31976  1.0000
  H   H2925     1.0  0.91628  0.44370  0.30546  1.0000
  H   H2926     1.0  0.92077  0.41641  0.30033  1.0000
  H   H2927     1.0  0.84497  0.42228  0.30263  1.0000
  H   H2928     1.0  0.85499  0.39571  0.30585  1.0000
  H   H2929     1.0  0.81657  0.41585  0.32982  1.0000
  H   H2930     1.0  0.81675  0.39750  0.30943  1.0000
  H   H2931     1.0  0.82696  0.38930  0.33437  1.0000
  H   H2932     1.0  0.90814  0.35629  0.33756  1.0000
  H   H2933     1.0  0.90761  0.34940  0.31064  1.0000
  H   H2934     1.0  0.92614  0.36757  0.31775  1.0000
  H   H2935     1.0  0.90878  0.42245  0.26477  1.0000
  H   H2936     1.0  0.90164  0.44958  0.26967  1.0000
  H   H2937     1.0  0.92874  0.44022  0.26928  1.0000
  N   N94       1.0  0.77001  0.41724  0.07362  1.0000
  C   C1648     1.0  0.78334  0.39814  0.08034  1.0000
  C   C1649     1.0  0.75549  0.42373  0.09194  1.0000
  C   C1650     1.0  0.75647  0.41086  0.05671  1.0000
  C   C1651     1.0  0.78281  0.43520  0.06501  1.0000
  C   C1652     1.0  0.80417  0.43763  0.07466  1.0000
  C   C1653     1.0  0.79633  0.38700  0.06246  1.0000
  C   C1654     1.0  0.74011  0.42777  0.04876  1.0000
  C   C1655     1.0  0.76579  0.43064  0.11159  1.0000
  C   C1656     1.0  0.74998  0.43137  0.13048  1.0000
  C   C1657     1.0  0.81392  0.45792  0.06659  1.0000
  C   C1658     1.0  0.81348  0.37191  0.07098  1.0000
  C   C1659     1.0  0.72984  0.42080  0.02951  1.0000
  H   H2938     1.0  0.77329  0.38622  0.08845  1.0000
  H   H2939     1.0  0.79437  0.40190  0.09211  1.0000
  H   H2940     1.0  0.74494  0.43738  0.08738  1.0000
  H   H2941     1.0  0.74501  0.41083  0.09683  1.0000
  H   H2942     1.0  0.74788  0.39674  0.06210  1.0000
  H   H2943     1.0  0.76641  0.40632  0.04263  1.0000
  H   H2944     1.0  0.78652  0.43395  0.04783  1.0000
  H   H2945     1.0  0.77338  0.45029  0.06648  1.0000
  H   H2946     1.0  0.81548  0.42457  0.07030  1.0000
  H   H2947     1.0  0.80267  0.43775  0.09194  1.0000
  H   H2948     1.0  0.78598  0.37765  0.05370  1.0000
  H   H2949     1.0  0.80379  0.39845  0.05125  1.0000
  H   H2950     1.0  0.74758  0.44268  0.04438  1.0000
  H   H2951     1.0  0.72730  0.43073  0.06090  1.0000
  H   H2952     1.0  0.77906  0.41997  0.11626  1.0000
  H   H2953     1.0  0.77141  0.44666  0.10850  1.0000
  H   H2954     1.0  0.73539  0.44047  0.12647  1.0000
  H   H2955     1.0  0.74589  0.41530  0.13588  1.0000
  H   H2956     1.0  0.75678  0.43893  0.14357  1.0000
  H   H2957     1.0  0.96837  0.37904  0.16064  1.0000
  H   H2958     1.0  0.81646  0.45821  0.04925  1.0000
  C   C1660     1.0  0.73690  0.49846  0.37160  1.0000
  H   H2959     1.0  0.82503  0.38055  0.07893  1.0000
  H   H2960     1.0  0.80656  0.36001  0.08213  1.0000
  H   H2961     1.0  0.82188  0.36362  0.05784  1.0000
  H   H2962     1.0  0.97814  0.30069  0.01953  1.0000
  H   H2963     1.0  0.96494  0.35344  0.46330  1.0000
  H   H2964     1.0  0.93301  0.32013  0.45899  1.0000
  H   H2965     1.0  0.97726  0.35268  0.16004  1.0000
  H   H2966     1.0  0.71827  0.43325  0.02424  1.0000
  C   C1661     1.0  0.90924  0.48879  0.28565  1.0000
  H   H2967     1.0  0.99559  0.40542  0.23643  1.0000
  H   H2968     1.0  0.99304  0.36707  0.23379  1.0000
  H   H2969     1.0  0.92995  0.35575  0.22613  1.0000
  C   C1662     1.0  0.73306  0.48232  0.08609  1.0000
  C   C1663     1.0  0.90144  0.36773  0.44196  1.0000
  H   H2970     1.0  0.90048  0.49097  0.27171  1.0000
  H   H2971     1.0  0.94044  0.34041  0.13207  1.0000
  S   S368      1.0  0.87579  0.31438  0.00985  1.0000
  H   H2972     1.0  0.86847  0.43166  0.36888  1.0000
  H   H2973     1.0  0.85727  0.34199  0.46009  1.0000
  C   C1664     1.0  0.73966  0.44099  0.19240  1.0000
  C   C1665     1.0  0.80655  0.25107  0.49597  1.0000
  H   H2974     1.0  0.72155  0.40621  0.03332  1.0000
  H   H2975     1.0  0.76199  0.49552  0.24664  1.0000
  C   C1666     1.0  0.83251  0.38048  0.01304  1.0000
  S   S369      1.0  0.84545  0.47806  0.36731  1.0000
  H   H2976     1.0  0.92154  0.31815  0.17177  1.0000
  H   H2977     1.0  0.74867  0.48977  0.38125  1.0000
  C   C1667     1.0  0.88410  0.39130  0.41392  1.0000
  C   C1668     1.0  0.94501  0.36268  0.22091  1.0000
  H   H2978     1.0  0.95410  0.32587  0.15176  1.0000
  H   H2979     1.0  0.95701  0.37428  0.12141  1.0000
  S   S370      1.0  0.71183  0.47741  0.14753  1.0000
  C   C1669     1.0  0.78822  0.47453  0.24081  1.0000
  S   S371      1.0  0.81482  0.34159  0.01523  1.0000
  S   S372      1.0  0.97089  0.48179  0.30000  1.0000
  H   H2980     1.0  0.90542  0.35749  0.42855  1.0000
  H   H2981     1.0  0.94291  0.27627  0.99862  1.0000
  H   H2982     1.0  0.91260  0.44600  0.37549  1.0000
  C   C1670     1.0  0.91671  0.30872  0.14103  1.0000
  S   S373      1.0  0.79355  0.48006  0.36834  1.0000
  C   C1671     1.0  0.81838  0.27055  0.46246  1.0000
  S   S374      1.0  0.81205  0.44164  0.00458  1.0000
  C   C1672     1.0  0.81450  0.36937  0.01173  1.0000
  C   C1673     1.0  0.92029  0.32590  0.15596  1.0000
  H   H2983     1.0  0.73013  0.43836  0.17891  1.0000
  H   H2984     1.0  0.75454  0.43125  0.19081  1.0000
  C   C1674     1.0  0.97547  0.28956  0.03312  1.0000
  C   C1675     1.0  0.89522  0.44727  0.37755  1.0000
  H   H2985     1.0  0.89849  0.40018  0.41128  1.0000
  H   H2986     1.0  0.91491  0.31541  0.12486  1.0000
  H   H2987     1.0  0.73990  0.44497  0.27235  1.0000
  H   H2988     1.0  0.87031  0.40212  0.41079  1.0000
  H   H2989     1.0  0.79385  0.26357  0.49739  1.0000
  H   H2990     1.0  0.72133  0.49223  0.37599  1.0000
  H   H2991     1.0  0.88292  0.45055  0.33676  1.0000
  H   H2992     1.0  0.90086  0.40870  0.16609  1.0000
  H   H2993     1.0  0.88368  0.35401  0.49288  1.0000
  H   H2994     1.0  0.87363  0.30247  0.43739  1.0000
  H   H2995     1.0  0.84671  0.31181  0.44186  1.0000
  H   H2996     1.0  0.78133  0.37223  0.00724  1.0000
  H   H2997     1.0  0.94255  0.40078  0.14054  1.0000
  C   C1676     1.0  0.86927  0.33363  0.44991  1.0000
  H   H2998     1.0  0.91480  0.37813  0.44195  1.0000
  C   C1677     1.0  0.75683  0.46864  0.21155  1.0000
  H   H2999     1.0  0.92691  0.34604  0.18869  1.0000
  H   H3000     1.0  0.88454  0.37853  0.40275  1.0000
  H   H3001     1.0  0.90168  0.32492  0.44698  1.0000
  C   C1678     1.0  0.89130  0.33350  0.45859  1.0000
  H   H3002     1.0  0.91212  0.37124  0.16473  1.0000
  H   H3003     1.0  0.80597  0.28315  0.46507  1.0000
  C   C1679     1.0  0.73152  0.48207  0.10820  1.0000
  H   H3004     1.0  0.94089  0.48115  0.33527  1.0000
  H   H3005     1.0  0.91622  0.42782  0.15160  1.0000
  H   H3006     1.0  0.75252  0.46849  0.17754  1.0000
  C   C1680     1.0  0.97029  0.36648  0.12961  1.0000
  S   S375      1.0  0.87043  0.48830  0.30659  1.0000
  H   H3007     1.0  0.67927  0.46675  0.00946  1.0000
  C   C1681     1.0  0.94477  0.37046  0.19795  1.0000
  H   H3008     1.0  0.97692  0.27326  0.02782  1.0000
  H   H3009     1.0  0.93930  0.40079  0.16833  1.0000
  Fe  Fe186     1.0  0.84433  0.48636  0.33272  1.0000
  C   C1682     1.0  0.88563  0.43091  0.36500  1.0000
  H   H3010     1.0  0.88960  0.46331  0.37244  1.0000
  C   C1683     1.0  0.93167  0.39683  0.15411  1.0000
  H   H3011     1.0  0.89218  0.41542  0.37059  1.0000
  C   C1684     1.0  0.88205  0.38240  0.43649  1.0000
  C   C1685     1.0  0.93718  0.33676  0.45746  1.0000
  Fe  Fe187     1.0  0.79568  0.48854  0.33358  1.0000
  C   C1686     1.0  0.88588  0.36503  0.47902  1.0000
  C   C1687     1.0  0.96524  0.36413  0.15364  1.0000
  C   C1688     1.0  0.92118  0.35059  0.47063  1.0000
  H   H3012     1.0  0.68244  0.47363  0.07794  1.0000
  H   H3013     1.0  0.79619  0.49120  0.15521  1.0000
  H   H3014     1.0  0.93943  0.48809  0.26835  1.0000
  H   H3015     1.0  0.94734  0.37599  0.23085  1.0000
  C   C1689     1.0  0.89433  0.38521  0.48717  1.0000
  H   H3016     1.0  0.84546  0.41095  0.01182  1.0000
  H   H3017     1.0  0.95433  0.33944  0.18736  1.0000
  C   C1690     1.0  0.94234  0.35218  0.18350  1.0000
  H   H3018     1.0  0.97020  0.32673  0.45602  1.0000
  C   C1691     1.0  0.74401  0.46417  0.19260  1.0000
  C   C1692     1.0  0.72271  0.49605  0.27098  1.0000
  S   S376      1.0  0.98846  0.48979  0.23729  1.0000
  H   H3019     1.0  0.93120  0.38194  0.19682  1.0000
  C   C1693     1.0  0.89837  0.48744  0.30542  1.0000
  H   H3020     1.0  0.95949  0.33196  0.48196  1.0000
  C   C1694     1.0  0.74173  0.25222  0.48179  1.0000
  H   H3021     1.0  0.73070  0.49727  0.22567  1.0000
  H   H3022     1.0  0.90164  0.39497  0.47426  1.0000
  H   H3023     1.0  0.83199  0.27740  0.45364  1.0000
  H   H3024     1.0  0.72955  0.35805  0.48910  1.0000
  C   C1695     1.0  0.79539  0.38066  0.00819  1.0000
  H   H3025     1.0  0.81096  0.46680  0.26426  1.0000
  C   C1696     1.0  0.93209  0.48320  0.32134  1.0000
  C   C1697     1.0  0.75099  0.48972  0.29551  1.0000
  H   H3026     1.0  0.72856  0.47290  0.19338  1.0000
  C   C1698     1.0  0.79429  0.40274  0.00589  1.0000
  Fe  Fe188     1.0  0.82022  0.35582  0.49007  1.0000
  H   H3027     1.0  0.99286  0.38026  0.10716  1.0000
  H   H3028     1.0  0.84109  0.25934  0.07384  1.0000
  H   H3029     1.0  0.98691  0.28217  0.06346  1.0000
  H   H3030     1.0  0.80780  0.48898  0.20120  1.0000
  H   H3031     1.0  0.74792  0.48486  0.07765  1.0000
  C   C1699     1.0  0.90995  0.48483  0.32331  1.0000
  Fe  Fe189     1.0  0.78584  0.46767  0.00307  1.0000
  H   H3032     1.0  0.91966  0.25151  0.08726  1.0000
  H   H3033     1.0  0.79451  0.46939  0.18832  1.0000
  H   H3034     1.0  0.74533  0.48430  0.11659  1.0000
  Fe  Fe190     1.0  0.83947  0.26785  0.00139  1.0000
  H   H3035     1.0  0.77955  0.41116  0.00300  1.0000
  C   C1700     1.0  0.99106  0.29254  0.04972  1.0000
  C   C1701     1.0  0.83141  0.40254  0.01072  1.0000
  H   H3036     1.0  0.86457  0.40366  0.48754  1.0000
  S   S377      1.0  0.99811  0.33957  0.19954  1.0000
  H   H3037     1.0  0.68222  0.43029  0.00097  1.0000
  C   C1702     1.0  0.93136  0.48714  0.28368  1.0000
  C   C1703     1.0  0.80650  0.49394  0.16805  1.0000
  C   C1704     1.0  0.77366  0.49327  0.23320  1.0000
  N   N95       1.0  0.76257  0.49101  0.21325  1.0000
  H   H3038     1.0  0.82179  0.48521  0.16494  1.0000
  H   H3039     1.0  0.79160  0.48702  0.27152  1.0000
  H   H3040     1.0  0.81259  0.49275  0.25229  1.0000
  S   S378      1.0  0.87500  0.26410  0.99918  1.0000
  C   C1705     1.0  0.66670  0.43889  0.00039  1.0000
  Fe  Fe191     1.0  0.98703  0.27507  0.86678  1.0000
  C   C1706     1.0  0.92121  0.27218  0.94014  1.0000
  H   H3041     1.0  0.86756  0.43566  0.66375  1.0000
  S   S379      1.0  0.70212  0.46586  0.86658  1.0000
  S   S380      1.0  0.68665  0.46097  0.81020  1.0000
  C   C1707     1.0  0.78347  0.43520  0.84220  1.0000
  C   C1708     1.0  0.73543  0.47024  0.72215  1.0000
  S   S381      1.0  0.83975  0.29770  0.98122  1.0000
  Fe  Fe192     1.0  0.87495  0.29514  0.98119  1.0000
  S   S382      1.0  0.89331  0.30558  0.95092  1.0000
  H   H3042     1.0  0.78436  0.41967  0.83510  1.0000
  C   C1709     1.0  0.91075  0.39998  0.61580  1.0000
  S   S383      1.0  0.97779  0.28681  0.83478  1.0000
  C   C1710     1.0  0.79565  0.48220  0.54580  1.0000
  C   C1711     1.0  0.89302  0.36084  0.97752  1.0000
  Fe  Fe193     1.0  0.83024  0.46246  0.64041  1.0000
  H   H3043     1.0  0.78570  0.47458  0.53510  1.0000
  S   S384      1.0  0.84400  0.43884  0.61661  1.0000
  Fe  Fe194     1.0  0.84637  0.48366  0.67871  1.0000
  S   S385      1.0  0.86989  0.47775  0.70448  1.0000
  Fe  Fe195     1.0  0.79876  0.48232  0.67361  1.0000
  C   C1712     1.0  0.72235  0.34529  0.58174  1.0000
  S   S386      1.0  0.82508  0.45735  0.67528  1.0000
  S   S387      1.0  0.85316  0.48721  0.64405  1.0000
  Fe  Fe196     1.0  0.81499  0.34988  0.53775  1.0000
  S   S388      1.0  0.80540  0.36588  0.56846  1.0000
  S   S389      1.0  0.81583  0.31483  0.53609  1.0000
  H   H3044     1.0  0.95577  0.30291  0.94646  1.0000
  H   H3045     1.0  0.93803  0.27299  0.85503  1.0000
  H   H3046     1.0  0.71110  0.36130  0.54570  1.0000
  H   H3047     1.0  0.89742  0.32224  0.51881  1.0000
  H   H3048     1.0  0.76674  0.40029  0.57579  1.0000
  H   H3049     1.0  0.92500  0.25437  0.87267  1.0000
  C   C1713     1.0  0.94221  0.42548  0.68753  1.0000
  S   S390      1.0  0.96805  0.28850  0.50809  1.0000
  C   C1714     1.0  0.87668  0.35648  0.96206  1.0000
  H   H3050     1.0  0.72900  0.41434  0.95546  1.0000
  C   C1715     1.0  0.83266  0.41894  0.60321  1.0000
  C   C1716     1.0  0.84365  0.41066  0.58548  1.0000
  C   C1717     1.0  0.83544  0.39472  0.57441  1.0000
  C   C1718     1.0  0.81628  0.38654  0.58123  1.0000
  C   C1719     1.0  0.80536  0.39473  0.59905  1.0000
  C   C1720     1.0  0.81339  0.41092  0.60989  1.0000
  H   H3051     1.0  0.85866  0.41658  0.58027  1.0000
  H   H3052     1.0  0.84414  0.38848  0.56089  1.0000
  H   H3053     1.0  0.79068  0.38836  0.60470  1.0000
  H   H3054     1.0  0.80487  0.41689  0.62365  1.0000
  C   C1721     1.0  0.89663  0.48344  0.70657  1.0000
  H   H3055     1.0  0.79217  0.48238  0.73445  1.0000
  H   H3056     1.0  0.73132  0.34656  0.59596  1.0000
  H   H3057     1.0  0.72904  0.42436  0.98126  1.0000
  C   C1722     1.0  0.92908  0.47730  0.72520  1.0000
  C   C1723     1.0  0.90767  0.47393  0.72323  1.0000
  H   H3058     1.0  0.89515  0.26155  0.57200  1.0000
  S   S391      1.0  0.84335  0.35238  0.51553  1.0000
  H   H3059     1.0  0.93735  0.46971  0.73799  1.0000
  H   H3060     1.0  0.89966  0.46371  0.73461  1.0000
  C   C1724     1.0  0.91284  0.29225  0.93478  1.0000
  C   C1725     1.0  0.92061  0.30254  0.91623  1.0000
  C   C1726     1.0  0.93665  0.29300  0.90327  1.0000
  C   C1727     1.0  0.94535  0.27315  0.90887  1.0000
  H   H3061     1.0  0.91417  0.31800  0.91184  1.0000
  H   H3062     1.0  0.94235  0.30102  0.88897  1.0000
  C   C1728     1.0  0.73501  0.26892  0.52112  1.0000
  H   H3063     1.0  0.76713  0.40107  0.54753  1.0000
  C   C1729     1.0  0.99702  0.27920  0.93961  1.0000
  C   C1730     1.0  0.86016  0.37494  0.96028  1.0000
  C   C1731     1.0  0.96339  0.43198  0.69409  1.0000
  H   H3064     1.0  0.85805  0.43043  0.70184  1.0000
  Fe  Fe197     1.0  0.84234  0.31771  0.51160  1.0000
  C   C1732     1.0  0.93974  0.49030  0.71050  1.0000
  H   H3065     1.0  0.68529  0.31325  0.60723  1.0000
  H   H3066     1.0  0.71865  0.31120  0.58623  1.0000
  H   H3067     1.0  0.71128  0.43401  0.77291  1.0000
  H   H3068     1.0  0.74982  0.43512  0.76517  1.0000
  H   H3069     1.0  0.97929  0.33897  0.88840  1.0000
  C   C1733     1.0  0.71182  0.47724  0.88879  1.0000
  C   C1734     1.0  0.75686  0.40232  0.56210  1.0000
  Fe  Fe198     1.0  0.99373  0.48442  0.73299  1.0000
  C   C1735     1.0  0.96538  0.28465  0.97317  1.0000
  C   C1736     1.0  0.73321  0.47307  0.91959  1.0000
  C   C1737     1.0  0.72535  0.46497  0.90164  1.0000
  H   H3070     1.0  0.84748  0.48354  0.55314  1.0000
  H   H3071     1.0  0.77603  0.32911  0.58052  1.0000
  H   H3072     1.0  0.74375  0.46350  0.92908  1.0000
  H   H3073     1.0  0.72982  0.44906  0.89763  1.0000
  Fe  Fe199     1.0  0.79406  0.31920  0.50973  1.0000
  H   H3074     1.0  0.83118  0.25970  0.58321  1.0000
  C   C1738     1.0  0.72186  0.47689  0.73914  1.0000
  S   S392      1.0  0.76590  0.29775  0.51538  1.0000
  H   H3075     1.0  0.73346  0.45524  0.71568  1.0000
  H   H3076     1.0  0.77776  0.43314  0.85887  1.0000
  H   H3077     1.0  0.97440  0.43435  0.68020  1.0000
  S   S393      1.0  0.99383  0.47509  0.76746  1.0000
  H   H3078     1.0  0.71286  0.33975  0.50305  1.0000
  H   H3079     1.0  0.94624  0.26321  0.56185  1.0000
  H   H3080     1.0  0.83715  0.43445  0.50841  1.0000
  H   H3081     1.0  0.93011  0.25163  0.82467  1.0000
  C   C1739     1.0  0.80255  0.48067  0.74777  1.0000
  H   H3082     1.0  0.96284  0.27006  0.96518  1.0000
  C   C1740     1.0  0.75116  0.36343  0.56326  1.0000
  C   C1741     1.0  0.76837  0.45044  0.83069  1.0000
  H   H3083     1.0  0.72454  0.40846  0.77425  1.0000
  H   H3084     1.0  0.96751  0.31769  0.96487  1.0000
  H   H3085     1.0  0.84535  0.26773  0.55924  1.0000
  C   C1742     1.0  0.96102  0.25418  0.55751  1.0000
  H   H3086     1.0  0.93641  0.32048  0.51822  1.0000
  H   H3087     1.0  0.78118  0.43900  0.80096  1.0000
  H   H3088     1.0  0.80108  0.48185  0.78122  1.0000
  H   H3089     1.0  0.89556  0.47890  0.61468  1.0000
  C   C1743     1.0  0.78995  0.48372  0.76859  1.0000
  H   H3090     1.0  0.86991  0.38967  0.51208  1.0000
  H   H3091     1.0  0.81078  0.46493  0.74768  1.0000
  H   H3092     1.0  0.77786  0.44977  0.56185  1.0000
  H   H3093     1.0  0.81127  0.31639  0.94605  1.0000
  H   H3094     1.0  0.88523  0.35421  0.94669  1.0000
  C   C1744     1.0  0.86111  0.41686  0.69170  1.0000
  H   H3095     1.0  0.92760  0.39904  0.61044  1.0000
  H   H3096     1.0  0.79884  0.43601  0.57438  1.0000
  H   H3097     1.0  0.78196  0.29508  0.56200  1.0000
  C   C1745     1.0  0.90625  0.30813  0.51423  1.0000
  H   H3098     1.0  0.97881  0.28213  0.55489  1.0000
  H   H3099     1.0  0.77020  0.49475  0.80694  1.0000
  C   C1746     1.0  0.89564  0.29080  0.50901  1.0000
  H   H3100     1.0  0.80100  0.44743  0.51971  1.0000
  H   H3101     1.0  0.71595  0.42101  0.79810  1.0000
  N   N96       1.0  0.76129  0.46646  0.79340  1.0000
  C   C1747     1.0  0.74135  0.45535  0.79163  1.0000
  C   C1748     1.0  0.77214  0.46814  0.77174  1.0000
  C   C1749     1.0  0.70484  0.43875  0.96189  1.0000
  H   H3102     1.0  0.79993  0.32554  0.97083  1.0000
  C   C1750     1.0  0.70877  0.32597  0.58504  1.0000
  C   C1751     1.0  0.77616  0.45435  0.80755  1.0000
  H   H3103     1.0  0.71124  0.35932  0.58168  1.0000
  C   C1752     1.0  0.70177  0.45994  0.97283  1.0000
  H   H3104     1.0  0.73037  0.46536  0.78207  1.0000
  H   H3105     1.0  0.73286  0.45311  0.80710  1.0000
  H   H3106     1.0  0.93173  0.29227  0.97779  1.0000
  C   C1753     1.0  0.72255  0.42374  0.78180  1.0000
  N   N97       1.0  0.73675  0.34576  0.56221  1.0000
  S   S394      1.0  0.80260  0.48581  0.63794  1.0000
  C   C1754     1.0  0.90724  0.49667  0.69203  1.0000
  Fe  Fe200     1.0  0.68289  0.49245  0.79350  1.0000
  C   C1755     1.0  0.70629  0.49782  0.89418  1.0000
  C   C1756     1.0  0.82026  0.47585  0.57460  1.0000
  H   H3107     1.0  0.69839  0.32498  0.57190  1.0000
  S   S395      1.0  0.86776  0.29097  0.50965  1.0000
  H   H3108     1.0  0.75277  0.44370  0.83219  1.0000
  H   H3109     1.0  0.86897  0.38849  0.95380  1.0000
  H   H3110     1.0  0.97543  0.30311  0.91363  1.0000
  H   H3111     1.0  0.82891  0.46337  0.58376  1.0000
  H   H3112     1.0  0.73233  0.27516  0.53650  1.0000
  H   H3113     1.0  0.76348  0.36284  0.55025  1.0000
  H   H3114     1.0  0.90714  0.38586  0.62585  1.0000
  H   H3115     1.0  0.66807  0.44616  0.91848  1.0000
  C   C1757     1.0  0.82124  0.45239  0.54564  1.0000
  H   H3116     1.0  0.96417  0.35974  0.90124  1.0000
  C   C1758     1.0  0.75142  0.48280  0.71340  1.0000
  H   H3117     1.0  0.85459  0.37887  0.97646  1.0000
  C   C1759     1.0  0.81044  0.43802  0.53111  1.0000
  C   C1760     1.0  0.82667  0.42451  0.51855  1.0000
  H   H3118     1.0  0.89419  0.44031  0.69208  1.0000
  H   H3119     1.0  0.73063  0.38896  0.54965  1.0000
  H   H3120     1.0  0.84590  0.41230  0.68635  1.0000
  C   C1761     1.0  0.72754  0.49360  0.92507  1.0000
  H   H3121     1.0  0.70965  0.46702  0.74551  1.0000
  N   N98       1.0  0.91236  0.43701  0.66278  1.0000
  N   N99       1.0  0.98986  0.30168  0.94337  1.0000
  H   H3122     1.0  0.83186  0.44210  0.55536  1.0000
  H   H3123     1.0  0.83162  0.46213  0.53513  1.0000
  H   H3124     1.0  0.89585  0.46733  0.66485  1.0000
  H   H3125     1.0  0.82114  0.28166  0.56764  1.0000
  C   C1762     1.0  0.94019  0.28877  0.50829  1.0000
  H   H3126     1.0  0.88834  0.42038  0.63198  1.0000
  C   C1763     1.0  0.73548  0.35309  0.52202  1.0000
  H   H3127     1.0  0.80003  0.42718  0.54018  1.0000
  H   H3128     1.0  0.70452  0.32767  0.61902  1.0000
  H   H3129     1.0  0.86816  0.40347  0.70103  1.0000
  H   H3130     1.0  0.69348  0.42728  0.96802  1.0000
  C   C1764     1.0  0.87561  0.42268  0.67270  1.0000
  H   H3131     1.0  0.70885  0.45801  0.98831  1.0000
  H   H3132     1.0  0.87764  0.40869  0.66308  1.0000
  H   H3133     1.0  0.92762  0.45646  0.68336  1.0000
  H   H3134     1.0  0.73750  0.47942  0.83031  1.0000
  H   H3135     1.0  0.97680  0.27011  0.58096  1.0000
  H   H3136     1.0  0.90477  0.34740  0.97828  1.0000
  C   C1765     1.0  0.72394  0.49637  0.74759  1.0000
  N   N100      1.0  0.84158  0.37187  0.94750  1.0000
  C   C1766     1.0  0.83049  0.35289  0.95621  1.0000
  H   H3137     1.0  0.70287  0.44121  0.94482  1.0000
  C   C1767     1.0  0.82650  0.39074  0.95028  1.0000
  C   C1768     1.0  0.84831  0.37053  0.92450  1.0000
  C   C1769     1.0  0.85451  0.34837  0.91645  1.0000
  C   C1770     1.0  0.80850  0.35036  0.94796  1.0000
  C   C1771     1.0  0.83578  0.41245  0.94571  1.0000
  H   H3138     1.0  0.86945  0.34184  0.96779  1.0000
  C   C1772     1.0  0.74048  0.38578  0.56322  1.0000
  C   C1773     1.0  0.86528  0.34966  0.89450  1.0000
  C   C1774     1.0  0.80072  0.32858  0.95356  1.0000
  C   C1775     1.0  0.81844  0.42987  0.94483  1.0000
  H   H3139     1.0  0.82839  0.35331  0.97354  1.0000
  H   H3140     1.0  0.84008  0.33821  0.95350  1.0000
  H   H3141     1.0  0.75995  0.36154  0.57778  1.0000
  C   C1776     1.0  0.75046  0.27738  0.50703  1.0000
  H   H3142     1.0  0.81939  0.39067  0.96663  1.0000
  H   H3143     1.0  0.81318  0.39011  0.93997  1.0000
  H   H3144     1.0  0.83559  0.37699  0.91451  1.0000
  H   H3145     1.0  0.86165  0.38067  0.92043  1.0000
  H   H3146     1.0  0.84033  0.33933  0.91561  1.0000
  H   H3147     1.0  0.86520  0.33915  0.92673  1.0000
  H   H3148     1.0  0.79692  0.36181  0.95527  1.0000
  H   H3149     1.0  0.80867  0.35309  0.93071  1.0000
  H   H3150     1.0  0.84519  0.41293  0.93057  1.0000
  H   H3151     1.0  0.94478  0.41063  0.67929  1.0000
  C   C1777     1.0  0.90536  0.41980  0.62778  1.0000
  C   C1778     1.0  0.72302  0.25228  0.51561  1.0000
  H   H3152     1.0  0.74738  0.34035  0.51847  1.0000
  H   H3153     1.0  0.83623  0.41423  0.52921  1.0000
  H   H3154     1.0  0.74030  0.31258  0.55652  1.0000
  H   H3155     1.0  0.86900  0.33360  0.88903  1.0000
  H   H3156     1.0  0.85489  0.35820  0.88329  1.0000
  H   H3157     1.0  0.88020  0.35768  0.89468  1.0000
  H   H3158     1.0  0.78476  0.32750  0.94794  1.0000
  C   C1779     1.0  0.89188  0.25038  0.56002  1.0000
  H   H3159     1.0  0.68399  0.34141  0.60462  1.0000
  H   H3160     1.0  0.80850  0.42799  0.93148  1.0000
  H   H3161     1.0  0.80844  0.42973  0.95964  1.0000
  H   H3162     1.0  0.82552  0.44532  0.94276  1.0000
  H   H3163     1.0  0.68911  0.47273  0.93305  1.0000
  H   H3164     1.0  0.76171  0.32708  0.54686  1.0000
  C   C1780     1.0  0.93156  0.44284  0.67341  1.0000
  C   C1781     1.0  0.91809  0.46973  0.63821  1.0000
  H   H3165     1.0  0.74346  0.36802  0.52182  1.0000
  C   C1782     1.0  0.72351  0.34859  0.54342  1.0000
  H   H3166     1.0  0.90127  0.37516  0.97241  1.0000
  H   H3167     1.0  0.90383  0.41425  0.68757  1.0000
  H   H3168     1.0  0.94388  0.44801  0.66159  1.0000
  H   H3169     1.0  0.93517  0.42244  0.64070  1.0000
  H   H3170     1.0  0.92846  0.47812  0.64788  1.0000
  H   H3171     1.0  0.92812  0.45949  0.62779  1.0000
  C   C1783     1.0  0.82947  0.26603  0.56691  1.0000
  H   H3172     1.0  0.75998  0.28500  0.57751  1.0000
  H   H3173     1.0  0.90120  0.40020  0.60185  1.0000
  C   C1784     1.0  0.76464  0.44540  0.60182  1.0000
  C   C1785     1.0  0.74372  0.43365  0.78175  1.0000
  C   C1786     1.0  0.76298  0.31858  0.57938  1.0000
  H   H3174     1.0  0.93236  0.42264  0.70218  1.0000
  H   H3175     1.0  0.78289  0.29208  0.59009  1.0000
  H   H3176     1.0  0.73046  0.38791  0.57780  1.0000
  C   C1787     1.0  0.77253  0.29632  0.57706  1.0000
  C   C1788     1.0  0.93739  0.26273  0.92726  1.0000
  H   H3177     1.0  0.79938  0.44135  0.84165  1.0000
  H   H3178     1.0  0.75438  0.42273  0.79059  1.0000
  H   H3179     1.0  0.88925  0.45353  0.64351  1.0000
  H   H3180     1.0  0.91923  0.40469  0.65524  1.0000
  H   H3181     1.0  0.98477  0.27151  0.93158  1.0000
  H   H3182     1.0  0.84591  0.41601  0.95844  1.0000
  C   C1789     1.0  0.72682  0.42872  0.96453  1.0000
  S   S396      1.0  0.76788  0.47350  0.69172  1.0000
  C   C1790     1.0  0.92585  0.26129  0.85641  1.0000
  H   H3183     1.0  0.88413  0.25934  0.54705  1.0000
  H   H3184     1.0  0.77899  0.45256  0.76708  1.0000
  H   H3185     1.0  0.96364  0.33759  0.93478  1.0000
  C   C1791     1.0  0.89710  0.42871  0.67966  1.0000
  Fe  Fe201     1.0  0.75439  0.49443  0.97723  1.0000
  H   H3186     1.0  0.96145  0.44671  0.70266  1.0000
  C   C1792     1.0  0.92957  0.27145  0.50303  1.0000
  Fe  Fe202     1.0  0.68059  0.47774  0.84036  1.0000
  H   H3187     1.0  0.80359  0.27143  0.53078  1.0000
  C   C1793     1.0  0.91881  0.42050  0.64718  1.0000
  H   H3188     1.0  0.75340  0.31865  0.59436  1.0000
  H   H3189     1.0  0.71205  0.47077  0.96350  1.0000
  C   C1794     1.0  0.75001  0.32563  0.56031  1.0000
  C   C1795     1.0  0.92836  0.30707  0.51393  1.0000
  C   C1796     1.0  0.90277  0.45679  0.65265  1.0000
  H   H3190     1.0  0.97041  0.41958  0.70467  1.0000
  H   H3191     1.0  0.90833  0.43338  0.61678  1.0000
  Fe  Fe203     1.0  0.99217  0.26139  0.50111  1.0000
  H   H3192     1.0  0.73894  0.43965  0.95872  1.0000
  H   H3193     1.0  0.79090  0.46257  0.80812  1.0000
  C   C1797     1.0  0.73737  0.49129  0.81724  1.0000
  H   H3194     1.0  0.71487  0.33425  0.54161  1.0000
  H   H3195     1.0  0.79541  0.45597  0.60475  1.0000
  C   C1798     1.0  0.69483  0.32724  0.60523  1.0000
  H   H3196     1.0  0.98908  0.34597  0.92585  1.0000
  H   H3197     1.0  0.96281  0.25297  0.54028  1.0000
  N   N101      1.0  0.80682  0.46598  0.55960  1.0000
  C   C1799     1.0  0.79141  0.45199  0.57148  1.0000
  S   S397      1.0  0.78917  0.49641  0.98116  1.0000
  C   C1800     1.0  0.97882  0.26693  0.56403  1.0000
  H   H3198     1.0  0.76773  0.46533  0.83894  1.0000
  C   C1801     1.0  0.81572  0.25825  0.53154  1.0000
  H   H3199     1.0  0.99878  0.26992  0.95452  1.0000
  S   S398      1.0  0.96641  0.26092  0.89373  1.0000
  C   C1802     1.0  0.75609  0.48834  0.80078  1.0000
  H   H3200     1.0  0.91535  0.26404  0.95431  1.0000
  H   H3201     1.0  0.91049  0.26947  0.85338  1.0000
  C   C1803     1.0  0.78280  0.45853  0.59355  1.0000
  H   H3202     1.0  0.76964  0.42851  0.60252  1.0000
  C   C1804     1.0  0.98589  0.31241  0.92232  1.0000
  H   H3203     1.0  0.74894  0.41820  0.56215  1.0000
  H   H3204     1.0  0.72241  0.49014  0.80961  1.0000
  C   C1805     1.0  0.72057  0.35473  0.50418  1.0000
  H   H3205     1.0  0.75117  0.44803  0.59167  1.0000
  H   H3206     1.0  0.81449  0.49261  0.74541  1.0000
  H   H3207     1.0  0.76061  0.47296  0.75987  1.0000
  C   C1806     1.0  0.96937  0.30273  0.95662  1.0000
  H   H3208     1.0  0.70842  0.36761  0.50663  1.0000
  N   N102      1.0  0.67964  0.46945  0.97553  1.0000
  H   H3209     1.0  0.97870  0.28151  0.98331  1.0000
  H   H3210     1.0  0.83052  0.26547  0.52601  1.0000
  H   H3211     1.0  0.75944  0.44997  0.61791  1.0000
  C   C1807     1.0  0.94571  0.28961  0.98725  1.0000
  S   S399      1.0  0.79183  0.35440  0.51269  1.0000
  H   H3212     1.0  0.95322  0.33474  0.89938  1.0000
  C   C1808     1.0  0.97660  0.33539  0.92267  1.0000
  C   C1809     1.0  0.67194  0.47370  0.93628  1.0000
  H   H3213     1.0  0.95204  0.49303  0.78012  1.0000
  C   C1810     1.0  0.90645  0.48628  0.62462  1.0000
  C   C1811     1.0  0.96787  0.34259  0.90163  1.0000
  H   H3214     1.0  0.81859  0.41439  0.50836  1.0000
  S   S400      1.0  0.96684  0.49487  0.71171  1.0000
  H   H3215     1.0  0.80716  0.49065  0.53527  1.0000
  H   H3216     1.0  0.90649  0.38090  0.49853  1.0000
  H   H3217     1.0  0.99423  0.25845  0.56098  1.0000
  H   H3218     1.0  0.89944  0.25892  0.49945  1.0000
  H   H3219     1.0  0.80095  0.25113  0.56270  1.0000
  H   H3220     1.0  0.88362  0.41276  0.50408  1.0000
  H   H3221     1.0  0.98309  0.39038  0.82678  1.0000
  H   H3222     1.0  0.77722  0.47519  0.59373  1.0000
  H   H3223     1.0  0.88549  0.36277  0.99346  1.0000
  C   C1812     1.0  0.90744  0.27245  0.50349  1.0000
  H   H3224     1.0  0.93842  0.25729  0.49859  1.0000
  S   S401      1.0  0.99366  0.34639  0.83217  1.0000
  H   H3225     1.0  0.70676  0.49447  0.99537  1.0000
  C   C1813     1.0  0.68035  0.49304  0.97500  1.0000
  C   C1814     1.0  0.83646  0.49114  0.56483  1.0000
  H   H3226     1.0  0.99631  0.41851  0.80213  1.0000
  C   C1815     1.0  0.99550  0.38664  0.81512  1.0000
  H   H3227     1.0  0.94750  0.30380  0.99613  1.0000
  H   H3228     1.0  0.85893  0.48565  0.58912  1.0000
  H   H3229     1.0  0.81067  0.48484  0.58644  1.0000
  H   H3230     1.0  0.91789  0.49486  0.61423  1.0000
  H   H3231     1.0  0.66591  0.47065  0.90362  1.0000
  H   H3232     1.0  0.76697  0.49101  0.56437  1.0000
  C   C1816     1.0  0.81702  0.25127  0.55506  1.0000
  S   S402      1.0  0.75182  0.46459  0.99725  1.0000
  C   C1817     1.0  0.66961  0.46260  0.99653  1.0000
  H   H3233     1.0  0.92212  0.25169  0.54402  1.0000
  H   H3234     1.0  0.66656  0.49051  0.93516  1.0000
  C   C1818     1.0  0.66586  0.46412  0.95842  1.0000
  H   H3235     1.0  0.89749  0.49776  0.63464  1.0000
  C   C1819     1.0  0.87699  0.39858  0.49839  1.0000
  H   H3236     1.0  0.67032  0.68213  0.47500  1.0000
  H   H3237     1.0  0.77966  0.51511  0.19606  1.0000
  S   S403      1.0  0.98159  0.68180  0.16277  1.0000
  C   C1820     1.0  0.78656  0.67669  0.03248  1.0000
  H   H3238     1.0  0.99409  0.67233  0.26335  1.0000
  H   H3239     1.0  0.76437  0.74790  0.04293  1.0000
  H   H3240     1.0  0.76646  0.59236  0.43363  1.0000
  S   S404      1.0  0.97566  0.69368  0.09869  1.0000
  C   C1821     1.0  0.74400  0.52746  0.22070  1.0000
  Fe  Fe204     1.0  0.87630  0.67777  0.03158  1.0000
  H   H3241     1.0  0.79414  0.68438  0.06371  1.0000
  S   S405      1.0  0.88558  0.67745  0.06564  1.0000
  C   C1822     1.0  0.74237  0.50451  0.21437  1.0000
  C   C1823     1.0  0.97379  0.63215  0.10428  1.0000
  H   H3242     1.0  0.95292  0.72627  0.40873  1.0000
  H   H3243     1.0  0.67631  0.53742  0.12903  1.0000
  H   H3244     1.0  0.78276  0.50763  0.23196  1.0000
  S   S406      1.0  0.84243  0.67425  0.02415  1.0000
  S   S407      1.0  0.82253  0.65744  0.47789  1.0000
  C   C1824     1.0  0.98824  0.64841  0.23508  1.0000
  Fe  Fe205     1.0  0.81818  0.62326  0.47168  1.0000
  S   S408      1.0  0.82489  0.61144  0.43835  1.0000
  H   H3245     1.0  0.78453  0.54342  0.33399  1.0000
  H   H3246     1.0  0.98199  0.59139  0.13651  1.0000
  S   S409      1.0  0.81380  0.52154  0.40146  1.0000
  S   S410      1.0  0.83865  0.61077  0.49728  1.0000
  S   S411      1.0  0.81958  0.51261  0.33732  1.0000
  C   C1825     1.0  0.89612  0.67765  0.48561  1.0000
  H   H3247     1.0  0.84464  0.65168  0.43857  1.0000
  H   H3248     1.0  0.95986  0.63752  0.44634  1.0000
  H   H3249     1.0  0.77547  0.64694  0.02732  1.0000
  C   C1826     1.0  0.76040  0.55482  0.39666  1.0000
  H   H3250     1.0  0.98597  0.61246  0.07825  1.0000
  H   H3251     1.0  0.83051  0.72928  0.06601  1.0000
  H   H3252     1.0  0.74525  0.55082  0.40470  1.0000
  C   C1827     1.0  0.82260  0.58604  0.42861  1.0000
  C   C1828     1.0  0.82891  0.58242  0.40754  1.0000
  C   C1829     1.0  0.82684  0.56272  0.39899  1.0000
  C   C1830     1.0  0.81829  0.54638  0.41143  1.0000
  C   C1831     1.0  0.81224  0.54996  0.43254  1.0000
  C   C1832     1.0  0.81441  0.56959  0.44109  1.0000
  H   H3253     1.0  0.83532  0.59498  0.39771  1.0000
  H   H3254     1.0  0.83162  0.56029  0.38276  1.0000
  H   H3255     1.0  0.80561  0.53749  0.44234  1.0000
  H   H3256     1.0  0.80948  0.57205  0.45730  1.0000
  C   C1833     1.0  0.72269  0.53950  0.22019  1.0000
  H   H3257     1.0  0.80388  0.58611  0.33489  1.0000
  C   C1834     1.0  0.95771  0.72258  0.42491  1.0000
  C   C1835     1.0  0.94734  0.65023  0.44732  1.0000
  H   H3258     1.0  0.96496  0.62108  0.14382  1.0000
  S   S412      1.0  0.99124  0.62451  0.18026  1.0000
  C   C1836     1.0  0.82271  0.59999  0.01701  1.0000
  H   H3259     1.0  0.78154  0.66002  0.06276  1.0000
  H   H3260     1.0  0.77035  0.52125  0.37398  1.0000
  H   H3261     1.0  0.68141  0.50058  0.00817  1.0000
  C   C1837     1.0  0.95049  0.68875  0.09004  1.0000
  C   C1838     1.0  0.94812  0.68723  0.06844  1.0000
  C   C1839     1.0  0.92844  0.68384  0.06071  1.0000
  C   C1840     1.0  0.91077  0.68202  0.07450  1.0000
  C   C1841     1.0  0.91311  0.68360  0.09610  1.0000
  C   C1842     1.0  0.93279  0.68703  0.10383  1.0000
  H   H3262     1.0  0.96162  0.68878  0.05757  1.0000
  H   H3263     1.0  0.92696  0.68272  0.04405  1.0000
  H   H3264     1.0  0.89954  0.68239  0.10693  1.0000
  H   H3265     1.0  0.93416  0.68886  0.12038  1.0000
  H   H3266     1.0  0.94842  0.58696  0.11802  1.0000
  C   C1843     1.0  0.71918  0.73088  0.48390  1.0000
  H   H3267     1.0  0.75275  0.69032  0.46734  1.0000
  H   H3268     1.0  0.88166  0.58989  0.47102  1.0000
  H   H3269     1.0  0.82616  0.61179  0.02762  1.0000
  H   H3270     1.0  0.99554  0.60544  0.24188  1.0000
  H   H3271     1.0  0.88264  0.72600  0.45843  1.0000
  H   H3272     1.0  0.80877  0.66165  0.05402  1.0000
  H   H3273     1.0  0.79598  0.72624  0.03112  1.0000
  C   C1844     1.0  0.67002  0.69769  0.48212  1.0000
  H   H3274     1.0  0.68277  0.71755  0.44413  1.0000
  H   H3275     1.0  0.94648  0.65637  0.46331  1.0000
  H   H3276     1.0  0.91585  0.69337  0.46194  1.0000
  H   H3277     1.0  0.71587  0.55768  0.38487  1.0000
  H   H3278     1.0  0.98460  0.70659  0.43919  1.0000
  H   H3279     1.0  0.77547  0.61705  0.01139  1.0000
  H   H3280     1.0  0.91482  0.65591  0.44227  1.0000
  C   C1845     1.0  0.98210  0.62915  0.08128  1.0000
  C   C1846     1.0  0.73610  0.50332  0.28559  1.0000
  H   H3281     1.0  0.80931  0.51090  0.16806  1.0000
  H   H3282     1.0  0.75180  0.63049  0.00254  1.0000
  H   H3283     1.0  0.99211  0.66909  0.20684  1.0000
  H   H3284     1.0  0.97583  0.64644  0.24791  1.0000
  C   C1847     1.0  0.78654  0.65749  0.01872  1.0000
  Fe  Fe206     1.0  0.98191  0.71761  0.49431  1.0000
  H   H3285     1.0  0.77053  0.68414  0.03442  1.0000
  C   C1848     1.0  0.95927  0.66753  0.21515  1.0000
  C   C1849     1.0  0.78942  0.73828  0.02064  1.0000
  H   H3286     1.0  0.98642  0.55601  0.21806  1.0000
  H   H3287     1.0  0.97223  0.58963  0.20204  1.0000
  N   N103      1.0  0.95566  0.61930  0.11202  1.0000
  C   C1850     1.0  0.93729  0.62538  0.09889  1.0000
  H   H3288     1.0  0.71095  0.53177  0.23099  1.0000
  H   H3289     1.0  0.91816  0.72983  0.44028  1.0000
  C   C1851     1.0  0.95058  0.62341  0.13485  1.0000
  C   C1852     1.0  0.94130  0.64568  0.13964  1.0000
  C   C1853     1.0  0.91640  0.61537  0.10610  1.0000
  H   H3290     1.0  0.73512  0.50549  0.19896  1.0000
  S   S413      1.0  0.68956  0.50079  0.19779  1.0000
  H   H3291     1.0  0.85518  0.71517  0.06010  1.0000
  C   C1854     1.0  0.93547  0.64744  0.16299  1.0000
  C   C1855     1.0  0.89852  0.62432  0.09301  1.0000
  H   H3292     1.0  0.72408  0.55569  0.22520  1.0000
  H   H3293     1.0  0.94083  0.62088  0.08244  1.0000
  H   H3294     1.0  0.93453  0.64269  0.09768  1.0000
  C   C1856     1.0  0.97927  0.71105  0.42332  1.0000
  H   H3295     1.0  0.99884  0.65798  0.07836  1.0000
  H   H3296     1.0  0.89530  0.64120  0.09580  1.0000
  C   C1857     1.0  0.80716  0.56663  0.01115  1.0000
  H   H3297     1.0  0.93972  0.61184  0.14216  1.0000
  H   H3298     1.0  0.97836  0.69654  0.41470  1.0000
  H   H3299     1.0  0.92688  0.64974  0.13126  1.0000
  H   H3300     1.0  0.95295  0.65749  0.13513  1.0000
  H   H3301     1.0  0.91785  0.59821  0.10424  1.0000
  H   H3302     1.0  0.91175  0.61828  0.12270  1.0000
  C   C1858     1.0  0.73430  0.70479  0.99891  1.0000
  Fe  Fe207     1.0  0.78002  0.51522  0.00953  1.0000
  C   C1859     1.0  0.95820  0.74278  0.43729  1.0000
  H   H3303     1.0  0.75814  0.52982  0.35063  1.0000
  H   H3304     1.0  0.72581  0.71653  0.45428  1.0000
  H   H3305     1.0  0.98705  0.62924  0.11465  1.0000
  C   C1860     1.0  0.93055  0.69094  0.49146  1.0000
  H   H3306     1.0  0.94939  0.64360  0.17223  1.0000
  H   H3307     1.0  0.92963  0.66372  0.16610  1.0000
  H   H3308     1.0  0.92299  0.63667  0.16816  1.0000
  H   H3309     1.0  0.71703  0.54038  0.20407  1.0000
  H   H3310     1.0  0.90241  0.62244  0.07603  1.0000
  H   H3311     1.0  0.88402  0.61607  0.09754  1.0000
  C   C1861     1.0  0.79319  0.67022  0.05454  1.0000
  H   H3312     1.0  0.73483  0.51964  0.28931  1.0000
  C   C1862     1.0  0.98493  0.56411  0.11830  1.0000
  N   N104      1.0  0.75973  0.55389  0.37318  1.0000
  S   S414      1.0  0.76746  0.50001  0.31396  1.0000
  C   C1863     1.0  0.75718  0.53149  0.36785  1.0000
  C   C1864     1.0  0.78080  0.56003  0.36357  1.0000
  C   C1865     1.0  0.74276  0.56842  0.36417  1.0000
  C   C1866     1.0  0.72229  0.57232  0.37811  1.0000
  C   C1867     1.0  0.76645  0.57602  0.40473  1.0000
  C   C1868     1.0  0.78378  0.55966  0.33931  1.0000
  C   C1869     1.0  0.73631  0.52183  0.37553  1.0000
  C   C1870     1.0  0.99697  0.56692  0.21031  1.0000
  H   H3313     1.0  0.89208  0.73427  0.48261  1.0000
  C   C1871     1.0  0.80429  0.56927  0.33143  1.0000
  C   C1872     1.0  0.98897  0.58604  0.20120  1.0000
  C   C1873     1.0  0.89648  0.59786  0.47258  1.0000
  H   H3314     1.0  0.90481  0.57274  0.40379  1.0000
  H   H3315     1.0  0.79362  0.54975  0.37026  1.0000
  H   H3316     1.0  0.78387  0.57622  0.36754  1.0000
  H   H3317     1.0  0.74875  0.58422  0.36026  1.0000
  H   H3318     1.0  0.73838  0.56265  0.34895  1.0000
  H   H3319     1.0  0.72521  0.58206  0.39138  1.0000
  S   S415      1.0  0.79345  0.54464  0.02188  1.0000
  H   H3320     1.0  0.78366  0.57732  0.40262  1.0000
  H   H3321     1.0  0.75897  0.58956  0.39604  1.0000
  H   H3322     1.0  0.77082  0.56859  0.33156  1.0000
  H   H3323     1.0  0.95735  0.65330  0.20639  1.0000
  H   H3324     1.0  0.88582  0.59378  0.39711  1.0000
  H   H3325     1.0  0.74876  0.66646  0.00948  1.0000
  C   C1874     1.0  0.89508  0.60626  0.49496  1.0000
  H   H3326     1.0  0.74927  0.52805  0.23686  1.0000
  H   H3327     1.0  0.72863  0.70000  0.01508  1.0000
  S   S416      1.0  0.95353  0.70318  0.48079  1.0000
  H   H3328     1.0  0.87715  0.56836  0.40560  1.0000
  H   H3329     1.0  0.96938  0.64910  0.10530  1.0000
  H   H3330     1.0  0.88315  0.61939  0.49607  1.0000
  H   H3331     1.0  0.98726  0.63496  0.22488  1.0000
  H   H3332     1.0  0.94825  0.66758  0.22922  1.0000
  H   H3333     1.0  0.96175  0.59188  0.09350  1.0000
  Fe  Fe208     1.0  0.99282  0.68718  0.12911  1.0000
  Fe  Fe209     1.0  0.81889  0.50267  0.37164  1.0000
  H   H3334     1.0  0.85835  0.66517  0.41726  1.0000
  C   C1875     1.0  0.98187  0.58784  0.11973  1.0000
  H   H3335     1.0  0.95526  0.68153  0.20493  1.0000
  C   C1876     1.0  0.91433  0.68783  0.47815  1.0000
  H   H3336     1.0  0.95165  0.66317  0.43597  1.0000
  C   C1877     1.0  0.74502  0.70139  0.47788  1.0000
  H   H3337     1.0  0.98211  0.74291  0.23649  1.0000
  H   H3338     1.0  0.69104  0.58705  0.37603  1.0000
  C   C1878     1.0  0.92151  0.74316  0.44980  1.0000
  H   H3339     1.0  0.86634  0.74340  0.03531  1.0000
  H   H3340     1.0  0.73278  0.52349  0.39253  1.0000
  H   H3341     1.0  0.83666  0.71973  0.04006  1.0000
  H   H3342     1.0  0.79741  0.68837  0.02562  1.0000
  H   H3343     1.0  0.88370  0.67584  0.47527  1.0000
  H   H3344     1.0  0.68640  0.70269  0.48048  1.0000
  H   H3345     1.0  0.81782  0.56099  0.33895  1.0000
  H   H3346     1.0  0.80662  0.56783  0.31421  1.0000
  H   H3347     1.0  0.91601  0.63432  0.47345  1.0000
  H   H3348     1.0  0.86476  0.66923  0.44375  1.0000
  C   C1879     1.0  0.72967  0.71633  0.47051  1.0000
  C   C1880     1.0  0.84323  0.72660  0.05369  1.0000
  N   N105      1.0  0.89986  0.61382  0.45463  1.0000
  C   C1881     1.0  0.90423  0.60179  0.43499  1.0000
  C   C1882     1.0  0.91892  0.62548  0.45892  1.0000
  S   S417      1.0  0.88018  0.70586  0.00956  1.0000
  C   C1883     1.0  0.88061  0.62860  0.45345  1.0000
  C   C1884     1.0  0.87640  0.63919  0.43156  1.0000
  C   C1885     1.0  0.88729  0.58634  0.43060  1.0000
  C   C1886     1.0  0.76045  0.57780  0.42807  1.0000
  C   C1887     1.0  0.92625  0.64220  0.44224  1.0000
  H   H3349     1.0  0.98298  0.68284  0.22972  1.0000
  C   C1888     1.0  0.86008  0.65745  0.43302  1.0000
  C   C1889     1.0  0.88898  0.57997  0.40785  1.0000
  C   C1890     1.0  0.96109  0.59621  0.11017  1.0000
  H   H3350     1.0  0.91944  0.59246  0.43577  1.0000
  H   H3351     1.0  0.90639  0.61242  0.42096  1.0000
  C   C1891     1.0  0.85338  0.74706  0.04695  1.0000
  H   H3352     1.0  0.93242  0.61410  0.46175  1.0000
  H   H3353     1.0  0.74315  0.57839  0.43094  1.0000
  H   H3354     1.0  0.72330  0.52935  0.36666  1.0000
  H   H3355     1.0  0.86615  0.62036  0.45840  1.0000
  H   H3356     1.0  0.88111  0.64098  0.46498  1.0000
  H   H3357     1.0  0.87035  0.62771  0.42130  1.0000
  H   H3358     1.0  0.89062  0.64522  0.42336  1.0000
  H   H3359     1.0  0.88927  0.57185  0.44072  1.0000
  H   H3360     1.0  0.87120  0.59318  0.43402  1.0000
  H   H3361     1.0  0.99089  0.72098  0.41474  1.0000
  H   H3362     1.0  0.75509  0.53594  0.20987  1.0000
  H   H3363     1.0  0.92821  0.63604  0.42634  1.0000
  H   H3364     1.0  0.96311  0.73810  0.45333  1.0000
  H   H3365     1.0  0.94683  0.71147  0.43287  1.0000
  C   C1892     1.0  0.98186  0.66820  0.22141  1.0000
  H   H3366     1.0  0.97024  0.63539  0.07029  1.0000
  H   H3367     1.0  0.80694  0.58076  0.04105  1.0000
  C   C1893     1.0  0.81179  0.58233  0.02459  1.0000
  H   H3368     1.0  0.76747  0.56429  0.43724  1.0000
  S   S418      1.0  0.88886  0.65451  0.00814  1.0000
  H   H3369     1.0  0.90930  0.58531  0.47215  1.0000
  H   H3370     1.0  0.80231  0.64908  0.01894  1.0000
  H   H3371     1.0  0.92733  0.73615  0.46479  1.0000
  H   H3372     1.0  0.70038  0.53228  0.00297  1.0000
  H   H3373     1.0  0.77191  0.54262  0.40273  1.0000
  H   H3374     1.0  0.97199  0.55618  0.12725  1.0000
  C   C1894     1.0  0.88530  0.73980  0.46759  1.0000
  H   H3375     1.0  0.71076  0.59925  0.35907  1.0000
  H   H3376     1.0  0.71132  0.50675  0.26374  1.0000
  H   H3377     1.0  0.70103  0.57448  0.35262  1.0000
  H   H3378     1.0  0.76667  0.70343  0.00565  1.0000
  H   H3379     1.0  0.86992  0.74814  0.47125  1.0000
  C   C1895     1.0  0.99773  0.74829  0.23328  1.0000
  Fe  Fe210     1.0  0.85560  0.65319  0.99879  1.0000
  S   S419      1.0  0.78813  0.62224  0.49202  1.0000
  H   H3380     1.0  0.99559  0.59483  0.11124  1.0000
  S   S420      1.0  0.74558  0.51497  0.00446  1.0000
  C   C1896     1.0  0.70529  0.58400  0.36562  1.0000
  H   H3381     1.0  0.98553  0.55967  0.10170  1.0000
  C   C1897     1.0  0.79911  0.74191  0.00068  1.0000
  H   H3382     1.0  0.86047  0.74754  0.00235  1.0000
  Fe  Fe211     1.0  0.84708  0.70117  0.00070  1.0000
  C   C1898     1.0  0.66612  0.71331  0.44521  1.0000
  H   H3383     1.0  0.76622  0.49940  0.18010  1.0000
  C   C1899     1.0  0.77556  0.49870  0.19428  1.0000
  C   C1900     1.0  0.80492  0.69693  0.95127  1.0000
  S   S421      1.0  0.85883  0.68000  0.97479  1.0000
  Fe  Fe212     1.0  0.89128  0.68243  0.98550  1.0000
  S   S422      1.0  0.92316  0.68484  0.96750  1.0000
  C   C1901     1.0  0.73991  0.50894  0.73883  1.0000
  H   H3384     1.0  0.75650  0.59328  0.99218  1.0000
  S   S423      1.0  0.95453  0.67794  0.87106  1.0000
  C   C1902     1.0  0.67499  0.67769  0.51494  1.0000
  Fe  Fe213     1.0  0.80912  0.61150  0.51814  1.0000
  Fe  Fe214     1.0  0.98798  0.67524  0.85592  1.0000
  S   S424      1.0  0.79797  0.58408  0.53977  1.0000
  H   H3385     1.0  0.93145  0.64243  0.98426  1.0000
  H   H3386     1.0  0.77586  0.64303  0.96987  1.0000
  S   S425      1.0  0.81305  0.64439  0.52726  1.0000
  C   C1903     1.0  0.79700  0.67456  0.98474  1.0000
  H   H3387     1.0  0.83937  0.50653  0.59410  1.0000
  C   C1904     1.0  0.98125  0.56503  0.72029  1.0000
  S   S426      1.0  0.83225  0.54059  0.62404  1.0000
  S   S427      1.0  0.73617  0.50455  0.94803  1.0000
  H   H3388     1.0  0.70962  0.52182  0.91616  1.0000
  C   C1905     1.0  0.80884  0.57083  0.56208  1.0000
  C   C1906     1.0  0.79738  0.55535  0.57325  1.0000
  C   C1907     1.0  0.80474  0.54518  0.59168  1.0000
  C   C1908     1.0  0.82358  0.55065  0.59940  1.0000
  C   C1909     1.0  0.83525  0.56581  0.58800  1.0000
  C   C1910     1.0  0.82803  0.57575  0.56939  1.0000
  H   H3389     1.0  0.78241  0.55159  0.56789  1.0000
  H   H3390     1.0  0.79547  0.53373  0.60036  1.0000
  H   H3391     1.0  0.84987  0.57012  0.59378  1.0000
  H   H3392     1.0  0.83713  0.58747  0.56092  1.0000
  Fe  Fe215     1.0  0.84146  0.64464  0.50461  1.0000
  C   C1911     1.0  0.88930  0.58919  0.51149  1.0000
  C   C1912     1.0  0.90251  0.55480  0.71248  1.0000
  H   H3393     1.0  0.97388  0.58071  0.72356  1.0000
  H   H3394     1.0  0.81015  0.55707  0.97934  1.0000
  C   C1913     1.0  0.76130  0.63484  0.55614  1.0000
  S   S428      1.0  0.87176  0.65629  0.51679  1.0000
  H   H3395     1.0  0.74359  0.71506  0.52848  1.0000
  H   H3396     1.0  0.70447  0.52868  0.97527  1.0000
  H   H3397     1.0  0.90144  0.58551  0.96855  1.0000
  C   C1914     1.0  0.93148  0.68299  0.94057  1.0000
  C   C1915     1.0  0.91732  0.68426  0.92470  1.0000
  C   C1916     1.0  0.92468  0.68284  0.90355  1.0000
  C   C1917     1.0  0.94626  0.68017  0.89796  1.0000
  C   C1918     1.0  0.96043  0.67888  0.91385  1.0000
  C   C1919     1.0  0.95306  0.68034  0.93500  1.0000
  H   H3398     1.0  0.90076  0.68666  0.92872  1.0000
  H   H3399     1.0  0.91360  0.68395  0.89138  1.0000
  H   H3400     1.0  0.97706  0.67682  0.90982  1.0000
  H   H3401     1.0  0.96418  0.67945  0.94713  1.0000
  H   H3402     1.0  0.76827  0.62288  0.54538  1.0000
  H   H3403     1.0  0.70375  0.65886  0.54248  1.0000
  C   C1920     1.0  0.78108  0.64090  0.98614  1.0000
  H   H3404     1.0  0.79418  0.68055  0.63643  1.0000
  C   C1921     1.0  0.78851  0.68300  0.62037  1.0000
  H   H3405     1.0  0.93386  0.56771  0.76947  1.0000
  H   H3406     1.0  0.91111  0.53371  0.73776  1.0000
  H   H3407     1.0  0.79846  0.61588  0.56959  1.0000
  H   H3408     1.0  0.94089  0.56571  0.71724  1.0000
  H   H3409     1.0  0.79279  0.69877  0.61414  1.0000
  H   H3410     1.0  0.97085  0.60198  0.79170  1.0000
  H   H3411     1.0  0.76168  0.61450  0.58363  1.0000
  C   C1922     1.0  0.77314  0.51583  0.54169  1.0000
  N   N106      1.0  0.95215  0.55045  0.74575  1.0000
  C   C1923     1.0  0.97471  0.54831  0.73749  1.0000
  C   C1924     1.0  0.94693  0.53114  0.75910  1.0000
  H   H3412     1.0  0.80279  0.66350  0.95296  1.0000
  C   C1925     1.0  0.94727  0.57007  0.75783  1.0000
  C   C1926     1.0  0.96546  0.57861  0.76949  1.0000
  C   C1927     1.0  0.69897  0.68008  0.51522  1.0000
  H   H3413     1.0  0.76172  0.52674  0.54994  1.0000
  C   C1928     1.0  0.96029  0.52576  0.77813  1.0000
  H   H3414     1.0  0.67829  0.53418  0.98673  1.0000
  C   C1929     1.0  0.95742  0.59576  0.78419  1.0000
  C   C1930     1.0  0.73979  0.71534  0.51223  1.0000
  H   H3415     1.0  0.74173  0.52404  0.74514  1.0000
  H   H3416     1.0  0.97789  0.53280  0.73051  1.0000
  H   H3417     1.0  0.71678  0.74141  0.51539  1.0000
  H   H3418     1.0  0.93044  0.53252  0.76564  1.0000
  H   H3419     1.0  0.78031  0.59919  0.97726  1.0000
  H   H3420     1.0  0.94934  0.60890  0.77536  1.0000
  C   C1931     1.0  0.66589  0.71628  0.51472  1.0000
  H   H3421     1.0  0.94173  0.58330  0.74726  1.0000
  H   H3422     1.0  0.86794  0.56868  0.96643  1.0000
  H   H3423     1.0  0.97719  0.58555  0.75816  1.0000
  H   H3424     1.0  0.97394  0.56635  0.77891  1.0000
  S   S429      1.0  0.76873  0.68153  0.50955  1.0000
  H   H3425     1.0  0.78894  0.50625  0.56937  1.0000
  H   H3426     1.0  0.76520  0.50909  0.52881  1.0000
  H   H3427     1.0  0.75168  0.49906  0.78728  1.0000
  S   S430      1.0  0.81981  0.50846  0.67883  1.0000
  H   H3428     1.0  0.95894  0.53858  0.78916  1.0000
  C   C1932     1.0  0.91476  0.54983  0.73205  1.0000
  S   S431      1.0  0.99240  0.67530  0.82048  1.0000
  H   H3429     1.0  0.76567  0.51216  0.71545  1.0000
  H   H3430     1.0  0.73502  0.52535  0.81409  1.0000
  H   H3431     1.0  0.79755  0.64332  0.57089  1.0000
  H   H3432     1.0  0.94649  0.58941  0.79673  1.0000
  C   C1933     1.0  0.93227  0.62512  0.98371  1.0000
  H   H3433     1.0  0.96357  0.50175  0.80297  1.0000
  H   H3434     1.0  0.82170  0.69671  0.95469  1.0000
  H   H3435     1.0  0.79746  0.63402  0.98455  1.0000
  H   H3436     1.0  0.94369  0.53798  0.71668  1.0000
  H   H3437     1.0  0.75141  0.51477  0.83471  1.0000
  N   N107      1.0  0.80071  0.62631  0.60083  1.0000
  C   C1934     1.0  0.82446  0.62405  0.59908  1.0000
  C   C1935     1.0  0.79253  0.60637  0.61107  1.0000
  C   C1936     1.0  0.79330  0.64414  0.61447  1.0000
  C   C1937     1.0  0.79854  0.66638  0.60600  1.0000
  C   C1938     1.0  0.80257  0.59820  0.63166  1.0000
  C   C1939     1.0  0.83592  0.63562  0.58020  1.0000
  C   C1940     1.0  0.85960  0.63467  0.58232  1.0000
  H   H3438     1.0  0.79269  0.67001  0.59022  1.0000
  C   C1941     1.0  0.79101  0.57973  0.64180  1.0000
  H   H3439     1.0  0.83107  0.62860  0.61380  1.0000
  H   H3440     1.0  0.82983  0.60739  0.59742  1.0000
  H   H3441     1.0  0.79471  0.59342  0.59998  1.0000
  H   H3442     1.0  0.77534  0.60830  0.61481  1.0000
  H   H3443     1.0  0.77609  0.64402  0.61811  1.0000
  H   H3444     1.0  0.80027  0.64211  0.62997  1.0000
  H   H3445     1.0  0.81572  0.66802  0.60547  1.0000
  H   H3446     1.0  0.80210  0.61043  0.64333  1.0000
  H   H3447     1.0  0.81917  0.59266  0.62852  1.0000
  H   H3448     1.0  0.83318  0.62790  0.56552  1.0000
  H   H3449     1.0  0.83047  0.65226  0.57830  1.0000
  H   H3450     1.0  0.86348  0.64286  0.59637  1.0000
  H   H3451     1.0  0.86591  0.61816  0.58350  1.0000
  H   H3452     1.0  0.86732  0.64248  0.56825  1.0000
  C   C1942     1.0  0.92824  0.68368  0.51240  1.0000
  H   H3453     1.0  0.77471  0.58476  0.64701  1.0000
  H   H3454     1.0  0.79058  0.56705  0.63064  1.0000
  H   H3455     1.0  0.79928  0.57327  0.65566  1.0000
  H   H3456     1.0  0.88992  0.54984  0.96594  1.0000
  H   H3457     1.0  0.76039  0.64212  0.58848  1.0000
  S   S432      1.0  0.70740  0.50575  0.76913  1.0000
  C   C1943     1.0  0.75018  0.70068  0.49887  1.0000
  H   H3458     1.0  0.76634  0.65051  0.55035  1.0000
  C   C1944     1.0  0.76792  0.62985  0.57848  1.0000
  H   H3459     1.0  0.75551  0.61136  0.96971  1.0000
  C   C1945     1.0  0.79213  0.62897  0.57934  1.0000
  N   N108      1.0  0.78057  0.66174  0.99637  1.0000
  H   H3460     1.0  0.98563  0.54824  0.75033  1.0000
  N   N109      1.0  0.90038  0.61755  0.93437  1.0000
  C   C1946     1.0  0.91813  0.61010  0.91945  1.0000
  C   C1947     1.0  0.88683  0.59951  0.94076  1.0000
  C   C1948     1.0  0.88707  0.63372  0.92236  1.0000
  C   C1949     1.0  0.90786  0.62730  0.95348  1.0000
  C   C1950     1.0  0.92923  0.61850  0.96156  1.0000
  C   C1951     1.0  0.93132  0.62764  0.90866  1.0000
  C   C1952     1.0  0.86603  0.64120  0.93360  1.0000
  C   C1953     1.0  0.89729  0.58069  0.95298  1.0000
  H   H3461     1.0  0.90187  0.57651  0.51190  1.0000
  H   H3462     1.0  0.90464  0.57116  0.70651  1.0000
  C   C1954     1.0  0.95229  0.61893  0.89911  1.0000
  C   C1955     1.0  0.85623  0.66067  0.92245  1.0000
  H   H3463     1.0  0.91192  0.60143  0.90669  1.0000
  H   H3464     1.0  0.92898  0.59855  0.92725  1.0000
  H   H3465     1.0  0.87328  0.60477  0.95131  1.0000
  H   H3466     1.0  0.88005  0.59359  0.92668  1.0000
  H   H3467     1.0  0.88328  0.62772  0.90704  1.0000
  H   H3468     1.0  0.89593  0.64796  0.91845  1.0000
  H   H3469     1.0  0.90952  0.64442  0.95057  1.0000
  H   H3470     1.0  0.89573  0.62624  0.96670  1.0000
  H   H3471     1.0  0.94235  0.62450  0.95129  1.0000
  H   H3472     1.0  0.72386  0.69895  0.98751  1.0000
  H   H3473     1.0  0.92267  0.63572  0.89577  1.0000
  H   H3474     1.0  0.93451  0.63956  0.91984  1.0000
  H   H3475     1.0  0.86841  0.64486  0.94996  1.0000
  H   H3476     1.0  0.85451  0.62886  0.93375  1.0000
  H   H3477     1.0  0.91146  0.57412  0.94428  1.0000
  H   H3478     1.0  0.97693  0.52247  0.77297  1.0000
  H   H3479     1.0  0.79744  0.69024  0.99123  1.0000
  C   C1956     1.0  0.95264  0.50635  0.79049  1.0000
  S   S433      1.0  0.84269  0.62430  0.98508  1.0000
  Fe  Fe216     1.0  0.82536  0.51032  0.64337  1.0000
  C   C1957     1.0  0.79489  0.67727  0.96066  1.0000
  H   H3480     1.0  0.74398  0.63489  0.55582  1.0000
  H   H3481     1.0  0.94978  0.60721  0.88741  1.0000
  H   H3482     1.0  0.96088  0.63190  0.89104  1.0000
  H   H3483     1.0  0.96211  0.61164  0.91150  1.0000
  H   H3484     1.0  0.85358  0.65756  0.90592  1.0000
  H   H3485     1.0  0.84092  0.66515  0.93055  1.0000
  H   H3486     1.0  0.86652  0.67401  0.92278  1.0000
  H   H3487     1.0  0.89899  0.50424  0.67922  1.0000
  H   H3488     1.0  0.90873  0.66755  0.53596  1.0000
  C   C1958     1.0  0.70985  0.66095  0.52594  1.0000
  C   C1959     1.0  0.93869  0.55110  0.72705  1.0000
  H   H3489     1.0  0.82926  0.58816  0.96584  1.0000
  C   C1960     1.0  0.72450  0.73034  0.50484  1.0000
  H   H3490     1.0  0.76204  0.70253  0.97860  1.0000
  C   C1961     1.0  0.91016  0.67323  0.51977  1.0000
  H   H3491     1.0  0.87434  0.58237  0.50824  1.0000
  H   H3492     1.0  0.88738  0.59603  0.52716  1.0000
  H   H3493     1.0  0.77116  0.68254  0.62112  1.0000
  H   H3494     1.0  0.80378  0.69779  0.93401  1.0000
  C   C1962     1.0  0.69108  0.50235  0.99327  1.0000
  C   C1963     1.0  0.73685  0.51282  0.82658  1.0000
  Fe  Fe217     1.0  0.79370  0.65544  0.50003  1.0000
  H   H3495     1.0  0.88555  0.55293  0.71634  1.0000
  S   S434      1.0  0.82276  0.72782  0.99170  1.0000
  H   H3496     1.0  0.78641  0.52494  0.53493  1.0000
  C   C1964     1.0  0.81359  0.56892  0.98991  1.0000
  H   H3497     1.0  0.94050  0.68585  0.52288  1.0000
  H   H3498     1.0  0.90779  0.54390  0.70000  1.0000
  H   H3499     1.0  0.87742  0.55735  0.94201  1.0000
  H   H3500     1.0  0.79674  0.71118  0.95773  1.0000
  H   H3501     1.0  0.93676  0.50968  0.79796  1.0000
  H   H3502     1.0  0.69595  0.50751  0.88452  1.0000
  C   C1965     1.0  0.88217  0.56311  0.95702  1.0000
  H   H3503     1.0  0.94812  0.51716  0.74925  1.0000
  H   H3504     1.0  0.75072  0.66713  0.98188  1.0000
  H   H3505     1.0  0.93092  0.60124  0.96183  1.0000
  C   C1966     1.0  0.99820  0.74632  0.78074  1.0000
  H   H3506     1.0  0.97608  0.56061  0.70491  1.0000
  C   C1967     1.0  0.82448  0.58659  0.98231  1.0000
  C   C1968     1.0  0.71410  0.50590  0.91217  1.0000
  H   H3507     1.0  0.86050  0.51053  0.57475  1.0000
  H   H3508     1.0  0.67254  0.66310  0.50682  1.0000
  H   H3509     1.0  0.90905  0.56096  0.74415  1.0000
  C   C1969     1.0  0.89398  0.67004  0.50647  1.0000
  H   H3510     1.0  0.93668  0.51018  0.68256  1.0000
  H   H3511     1.0  0.98750  0.73949  0.79252  1.0000
  H   H3512     1.0  0.94791  0.61914  0.98867  1.0000
  H   H3513     1.0  0.70633  0.68172  0.49916  1.0000
  H   H3514     1.0  0.77826  0.67818  0.95659  1.0000
  H   H3515     1.0  0.92011  0.61862  0.99491  1.0000
  H   H3516     1.0  0.81295  0.66721  0.98711  1.0000
  S   S435      1.0  0.67827  0.50956  0.82384  1.0000
  C   C1970     1.0  0.66854  0.73699  0.54714  1.0000
  C   C1971     1.0  0.69367  0.52580  0.98923  1.0000
  H   H3517     1.0  0.72696  0.66315  0.52585  1.0000
  H   H3518     1.0  0.68580  0.73764  0.54435  1.0000
  C   C1972     1.0  0.75689  0.69644  0.99448  1.0000
  H   H3519     1.0  0.66947  0.67446  0.53145  1.0000
  H   H3520     1.0  0.70226  0.69389  0.52401  1.0000
  H   H3521     1.0  0.72334  0.51441  0.83823  1.0000
  H   H3522     1.0  0.82840  0.50506  0.55722  1.0000
  C   C1973     1.0  0.92863  0.50004  0.69400  1.0000
  H   H3523     1.0  0.68224  0.72085  0.51118  1.0000
  C   C1974     1.0  0.76483  0.60589  0.98320  1.0000
  H   H3524     1.0  0.70757  0.64661  0.51746  1.0000
  C   C1975     1.0  0.82920  0.60220  0.99579  1.0000
  H   H3525     1.0  0.66831  0.70372  0.54742  1.0000
  C   C1976     1.0  0.75872  0.67205  0.99568  1.0000
  C   C1977     1.0  0.75359  0.50222  0.72196  1.0000
  H   H3526     1.0  0.78323  0.50010  0.76832  1.0000
  H   H3527     1.0  0.91035  0.61179  0.49911  1.0000
  H   H3528     1.0  0.73355  0.72218  0.99749  1.0000
  H   H3529     1.0  0.68890  0.49878  0.96033  1.0000
  C   C1978     1.0  0.84960  0.49889  0.58175  1.0000
  C   C1979     1.0  0.76758  0.62390  0.99743  1.0000
  C   C1980     1.0  0.78097  0.49859  0.55714  1.0000
  C   C1981     1.0  0.76471  0.93482  0.18262  1.0000
  C   C1982     1.0  0.79514  0.91242  0.16773  1.0000
  H   H3530     1.0  0.71712  0.80987  0.47457  1.0000
  H   H3531     1.0  0.94803  0.79108  0.40808  1.0000
  Fe  Fe218     1.0  0.73056  0.98672  0.17453  1.0000
  H   H3532     1.0  0.96803  0.78808  0.43418  1.0000
  Fe  Fe219     1.0  0.71028  0.95576  0.14627  1.0000
  S   S436      1.0  0.68386  0.97873  0.13846  1.0000
  S   S437      1.0  0.71250  0.92150  0.13698  1.0000
  H   H3533     1.0  0.97763  0.81100  0.46131  1.0000
  S   S438      1.0  0.73516  0.97908  0.14044  1.0000
  S   S439      1.0  0.70757  0.96166  0.18082  1.0000
  Fe  Fe220     1.0  0.69953  0.85389  0.03020  1.0000
  S   S440      1.0  0.69976  0.88486  0.04722  1.0000
  H   H3534     1.0  0.95681  0.80191  0.47900  1.0000
  Fe  Fe221     1.0  0.71775  0.81074  0.01516  1.0000
  S   S441      1.0  0.74092  0.78298  0.02440  1.0000
  S   S442      1.0  0.69362  0.82056  0.04093  1.0000
  H   H3535     1.0  0.75237  0.83864  0.48284  1.0000
  Fe  Fe222     1.0  0.84412  0.97966  0.28895  1.0000
  Fe  Fe223     1.0  0.88025  0.96224  0.31694  1.0000
  H   H3536     1.0  0.85380  0.78728  0.06803  1.0000
  S   S443      1.0  0.90278  0.93612  0.32971  1.0000
  C   C1983     1.0  0.74048  0.82407  0.42793  1.0000
  C   C1984     1.0  0.76673  0.92620  0.14586  1.0000
  S   S444      1.0  0.84502  0.96206  0.32044  1.0000
  S   S445      1.0  0.87968  0.97723  0.28449  1.0000
  H   H3537     1.0  0.69654  0.92649  0.06206  1.0000
  S   S446      1.0  0.96918  0.86988  0.28747  1.0000
  C   C1985     1.0  0.86542  0.78935  0.03472  1.0000
  H   H3538     1.0  0.89261  0.78019  0.06759  1.0000
  Fe  Fe224     1.0  0.77532  0.97409  0.47702  1.0000
  S   S447      1.0  0.80218  0.96504  0.45322  1.0000
  C   C1986     1.0  0.79680  0.99699  0.39662  1.0000
  H   H3539     1.0  0.82510  0.98587  0.48752  1.0000
  Fe  Fe225     1.0  0.67427  0.77418  0.48466  1.0000
  H   H3540     1.0  0.78175  0.94984  0.25447  1.0000
  H   H3541     1.0  0.83437  0.89764  0.18189  1.0000
  C   C1987     1.0  0.92081  0.91757  0.31753  1.0000
  C   C1988     1.0  0.93435  0.90507  0.33012  1.0000
  C   C1989     1.0  0.94928  0.89048  0.32125  1.0000
  C   C1990     1.0  0.95081  0.88814  0.29959  1.0000
  C   C1991     1.0  0.93726  0.90062  0.28698  1.0000
  C   C1992     1.0  0.92233  0.91522  0.29586  1.0000
  H   H3542     1.0  0.93329  0.90670  0.34690  1.0000
  H   H3543     1.0  0.95952  0.88098  0.33117  1.0000
  H   H3544     1.0  0.93819  0.89888  0.27023  1.0000
  H   H3545     1.0  0.91196  0.92459  0.28597  1.0000
  H   H3546     1.0  0.75610  0.87264  0.48690  1.0000
  C   C1993     1.0  0.80624  0.97436  0.42668  1.0000
  H   H3547     1.0  0.75212  0.91697  0.28762  1.0000
  H   H3548     1.0  0.77207  0.99129  0.35635  1.0000
  C   C1994     1.0  0.73419  0.87221  0.46180  1.0000
  C   C1995     1.0  0.80570  0.95787  0.17410  1.0000
  N   N110      1.0  0.84505  0.78300  0.02690  1.0000
  H   H3549     1.0  0.81685  0.92595  0.34424  1.0000
  H   H3550     1.0  0.81609  0.87696  0.18502  1.0000
  C   C1996     1.0  0.67873  0.88415  0.48987  1.0000
  C   C1997     1.0  0.76282  0.76696  0.01431  1.0000
  C   C1998     1.0  0.67923  0.85534  0.42960  1.0000
  H   H3551     1.0  0.93816  0.80019  0.27305  1.0000
  C   C1999     1.0  0.82922  0.97584  0.39454  1.0000
  C   C2000     1.0  0.80137  0.97599  0.24867  1.0000
  C   C2001     1.0  0.78448  0.96378  0.24471  1.0000
  C   C2002     1.0  0.77111  0.96934  0.22823  1.0000
  H   H3552     1.0  0.93987  0.96310  0.36071  1.0000
  H   H3553     1.0  0.91965  0.96013  0.25995  1.0000
  H   H3554     1.0  0.75819  0.95984  0.22566  1.0000
  C   C2003     1.0  0.70872  0.91157  0.11196  1.0000
  C   C2004     1.0  0.70331  0.92467  0.09478  1.0000
  C   C2005     1.0  0.70061  0.91615  0.07523  1.0000
  C   C2006     1.0  0.70324  0.89443  0.07249  1.0000
  C   C2007     1.0  0.70860  0.88132  0.08972  1.0000
  C   C2008     1.0  0.71130  0.88985  0.10929  1.0000
  H   H3555     1.0  0.70133  0.94140  0.09648  1.0000
  H   H3556     1.0  0.73503  0.81062  0.43785  1.0000
  H   H3557     1.0  0.71068  0.86462  0.08793  1.0000
  H   H3558     1.0  0.71545  0.87952  0.12244  1.0000
  Fe  Fe226     1.0  0.68218  0.98614  0.17267  1.0000
  C   C2009     1.0  0.80740  0.79857  0.02082  1.0000
  C   C2010     1.0  0.93981  0.98208  0.27280  1.0000
  H   H3559     1.0  0.72754  0.82950  0.41785  1.0000
  H   H3560     1.0  0.93779  0.77045  0.46891  1.0000
  C   C2011     1.0  0.93232  0.97910  0.36082  1.0000
  C   C2012     1.0  0.94641  0.77517  0.40250  1.0000
  S   S448      1.0  0.70529  0.94093  0.48705  1.0000
  H   H3561     1.0  0.67310  0.86669  0.41749  1.0000
  H   H3562     1.0  0.91644  0.77392  0.41899  1.0000
  H   H3563     1.0  0.95004  0.78691  0.37022  1.0000
  H   H3564     1.0  0.88058  0.76630  0.00171  1.0000
  S   S449      1.0  0.74294  0.98437  0.46806  1.0000
  C   C2013     1.0  0.73261  0.81348  0.47978  1.0000
  H   H3565     1.0  0.94730  0.82571  0.24430  1.0000
  H   H3566     1.0  0.72786  0.90727  0.21415  1.0000
  H   H3567     1.0  0.69850  0.84960  0.46816  1.0000
  H   H3568     1.0  0.97310  0.80341  0.19756  1.0000
  H   H3569     1.0  0.97134  0.75162  0.43007  1.0000
  H   H3570     1.0  0.76448  0.82894  0.40274  1.0000
  H   H3571     1.0  0.92636  0.99170  0.27942  1.0000
  H   H3572     1.0  0.93730  0.76255  0.37354  1.0000
  C   C2014     1.0  0.79030  0.96134  0.33608  1.0000
  C   C2015     1.0  0.94057  0.77490  0.45192  1.0000
  H   H3573     1.0  0.87184  0.80224  0.02436  1.0000
  H   H3574     1.0  0.83565  0.95652  0.42229  1.0000
  C   C2016     1.0  0.81123  0.93474  0.35822  1.0000
  H   H3575     1.0  0.94969  0.81014  0.21278  1.0000
  H   H3576     1.0  0.95685  0.84692  0.21248  1.0000
  H   H3577     1.0  0.81971  0.94688  0.17492  1.0000
  H   H3578     1.0  0.89641  0.80630  0.05635  1.0000
  H   H3579     1.0  0.90145  0.76824  0.46479  1.0000
  C   C2017     1.0  0.95297  0.79756  0.26334  1.0000
  H   H3580     1.0  0.97391  0.77353  0.45783  1.0000
  H   H3581     1.0  0.82636  0.76785  0.05223  1.0000
  H   H3582     1.0  0.87767  0.77642  0.03372  1.0000
  H   H3583     1.0  0.96501  0.79022  0.27357  1.0000
  C   C2018     1.0  0.79086  0.95054  0.15804  1.0000
  C   C2019     1.0  0.82464  0.96773  0.41512  1.0000
  H   H3584     1.0  0.99364  0.81326  0.25158  1.0000
  H   H3585     1.0  0.96835  0.85683  0.24354  1.0000
  H   H3586     1.0  0.75117  0.92700  0.10568  1.0000
  N   N111      1.0  0.77968  0.93077  0.16394  1.0000
  H   H3587     1.0  0.74463  0.91513  0.31521  1.0000
  H   H3588     1.0  0.82402  0.98435  0.17947  1.0000
  H   H3589     1.0  0.79790  0.95898  0.18991  1.0000
  C   C2020     1.0  0.94867  0.96616  0.28938  1.0000
  C   C2021     1.0  0.96350  0.95648  0.32284  1.0000
  H   H3590     1.0  0.82243  0.97912  0.15216  1.0000
  H   H3591     1.0  0.75283  0.98889  0.39151  1.0000
  H   H3592     1.0  0.80018  0.99128  0.16668  1.0000
  H   H3593     1.0  0.75843  0.90723  0.45189  1.0000
  H   H3594     1.0  0.82480  0.88887  0.20768  1.0000
  H   H3595     1.0  0.96204  0.82885  0.26673  1.0000
  H   H3596     1.0  0.75077  0.95815  0.36984  1.0000
  H   H3597     1.0  0.66952  0.94050  0.19558  1.0000
  H   H3598     1.0  0.79270  0.91291  0.12541  1.0000
  C   C2022     1.0  0.86409  0.79698  0.05744  1.0000
  H   H3599     1.0  0.93665  0.83289  0.18297  1.0000
  H   H3600     1.0  0.77376  0.91392  0.09299  1.0000
  H   H3601     1.0  0.93648  0.95473  0.29356  1.0000
  H   H3602     1.0  0.95019  0.94673  0.32832  1.0000
  H   H3603     1.0  0.96984  0.96203  0.33725  1.0000
  H   H3604     1.0  0.69756  0.87815  0.44211  1.0000
  H   H3605     1.0  0.89218  0.75997  0.44066  1.0000
  H   H3606     1.0  0.77749  0.93378  0.30781  1.0000
  H   H3607     1.0  0.80870  0.79990  0.00343  1.0000
  C   C2023     1.0  0.88572  0.79650  0.06641  1.0000
  C   C2024     1.0  0.77874  0.92389  0.12421  1.0000
  H   H3608     1.0  0.77915  0.96368  0.15461  1.0000
  H   H3609     1.0  0.75858  0.99192  0.30451  1.0000
  C   C2025     1.0  0.97056  0.83633  0.20770  1.0000
  N   N112      1.0  0.93807  0.75629  0.43874  1.0000
  H   H3610     1.0  0.76235  0.83774  0.44731  1.0000
  H   H3611     1.0  0.75509  0.94965  0.17983  1.0000
  H   H3612     1.0  0.80123  0.78322  0.02583  1.0000
  S   S450      1.0  0.81794  0.96775  0.26960  1.0000
  C   C2026     1.0  0.74680  0.84227  0.44101  1.0000
  H   H3613     1.0  0.78380  0.93931  0.11774  1.0000
  C   C2027     1.0  0.68371  0.90506  0.48468  1.0000
  C   C2028     1.0  0.73964  0.91924  0.21085  1.0000
  H   H3614     1.0  0.73234  0.88165  0.44689  1.0000
  C   C2029     1.0  0.99099  0.92690  0.32925  1.0000
  H   H3615     1.0  0.99043  0.90726  0.22803  1.0000
  C   C2030     1.0  0.74910  0.91749  0.18847  1.0000
  H   H3616     1.0  0.96181  0.95742  0.28092  1.0000
  H   H3617     1.0  0.76881  0.86991  0.46112  1.0000
  H   H3618     1.0  0.85746  0.81340  0.05756  1.0000
  H   H3619     1.0  0.72604  0.84434  0.49197  1.0000
  H   H3620     1.0  0.75370  0.80350  0.40403  1.0000
  C   C2031     1.0  0.75473  0.95577  0.32394  1.0000
  H   H3621     1.0  0.78808  0.81414  0.04535  1.0000
  Fe  Fe227     1.0  0.84561  0.99343  0.33431  1.0000
  H   H3622     1.0  0.75202  0.91663  0.22228  1.0000
  C   C2032     1.0  0.75807  0.90128  0.46849  1.0000
  C   C2033     1.0  0.73585  0.83730  0.47887  1.0000
  C   C2034     1.0  0.74647  0.92612  0.30134  1.0000
  H   H3623     1.0  0.78911  0.90216  0.20079  1.0000
  H   H3624     1.0  0.75856  0.91142  0.14924  1.0000
  H   H3625     1.0  0.88429  0.80271  0.08237  1.0000
  H   H3626     1.0  0.92569  0.74966  0.40919  1.0000
  C   C2035     1.0  0.93863  0.77799  0.38038  1.0000
  C   C2036     1.0  0.83695  0.76363  0.03843  1.0000
  C   C2037     1.0  0.96003  0.81845  0.25368  1.0000
  H   H3627     1.0  0.74983  0.85546  0.42943  1.0000
  S   S451      1.0  0.99265  0.81284  0.30208  1.0000
  H   H3628     1.0  0.77303  0.90481  0.47515  1.0000
  H   H3629     1.0  0.92530  0.98260  0.24300  1.0000
  N   N113      1.0  0.95582  0.97486  0.30910  1.0000
  S   S452      1.0  0.72500  0.84431  0.00583  1.0000
  C   C2038     1.0  0.96170  0.80486  0.46222  1.0000
  H   H3630     1.0  0.96039  0.82576  0.16742  1.0000
  C   C2039     1.0  0.80215  0.90825  0.19047  1.0000
  C   C2040     1.0  0.80465  0.99389  0.23570  1.0000
  H   H3631     1.0  0.67524  0.91398  0.47279  1.0000
  H   H3632     1.0  0.98319  0.98404  0.29008  1.0000
  C   C2041     1.0  0.66856  0.92433  0.19040  1.0000
  H   H3633     1.0  0.72163  0.87844  0.47292  1.0000
  H   H3634     1.0  0.66815  0.91357  0.20453  1.0000
  H   H3635     1.0  0.75402  0.93856  0.14385  1.0000
  H   H3636     1.0  0.83520  0.81588  0.02299  1.0000
  C   C2042     1.0  0.70889  0.84704  0.45386  1.0000
  H   H3637     1.0  0.84367  0.97092  0.38608  1.0000
  H   H3638     1.0  0.79677  0.83139  0.02361  1.0000
  H   H3639     1.0  0.71142  0.86273  0.42238  1.0000
  C   C2043     1.0  0.79125  0.81559  0.02810  1.0000
  H   H3640     1.0  0.77867  0.93308  0.35315  1.0000
  H   H3641     1.0  0.94240  0.80611  0.17614  1.0000
  H   H3642     1.0  0.75673  0.90162  0.18694  1.0000
  C   C2044     1.0  0.76228  0.94235  0.30508  1.0000
  C   C2045     1.0  0.75541  0.87767  0.47008  1.0000
  H   H3643     1.0  0.73599  0.91905  0.17777  1.0000
  H   H3644     1.0  0.92852  0.78761  0.44838  1.0000
  H   H3645     1.0  0.99346  0.89207  0.25221  1.0000
  H   H3646     1.0  0.93512  0.98590  0.37596  1.0000
  H   H3647     1.0  0.82688  0.75555  0.02822  1.0000
  C   C2046     1.0  0.70026  0.86208  0.43631  1.0000
  H   H3648     1.0  0.82568  0.80355  0.04695  1.0000
  C   C2047     1.0  0.82899  0.80102  0.02997  1.0000
  H   H3649     1.0  0.95016  0.78670  0.25091  1.0000
  H   H3650     1.0  0.79861  0.95372  0.32246  1.0000
  H   H3651     1.0  0.80704  0.92251  0.19746  1.0000
  C   C2048     1.0  0.98075  0.94149  0.31274  1.0000
  C   C2049     1.0  0.77147  0.75069  0.02735  1.0000
  H   H3652     1.0  0.66758  0.85484  0.44320  1.0000
  H   H3653     1.0  0.82273  0.94647  0.36113  1.0000
  H   H3654     1.0  0.68105  0.83962  0.42289  1.0000
  H   H3655     1.0  0.73171  0.93494  0.21293  1.0000
  C   C2050     1.0  0.94943  0.82061  0.18054  1.0000
  H   H3656     1.0  0.99442  0.85117  0.25091  1.0000
  H   H3657     1.0  0.77627  0.81385  0.02060  1.0000
  H   H3658     1.0  0.97374  0.93138  0.30170  1.0000
  S   S453      1.0  0.67397  0.85470  0.00739  1.0000
  C   C2051     1.0  0.75883  0.81610  0.41355  1.0000
  C   C2052     1.0  0.76475  0.91574  0.10822  1.0000
  H   H3659     1.0  0.74512  0.80535  0.46997  1.0000
  H   H3660     1.0  0.70617  0.83089  0.44976  1.0000
  C   C2053     1.0  0.77467  0.98701  0.21499  1.0000
  H   H3661     1.0  0.95076  0.81688  0.45509  1.0000
  C   C2054     1.0  0.82048  0.89191  0.19121  1.0000
  H   H3662     1.0  0.78861  0.89755  0.16340  1.0000
  H   H3663     1.0  0.96202  0.76683  0.40112  1.0000
  C   C2055     1.0  0.96227  0.78461  0.45050  1.0000
  S   S454      1.0  0.75947  0.99396  0.19268  1.0000
  H   H3664     1.0  0.73099  0.93392  0.29802  1.0000
  H   H3665     1.0  0.77193  0.80955  0.42292  1.0000
  H   H3666     1.0  0.77321  0.93761  0.19668  1.0000
  H   H3667     1.0  0.78275  0.97773  0.29846  1.0000
  C   C2056     1.0  0.93072  0.76327  0.41741  1.0000
  H   H3668     1.0  0.97807  0.84443  0.19364  1.0000
  H   H3669     1.0  0.96825  0.89467  0.24069  1.0000
  H   H3670     1.0  0.94518  0.96176  0.24637  1.0000
  H   H3671     1.0  0.97898  0.91799  0.33855  1.0000
  H   H3672     1.0  0.72695  0.97922  0.39340  1.0000
  H   H3673     1.0  0.75885  0.90030  0.11363  1.0000
  N   N114      1.0  0.73148  0.84930  0.45854  1.0000
  H   H3674     1.0  0.81035  0.92360  0.37205  1.0000
  H   H3675     1.0  0.75086  0.94462  0.33720  1.0000
  H   H3676     1.0  0.80099  0.94873  0.14349  1.0000
  C   C2057     1.0  0.96110  0.81619  0.20055  1.0000
  C   C2058     1.0  0.97357  0.98926  0.30416  1.0000
  H   H3677     1.0  0.99321  0.95032  0.30409  1.0000
  H   H3678     1.0  0.80945  0.91410  0.15712  1.0000
  H   H3679     1.0  0.98117  0.80073  0.23239  1.0000
  C   C2059     1.0  0.98101  0.81572  0.24032  1.0000
  H   H3680     1.0  0.92318  0.78683  0.38051  1.0000
  Fe  Fe228     1.0  0.99496  0.84793  0.30121  1.0000
  H   H3681     1.0  0.78506  0.95380  0.36963  1.0000
  C   C2060     1.0  0.81354  0.97946  0.16760  1.0000
  H   H3682     1.0  0.91517  0.97791  0.35993  1.0000
  C   C2061     1.0  0.74432  0.97352  0.36385  1.0000
  H   H3683     1.0  0.95788  0.99526  0.34470  1.0000
  H   H3684     1.0  0.80095  0.97333  0.34022  1.0000
  C   C2062     1.0  0.78964  0.94549  0.35510  1.0000
  Fe  Fe229     1.0  0.66966  0.82071  0.01632  1.0000
  H   H3685     1.0  0.72949  0.97089  0.35642  1.0000
  H   H3686     1.0  0.99525  0.76933  0.25900  1.0000
  H   H3687     1.0  0.68274  0.91998  0.18032  1.0000
  H   H3688     1.0  0.98467  0.98821  0.31697  1.0000
  H   H3689     1.0  0.74504  0.90970  0.47741  1.0000
  H   H3690     1.0  0.92394  0.97461  0.32231  1.0000
  H   H3691     1.0  0.86045  0.75275  0.06086  1.0000
  C   C2063     1.0  0.98547  0.89305  0.23721  1.0000
  H   H3692     1.0  0.77782  0.99386  0.42570  1.0000
  C   C2064     1.0  0.99138  0.87362  0.22474  1.0000
  C   C2065     1.0  0.69958  0.91452  0.49459  1.0000
  S   S455      1.0  0.88087  0.99268  0.33325  1.0000
  N   N115      1.0  0.76958  0.97160  0.33007  1.0000
  H   H3693     1.0  0.76397  0.95224  0.29044  1.0000
  C   C2066     1.0  0.93205  0.97087  0.25443  1.0000
  C   C2067     1.0  0.79213  0.98876  0.41713  1.0000
  C   C2068     1.0  0.84791  0.77988  0.00362  1.0000
  C   C2069     1.0  0.73872  0.98697  0.38267  1.0000
  H   H3694     1.0  0.95219  0.99236  0.26629  1.0000
  H   H3695     1.0  0.73951  0.96394  0.32001  1.0000
  C   C2070     1.0  0.98465  0.85338  0.23706  1.0000
  C   C2071     1.0  0.93713  0.98528  0.32072  1.0000
  Fe  Fe230     1.0  0.73172  0.96202  0.49434  1.0000
  H   H3696     1.0  0.66658  0.87717  0.48197  1.0000
  H   H3697     1.0  0.98386  0.87563  0.20956  1.0000
  C   C2072     1.0  0.77368  0.98616  0.31113  1.0000
  C   C2073     1.0  0.81547  0.99082  0.38530  1.0000
  C   C2074     1.0  0.75966  0.98450  0.34766  1.0000
  N   N116      1.0  0.98581  0.83364  0.22491  1.0000
  H   H3698     1.0  0.66721  0.87627  0.11013  1.0000
  C   C2075     1.0  0.89991  0.75455  0.45515  1.0000
  S   S456      1.0  0.67156  0.80557  0.46687  1.0000
  C   C2076     1.0  0.94105  0.99319  0.34271  1.0000
  H   H3699     1.0  0.66651  0.90366  0.13592  1.0000
  S   S457      1.0  0.69917  0.74871  0.47370  1.0000
  H   H3700     1.0  0.75017  0.99819  0.34120  1.0000
  C   C2077     1.0  0.79029  0.75793  0.98752  1.0000
  H   H3701     1.0  0.74092  0.91003  0.91851  1.0000
  C   C2078     1.0  0.66907  0.79909  0.94344  1.0000
  S   S458      1.0  0.67109  0.78887  0.51585  1.0000
  Fe  Fe231     1.0  0.69692  0.96928  0.88204  1.0000
  C   C2079     1.0  0.78553  0.96030  0.87310  1.0000
  S   S459      1.0  0.70012  0.95180  0.91403  1.0000
  C   C2080     1.0  0.70102  0.94437  0.78180  1.0000
  H   H3702     1.0  0.92794  0.86133  0.62684  1.0000
  S   S460      1.0  0.69778  0.95871  0.84902  1.0000
  S   S461      1.0  0.98121  0.75234  0.49895  1.0000
  H   H3703     1.0  0.94762  0.78998  0.65872  1.0000
  H   H3704     1.0  0.98514  0.94810  0.68127  1.0000
  Fe  Fe232     1.0  0.69881  0.84370  0.98376  1.0000
  S   S462      1.0  0.69835  0.85659  0.94958  1.0000
  C   C2081     1.0  0.77232  0.77034  0.99423  1.0000
  S   S463      1.0  0.82834  0.96360  0.68345  1.0000
  S   S464      1.0  0.68445  0.84571  0.51216  1.0000
  H   H3705     1.0  0.80404  0.87909  0.89704  1.0000
  S   S465      1.0  0.87462  0.98262  0.66965  1.0000
  H   H3706     1.0  0.68272  0.80902  0.94375  1.0000
  H   H3707     1.0  0.70383  0.94066  0.76509  1.0000
  Fe  Fe233     1.0  0.86199  0.95855  0.69298  1.0000
  S   S466      1.0  0.87997  0.92831  0.70400  1.0000
  S   S467      1.0  0.85670  0.98126  0.71879  1.0000
  C   C2082     1.0  0.90296  0.87634  0.59542  1.0000
  H   H3708     1.0  0.91938  0.81490  0.59470  1.0000
  H   H3709     1.0  0.73728  0.90679  0.88519  1.0000
  S   S468      1.0  0.95982  0.87482  0.66571  1.0000
  C   C2083     1.0  0.69310  0.96755  0.78428  1.0000
  H   H3710     1.0  0.72090  0.90140  0.83167  1.0000
  H   H3711     1.0  0.79793  0.97056  0.62986  1.0000
  S   S469      1.0  0.74990  0.97653  0.82044  1.0000
  C   C2084     1.0  0.81826  0.99800  0.58743  1.0000
  H   H3712     1.0  0.94051  0.96917  0.73691  1.0000
  Fe  Fe234     1.0  0.76309  0.97702  0.52452  1.0000
  S   S470      1.0  0.77044  0.97170  0.55938  1.0000
  H   H3713     1.0  0.68854  0.88186  0.56136  1.0000
  H   H3714     1.0  0.80511  0.87740  0.86880  1.0000
  H   H3715     1.0  0.90888  0.96669  0.76020  1.0000
  H   H3716     1.0  0.76559  0.93524  0.94740  1.0000
  Fe  Fe235     1.0  0.98571  0.85243  0.67914  1.0000
  H   H3717     1.0  0.91832  0.98426  0.70507  1.0000
  H   H3718     1.0  0.67413  0.89237  0.58412  1.0000
  C   C2085     1.0  0.90237  0.91393  0.69305  1.0000
  C   C2086     1.0  0.91312  0.89892  0.70586  1.0000
  C   C2087     1.0  0.93087  0.88702  0.69792  1.0000
  C   C2088     1.0  0.93794  0.88977  0.67691  1.0000
  C   C2089     1.0  0.92720  0.90478  0.66409  1.0000
  C   C2090     1.0  0.90960  0.91686  0.67210  1.0000
  H   H3719     1.0  0.90762  0.89641  0.72206  1.0000
  H   H3720     1.0  0.93885  0.87550  0.70798  1.0000
  H   H3721     1.0  0.93245  0.90703  0.64780  1.0000
  H   H3722     1.0  0.90141  0.92817  0.66198  1.0000
  Fe  Fe236     1.0  0.66627  0.82009  0.49831  1.0000
  C   C2091     1.0  0.79993  0.97674  0.61388  1.0000
  C   C2092     1.0  0.67425  0.89119  0.56686  1.0000
  C   C2093     1.0  0.78857  0.97897  0.57768  1.0000
  C   C2094     1.0  0.66874  0.99713  0.77501  1.0000
  H   H3723     1.0  0.77761  0.98827  0.85378  1.0000
  H   H3724     1.0  0.92541  0.85591  0.57915  1.0000
  H   H3725     1.0  0.87193  0.77786  0.96542  1.0000
  Fe  Fe237     1.0  0.67098  0.98262  0.84368  1.0000
  C   C2095     1.0  0.71028  0.90276  0.51001  1.0000
  C   C2096     1.0  0.76182  0.98230  0.79481  1.0000
  C   C2097     1.0  0.92556  0.98791  0.64012  1.0000
  C   C2098     1.0  0.74008  0.91697  0.85229  1.0000
  C   C2099     1.0  0.78181  0.97305  0.78924  1.0000
  C   C2100     1.0  0.79179  0.97689  0.76915  1.0000
  H   H3726     1.0  0.99284  0.92046  0.70825  1.0000
  H   H3727     1.0  0.78750  0.91429  0.86286  1.0000
  C   C2101     1.0  0.98526  0.91641  0.69394  1.0000
  H   H3728     1.0  0.97424  0.90390  0.69814  1.0000
  C   C2102     1.0  0.69765  0.92536  0.92357  1.0000
  C   C2103     1.0  0.69587  0.90891  0.91029  1.0000
  C   C2104     1.0  0.69595  0.88802  0.91853  1.0000
  C   C2105     1.0  0.69751  0.88329  0.94014  1.0000
  C   C2106     1.0  0.69866  0.89980  0.95346  1.0000
  C   C2107     1.0  0.69876  0.92064  0.94521  1.0000
  H   H3729     1.0  0.69475  0.91222  0.89367  1.0000
  H   H3730     1.0  0.84743  0.99387  0.50027  1.0000
  H   H3731     1.0  0.69981  0.89649  0.97011  1.0000
  H   H3732     1.0  0.70012  0.93316  0.95568  1.0000
  C   C2108     1.0  0.72184  0.90344  0.84871  1.0000
  H   H3733     1.0  0.71364  0.87303  0.52725  1.0000
  H   H3734     1.0  0.92235  0.80956  0.63441  1.0000
  H   H3735     1.0  0.68558  0.96854  0.80041  1.0000
  H   H3736     1.0  0.70272  0.98531  0.58491  1.0000
  C   C2109     1.0  0.72132  0.93916  0.79279  1.0000
  S   S471      1.0  0.99103  0.75822  0.55910  1.0000
  H   H3737     1.0  0.76531  0.88628  0.89708  1.0000
  C   C2110     1.0  0.92904  0.85107  0.61314  1.0000
  H   H3738     1.0  0.79108  0.85872  0.88538  1.0000
  S   S472      1.0  0.99370  0.79113  0.73267  1.0000
  C   C2111     1.0  0.94085  0.96720  0.67092  1.0000
  N   N117      1.0  0.94968  0.83837  0.61278  1.0000
  H   H3739     1.0  0.92164  0.83129  0.65104  1.0000
  C   C2112     1.0  0.93829  0.79634  0.57311  1.0000
  H   H3740     1.0  0.78963  0.96273  0.80052  1.0000
  C   C2113     1.0  0.76636  0.94810  0.86791  1.0000
  H   H3741     1.0  0.66728  0.84980  0.56180  1.0000
  H   H3742     1.0  0.76870  0.90723  0.92252  1.0000
  H   H3743     1.0  0.95323  0.83315  0.57953  1.0000
  H   H3744     1.0  0.96410  0.86623  0.62144  1.0000
  H   H3745     1.0  0.73419  0.94838  0.78537  1.0000
  H   H3746     1.0  0.75244  0.95939  0.86817  1.0000
  H   H3747     1.0  0.97296  0.98268  0.68486  1.0000
  H   H3748     1.0  0.96694  0.86161  0.59418  1.0000
  H   H3749     1.0  0.80709  0.96958  0.76524  1.0000
  H   H3750     1.0  0.79264  0.91603  0.88950  1.0000
  C   C2114     1.0  0.75946  0.93569  0.90416  1.0000
  H   H3751     1.0  0.99354  0.78717  0.62889  1.0000
  H   H3752     1.0  0.74675  0.94828  0.90554  1.0000
  H   H3753     1.0  0.97417  0.76652  0.76661  1.0000
  H   H3754     1.0  0.94359  0.81176  0.67587  1.0000
  H   H3755     1.0  0.91316  0.97658  0.63929  1.0000
  C   C2115     1.0  0.95223  0.82397  0.59473  1.0000
  H   H3756     1.0  0.75474  0.90916  0.84570  1.0000
  H   H3757     1.0  0.96847  0.93125  0.66880  1.0000
  C   C2116     1.0  0.92473  0.86524  0.59335  1.0000
  C   C2117     1.0  0.99271  0.77481  0.59801  1.0000
  H   H3758     1.0  0.76627  0.88429  0.86941  1.0000
  N   N118      1.0  0.94561  0.96528  0.69378  1.0000
  H   H3759     1.0  0.80691  0.99833  0.55613  1.0000
  H   H3760     1.0  0.97637  0.83101  0.75371  1.0000
  C   C2118     1.0  0.95450  0.94323  0.69830  1.0000
  C   C2119     1.0  0.81612  0.99012  0.60839  1.0000
  H   H3761     1.0  0.73809  0.93998  0.94282  1.0000
  C   C2120     1.0  0.86494  0.76323  0.99641  1.0000
  C   C2121     1.0  0.71174  0.98219  0.74403  1.0000
  C   C2122     1.0  0.85135  0.99810  0.77406  1.0000
  H   H3762     1.0  0.69491  0.87541  0.90807  1.0000
  C   C2123     1.0  0.72629  0.99387  0.95454  1.0000
  H   H3763     1.0  0.71540  0.99572  0.75293  1.0000
  H   H3764     1.0  0.92196  0.79661  0.67052  1.0000
  H   H3765     1.0  0.91326  0.95817  0.70118  1.0000
  H   H3766     1.0  0.84539  0.98596  0.76451  1.0000
  H   H3767     1.0  0.76599  0.78273  0.98397  1.0000
  H   H3768     1.0  0.92956  0.95534  0.66759  1.0000
  H   H3769     1.0  0.94223  0.93179  0.69711  1.0000
  H   H3770     1.0  0.95929  0.94137  0.71474  1.0000
  H   H3771     1.0  0.70690  0.97722  0.78445  1.0000
  H   H3772     1.0  0.75574  0.97834  0.94370  1.0000
  C   C2124     1.0  0.78002  0.91285  0.87902  1.0000
  H   H3773     1.0  0.67493  0.90718  0.55940  1.0000
  H   H3774     1.0  0.92813  0.94519  0.73336  1.0000
  H   H3775     1.0  0.71618  0.97313  0.71156  1.0000
  C   C2125     1.0  0.75497  0.91851  0.92143  1.0000
  H   H3776     1.0  0.92665  0.78415  0.57302  1.0000
  S   S473      1.0  0.66878  0.99134  0.87745  1.0000
  H   H3777     1.0  0.77386  0.96094  0.60322  1.0000
  C   C2126     1.0  0.75201  0.99555  0.77988  1.0000
  C   C2127     1.0  0.78626  0.97131  0.59867  1.0000
  C   C2128     1.0  0.93552  0.80764  0.59368  1.0000
  H   H3778     1.0  0.95833  0.83627  0.64507  1.0000
  H   H3779     1.0  0.90159  0.88623  0.60929  1.0000
  C   C2129     1.0  0.79510  0.87537  0.88347  1.0000
  C   C2130     1.0  0.90703  0.97028  0.74325  1.0000
  N   N119      1.0  0.67802  0.97613  0.76830  1.0000
  C   C2131     1.0  0.73396  0.80409  0.50211  1.0000
  C   C2132     1.0  0.92529  0.96808  0.70688  1.0000
  Fe  Fe238     1.0  0.71912  0.98493  0.83991  1.0000
  H   H3780     1.0  0.96740  0.81466  0.59516  1.0000
  H   H3781     1.0  0.89060  0.86478  0.59703  1.0000
  H   H3782     1.0  0.95422  0.78855  0.57133  1.0000
  C   C2133     1.0  0.86695  0.76265  0.97252  1.0000
  C   C2134     1.0  0.77502  0.88940  0.88252  1.0000
  C   C2135     1.0  0.70517  0.88191  0.51535  1.0000
  H   H3783     1.0  0.74726  0.91547  0.95489  1.0000
  C   C2136     1.0  0.92670  0.96248  0.73065  1.0000
  H   H3784     1.0  0.72247  0.90975  0.51786  1.0000
  C   C2137     1.0  0.78187  0.98996  0.75414  1.0000
  H   H3785     1.0  0.67938  0.98999  0.73675  1.0000
  Fe  Fe239     1.0  0.82421  0.98807  0.70805  1.0000
  H   H3786     1.0  0.80476  0.98506  0.85984  1.0000
  C   C2138     1.0  0.96169  0.98049  0.69864  1.0000
  S   S474      1.0  0.69327  0.80937  0.99128  1.0000
  H   H3787     1.0  0.72136  0.97924  0.96298  1.0000
  H   H3788     1.0  0.96371  0.81286  0.63165  1.0000
  C   C2139     1.0  0.93220  0.98889  0.66258  1.0000
  C   C2140     1.0  0.75129  0.92796  0.94291  1.0000
  H   H3789     1.0  0.79756  0.76098  0.97206  1.0000
  C   C2141     1.0  0.71898  0.98660  0.72113  1.0000
  H   H3790     1.0  0.76909  0.94381  0.85128  1.0000
  H   H3791     1.0  0.71919  0.94264  0.80961  1.0000
  C   C2142     1.0  0.68805  0.97774  0.74629  1.0000
  H   H3792     1.0  0.72595  0.92228  0.79157  1.0000
  H   H3793     1.0  0.73759  0.93203  0.84320  1.0000
  C   C2143     1.0  0.97375  0.93572  0.68413  1.0000
  H   H3794     1.0  0.72829  0.93281  0.87992  1.0000
  S   S475      1.0  0.76427  0.95053  0.50219  1.0000
  H   H3795     1.0  0.99398  0.83237  0.60071  1.0000
  H   H3796     1.0  0.96477  0.84526  0.77543  1.0000
  C   C2144     1.0  0.96691  0.85364  0.61000  1.0000
  H   H3797     1.0  0.69506  0.99090  0.98592  1.0000
  H   H3798     1.0  0.91560  0.84091  0.61564  1.0000
  H   H3799     1.0  0.73608  0.98907  0.72000  1.0000
  H   H3800     1.0  0.79956  0.94957  0.87517  1.0000
  S   S476      1.0  0.72955  0.98739  0.51795  1.0000
  H   H3801     1.0  0.73525  0.97835  0.92554  1.0000
  H   H3802     1.0  0.78200  0.96894  0.88764  1.0000
  H   H3803     1.0  0.68664  0.96298  0.73808  1.0000
  H   H3804     1.0  0.68260  0.97281  0.95286  1.0000
  H   H3805     1.0  0.79491  0.96910  0.84062  1.0000
  H   H3806     1.0  0.72145  0.96849  0.74990  1.0000
  H   H3807     1.0  0.93590  0.80752  0.55953  1.0000
  H   H3808     1.0  0.77396  0.94253  0.90873  1.0000
  H   H3809     1.0  0.70678  0.91101  0.85477  1.0000
  H   H3810     1.0  0.93618  0.87762  0.59105  1.0000
  H   H3811     1.0  0.90029  0.88659  0.58123  1.0000
  C   C2145     1.0  0.74136  0.92117  0.87587  1.0000
  C   C2146     1.0  0.95197  0.82625  0.63351  1.0000
  H   H3812     1.0  0.74943  0.80667  0.50824  1.0000
  H   H3813     1.0  0.93740  0.79552  0.60651  1.0000
  H   H3814     1.0  0.72413  0.88776  0.85668  1.0000
  N   N120      1.0  0.76192  0.92890  0.88183  1.0000
  Fe  Fe240     1.0  0.84069  0.98942  0.66152  1.0000
  C   C2147     1.0  0.93170  0.81797  0.64489  1.0000
  C   C2148     1.0  0.93664  0.80316  0.66359  1.0000
  H   H3815     1.0  0.97145  0.97397  0.71150  1.0000
  H   H3816     1.0  0.98296  0.85775  0.75692  1.0000
  S   S477      1.0  0.83368  0.99803  0.62697  1.0000
  C   C2149     1.0  0.80473  0.99239  0.57217  1.0000
  S   S478      1.0  0.98838  0.81742  0.67547  1.0000
  C   C2150     1.0  0.74245  0.98778  0.93701  1.0000
  H   H3817     1.0  0.68419  0.95469  0.98799  1.0000
  H   H3818     1.0  0.66619  0.79617  0.92692  1.0000
  H   H3819     1.0  0.99157  0.83707  0.62825  1.0000
  H   H3820     1.0  0.86708  0.99256  0.77915  1.0000
  C   C2151     1.0  0.99069  0.76179  0.76599  1.0000
  C   C2152     1.0  0.97931  0.84270  0.76531  1.0000
  C   C2153     1.0  0.79100  0.97664  0.85573  1.0000
  C   C2154     1.0  0.98963  0.84433  0.61235  1.0000
  C   C2155     1.0  0.68948  0.87239  0.50525  1.0000
  H   H3821     1.0  0.95517  0.96369  0.66074  1.0000
  H   H3822     1.0  0.90420  0.98747  0.74072  1.0000
  H   H3823     1.0  0.72100  0.98172  0.56285  1.0000
  H   H3824     1.0  0.89327  0.96220  0.73859  1.0000
  H   H3825     1.0  0.97789  0.76772  0.60150  1.0000
  H   H3826     1.0  0.99232  0.82024  0.78735  1.0000
  S   S479      1.0  0.79362  0.99575  0.72842  1.0000
  H   H3827     1.0  0.70058  0.99567  0.93457  1.0000
  H   H3828     1.0  0.85179  0.75901  0.96631  1.0000
  H   H3829     1.0  0.68899  0.93390  0.78890  1.0000
  H   H3830     1.0  0.93917  0.98321  0.62946  1.0000
  S   S480      1.0  0.72013  0.99403  0.87365  1.0000
  H   H3831     1.0  0.99757  0.91011  0.68260  1.0000
  H   H3832     1.0  0.91841  0.99483  0.67225  1.0000
  C   C2156     1.0  0.71166  0.99365  0.57198  1.0000
  H   H3833     1.0  0.67296  0.78386  0.95174  1.0000
  C   C2157     1.0  0.66903  0.96107  0.98207  1.0000
  H   H3834     1.0  0.66762  0.81601  0.56427  1.0000
  H   H3835     1.0  0.72132  0.81119  0.51262  1.0000
  C   C2158     1.0  0.67255  0.97916  0.96600  1.0000
  C   C2159     1.0  0.68240  0.99752  0.97595  1.0000
  H   H3836     1.0  0.73195  0.78697  0.50220  1.0000
  H   H3837     1.0  0.83315  0.77490  0.99749  1.0000
  H   H3838     1.0  0.85140  0.79499  0.99510  1.0000
  C   C2160     1.0  0.99731  0.83475  0.77876  1.0000
  H   H3839     1.0  0.66612  0.94597  0.76280  1.0000
  H   H3840     1.0  0.87888  0.75020  0.96783  1.0000
