data_image0
_chemical_formula_structural       HCH2S2H5C2SCHSC2FeH2SHCH4C2HCH2CH5CH2C2H3C2HSH2CNC2H7SH2C2H2CFeCHC2H4C4HCHC2SCH3CH3NC5HC2HC2HSH3NH5SH2CH4CH2FeCH2CHCH8CH2FeC2H4SHCH2FeHCHCH2SFeNHCHCHC2HCH2NC2HCHCH4CH2CHC2H2CH2CH2CSHFeSCSHCH2C2H2CHCHC2H2C4H2SH2CH3CH3CHCHCNSH2CH2CH3C2SH3C2HCHNFeH3CH4CH2CHCH2CH2SH4SNCHC3H2CHC3H2SHFeH2CH5SFeHCFeHCSH3C4H2FeC2HC2HSHSCH4CFeHCH2SH2CH4CH2CH4SH3CHSHCFeH3CNH2CHFeHCHCHFeH2C2H4CFeHCHCHC3HCH2FeHCHCH4CHCHNH2SHCH2SHC2H3CH2C5HCHSHNHSHCSCHSHCH5SH3CHCHCHC2HCHSH2C3SCH2CH4CH2CFeHSC2HC2H4NHCSHFeCHSFeH2C2H5CFeH3C3HSCH3C2H4CH2CSCH3C2FeH2CHSCH6CHCHCHC2HCHCH3CHCHC2H2CH4SH4CH7CH2CH3NC2S2H3C2HC2HCSCH5CHCH3CH2SH2CSH2FeCH3FeCHCSC3H2CS2HSH5CH5C3HC2HFeCHCH2CH3CH2C3HCFeCH4SNFeHC3SC2HCHCH3SH2CH6SH3CH2CH2CHCH3CHSC2SHCHC3H6C2HCH4C2H2CHCH5SH4NSCH2FeH2CH2CH3CHCFeHCH12CHSFeSHSHFeH2CHC2H2NCHCHSCH3SCH2C3H2C2H3C3H3CHCH4SH3CHC2SHCHCHCH2CH2FeCHCH2CH4C3HC2H3NH2SH2C2HCHCH5CHCH5C3H2SC2H2FeH3SH2SFeH3CH2CHFeSH2FeH2CHFeH2FeCSHSHNC3H2SCH6CHCH2C2H5C2H2CH3S2C4H3SHCH2NHC4FeCSH6CHS2H2CH2C4SH6C3SHCH7CHC3H2C5H2CHCH8NH3CH2CHC2H2C3H2FeH2CH3CHC2H4CH5CH5SH4NH3CH3CH2SH2C2HNHC2H6FeCFeC2SCSHC4HSCHSC3HSH3CHCFeCSHC2H3CH3CH6C3H7CHC3FeSHSHSH4CFeNH2C2HC4H2CH10C3HSHFeCH2CHCHCHC2H2C2HCH5CH2C3FeCHNH
_chemical_formula_sum              "H768 C432 S96 Fe48 N24"
_cell_length_a       38.1651
_cell_length_b       37.5574
_cell_length_c       37.911
_cell_angle_alpha    90.4609
_cell_angle_beta     89.7289
_cell_angle_gamma    96.431

_space_group_name_H-M_alt    "P 1"
_space_group_IT_number       1

loop_
  _space_group_symop_operation_xyz
  'x, y, z'

loop_
  _atom_site_type_symbol
  _atom_site_label
  _atom_site_symmetry_multiplicity
  _atom_site_fract_x
  _atom_site_fract_y
  _atom_site_fract_z
  _atom_site_occupancy
  H   H1        1.0  0.18507  0.37055  0.06144  1.0000
  C   C1        1.0  0.13985  0.11896  0.46878  1.0000
  H   H2        1.0  0.31002  0.41508  0.02875  1.0000
  H   H3        1.0  0.34684  0.12211  0.01787  1.0000
  S   S1        1.0  0.48336  0.29016  0.03825  1.0000
  S   S2        1.0  0.00864  0.42089  0.31429  1.0000
  H   H4        1.0  0.38333  0.14977  0.03742  1.0000
  H   H5        1.0  0.09459  0.44069  0.42576  1.0000
  H   H6        1.0  0.07770  0.06695  0.47076  1.0000
  H   H7        1.0  0.15122  0.32749  0.11257  1.0000
  H   H8        1.0  0.00953  0.09949  0.47939  1.0000
  C   C2        1.0  0.08694  0.46892  0.15755  1.0000
  C   C3        1.0  0.01690  0.09446  0.45156  1.0000
  S   S3        1.0  0.42293  0.22305  0.02097  1.0000
  C   C4        1.0  0.20143  0.35853  0.12720  1.0000
  H   H9        1.0  0.00153  0.03772  0.44856  1.0000
  S   S4        1.0  0.30180  0.04122  0.41255  1.0000
  C   C5        1.0  0.99938  0.47521  0.07813  1.0000
  C   C6        1.0  0.00531  0.24338  0.37155  1.0000
  Fe  Fe1       1.0  0.46506  0.02696  0.21222  1.0000
  H   H10       1.0  0.32244  0.50258  0.06243  1.0000
  H   H11       1.0  0.41034  0.10598  0.12156  1.0000
  S   S5        1.0  0.39253  0.32378  0.03595  1.0000
  H   H12       1.0  0.48902  0.07370  0.34967  1.0000
  C   C7        1.0  0.46357  0.07001  0.04210  1.0000
  H   H13       1.0  0.25059  0.31950  0.13063  1.0000
  H   H14       1.0  0.35683  0.06226  0.36275  1.0000
  H   H15       1.0  0.43172  0.04837  0.40414  1.0000
  H   H16       1.0  0.26766  0.38892  0.07032  1.0000
  C   C8        1.0  0.28390  0.32554  0.08500  1.0000
  C   C9        1.0  0.45966  0.10025  0.14726  1.0000
  H   H17       1.0  0.10206  0.44915  0.01793  1.0000
  C   C10       1.0  0.43769  0.11681  0.12423  1.0000
  H   H18       1.0  0.04162  0.22033  0.33726  1.0000
  H   H19       1.0  0.23660  0.32233  0.02721  1.0000
  C   C11       1.0  0.48599  0.16177  0.10811  1.0000
  H   H20       1.0  0.04862  0.21257  0.38285  1.0000
  H   H21       1.0  0.35551  0.38261  0.05754  1.0000
  H   H22       1.0  0.15932  0.10787  0.45243  1.0000
  H   H23       1.0  0.11053  0.42168  0.14140  1.0000
  H   H24       1.0  0.43335  0.16021  0.08773  1.0000
  C   C12       1.0  0.36143  0.34719  0.01344  1.0000
  H   H25       1.0  0.01031  0.33375  0.41010  1.0000
  H   H26       1.0  0.07178  0.36312  0.31469  1.0000
  C   C13       1.0  0.02620  0.05622  0.44614  1.0000
  C   C14       1.0  0.15374  0.33080  0.16874  1.0000
  H   H27       1.0  0.99931  0.26710  0.35644  1.0000
  H   H28       1.0  0.10134  0.48682  0.44007  1.0000
  H   H29       1.0  0.46706  0.46858  0.04606  1.0000
  C   C15       1.0  0.24850  0.39004  0.09217  1.0000
  C   C16       1.0  0.34682  0.37523  0.03110  1.0000
  H   H30       1.0  0.39989  0.50111  0.04112  1.0000
  S   S6        1.0  0.01866  0.27589  0.47834  1.0000
  H   H31       1.0  0.37569  0.03447  0.47679  1.0000
  H   H32       1.0  0.18834  0.38352  0.12513  1.0000
  C   C17       1.0  0.11878  0.14403  0.45467  1.0000
  N   N1        1.0  0.46133  0.08490  0.00542  1.0000
  C   C18       1.0  0.14669  0.21896  0.31650  1.0000
  C   C19       1.0  0.08119  0.46341  0.43611  1.0000
  H   H33       1.0  0.04944  0.38823  0.04773  1.0000
  H   H34       1.0  0.00242  0.24926  0.40004  1.0000
  H   H35       1.0  0.09663  0.23620  0.30226  1.0000
  H   H36       1.0  0.10389  0.02700  0.43246  1.0000
  H   H37       1.0  0.34252  0.06317  0.48767  1.0000
  H   H38       1.0  0.31343  0.44143  0.14186  1.0000
  H   H39       1.0  0.00487  0.42566  0.04984  1.0000
  S   S7        1.0  0.45911  0.03375  0.27122  1.0000
  H   H40       1.0  0.13210  0.30867  0.17187  1.0000
  H   H41       1.0  0.46973  0.09204  0.06163  1.0000
  C   C20       1.0  0.02272  0.44819  0.06141  1.0000
  C   C21       1.0  0.17191  0.32722  0.13305  1.0000
  H   H42       1.0  0.47841  0.05604  0.41262  1.0000
  H   H43       1.0  0.06782  0.45454  0.17491  1.0000
  C   C22       1.0  0.03257  0.50273  0.42432  1.0000
  Fe  Fe2       1.0  0.19545  0.46831  0.04341  1.0000
  C   C23       1.0  0.10863  0.22465  0.32553  1.0000
  H   H44       1.0  0.46043  0.10120  0.37270  1.0000
  C   C24       1.0  0.49231  0.03173  0.08597  1.0000
  C   C25       1.0  0.09980  0.32559  0.44611  1.0000
  H   H45       1.0  0.17277  0.32934  0.19063  1.0000
  H   H46       1.0  0.18490  0.32323  0.06576  1.0000
  H   H47       1.0  0.03609  0.38324  0.37149  1.0000
  H   H48       1.0  0.28416  0.33333  0.05698  1.0000
  C   C26       1.0  0.05336  0.47245  0.40978  1.0000
  C   C27       1.0  0.09361  0.15924  0.47562  1.0000
  C   C28       1.0  0.37129  0.01418  0.33764  1.0000
  C   C29       1.0  0.11127  0.45038  0.13860  1.0000
  H   H49       1.0  0.16222  0.24482  0.30973  1.0000
  C   C30       1.0  0.45828  0.04693  0.39254  1.0000
  H   H50       1.0  0.23966  0.37059  0.02233  1.0000
  C   C31       1.0  0.22170  0.34599  0.02775  1.0000
  C   C32       1.0  0.37173  0.49114  0.03773  1.0000
  S   S8        1.0  0.44188  0.06121  0.17032  1.0000
  C   C33       1.0  0.32084  0.39350  0.01497  1.0000
  H   H51       1.0  0.03543  0.43664  0.08452  1.0000
  H   H52       1.0  0.28242  0.26873  0.07183  1.0000
  H   H53       1.0  0.36839  0.46222  0.04462  1.0000
  C   C34       1.0  0.35184  0.03334  0.36147  1.0000
  H   H54       1.0  0.23115  0.29817  0.09274  1.0000
  H   H55       1.0  0.12032  0.34857  0.45046  1.0000
  H   H56       1.0  0.07383  0.33420  0.45345  1.0000
  N   N2        1.0  0.07226  0.26434  0.36423  1.0000
  C   C35       1.0  0.10671  0.24883  0.35872  1.0000
  C   C36       1.0  0.07247  0.28106  0.40058  1.0000
  C   C37       1.0  0.08107  0.44056  0.03749  1.0000
  C   C38       1.0  0.06487  0.29102  0.33627  1.0000
  C   C39       1.0  0.09705  0.31398  0.31963  1.0000
  H   H57       1.0  0.18266  0.30097  0.13210  1.0000
  C   C40       1.0  0.13624  0.46872  0.11585  1.0000
  C   C41       1.0  0.09997  0.31389  0.40739  1.0000
  H   H58       1.0  0.43755  0.05642  0.05055  1.0000
  C   C42       1.0  0.08522  0.34449  0.29773  1.0000
  C   C43       1.0  0.32561  0.01552  0.38319  1.0000
  H   H59       1.0  0.06892  0.45558  0.46192  1.0000
  S   S9        1.0  0.16521  0.44415  0.09113  1.0000
  H   H60       1.0  0.12919  0.27019  0.35769  1.0000
  H   H61       1.0  0.04672  0.29062  0.40653  1.0000
  H   H62       1.0  0.07610  0.26048  0.42090  1.0000
  N   N3        1.0  0.22554  0.35487  0.09590  1.0000
  H   H63       1.0  0.01888  0.41180  0.47728  1.0000
  H   H64       1.0  0.05031  0.27724  0.31368  1.0000
  H   H65       1.0  0.04665  0.30968  0.34700  1.0000
  H   H66       1.0  0.11167  0.29726  0.30180  1.0000
  H   H67       1.0  0.11593  0.32598  0.33957  1.0000
  S   S10       1.0  0.06798  0.19108  0.45648  1.0000
  H   H68       1.0  0.09346  0.44499  0.06380  1.0000
  H   H69       1.0  0.15927  0.20679  0.33915  1.0000
  C   C44       1.0  0.39710  0.10059  0.01275  1.0000
  H   H70       1.0  0.12710  0.30802  0.40101  1.0000
  H   H71       1.0  0.09336  0.33699  0.39164  1.0000
  H   H72       1.0  0.42055  0.46371  0.00272  1.0000
  H   H73       1.0  0.21697  0.36143  0.15204  1.0000
  C   C45       1.0  0.29931  0.43249  0.11724  1.0000
  H   H74       1.0  0.39085  0.02837  0.32064  1.0000
  H   H75       1.0  0.10848  0.35994  0.28526  1.0000
  Fe  Fe3       1.0  0.47901  0.22970  0.04004  1.0000
  C   C46       1.0  0.45069  0.14747  0.10487  1.0000
  H   H76       1.0  0.30249  0.34562  0.09898  1.0000
  H   H77       1.0  0.03971  0.11394  0.44421  1.0000
  C   C47       1.0  0.24649  0.32351  0.10191  1.0000
  H   H78       1.0  0.11233  0.23218  0.38189  1.0000
  C   C48       1.0  0.29893  0.28959  0.08715  1.0000
  H   H79       1.0  0.06683  0.33378  0.27656  1.0000
  H   H80       1.0  0.23211  0.41145  0.08448  1.0000
  H   H81       1.0  0.03619  0.05483  0.41874  1.0000
  H   H82       1.0  0.09408  0.19782  0.33055  1.0000
  H   H83       1.0  0.12224  0.15190  0.42739  1.0000
  H   H84       1.0  0.28901  0.45609  0.10527  1.0000
  H   H85       1.0  0.10553  0.30332  0.46357  1.0000
  H   H86       1.0  0.14225  0.35670  0.17048  1.0000
  C   C49       1.0  0.48539  0.45507  0.06264  1.0000
  H   H87       1.0  0.10913  0.38303  0.07083  1.0000
  H   H88       1.0  0.06727  0.48013  0.38478  1.0000
  Fe  Fe4       1.0  0.42872  0.28344  0.01474  1.0000
  C   C50       1.0  0.26900  0.40370  0.12584  1.0000
  C   C51       1.0  0.05399  0.04693  0.47347  1.0000
  H   H89       1.0  0.14707  0.20057  0.29345  1.0000
  H   H90       1.0  0.31840  0.42185  0.09883  1.0000
  H   H91       1.0  0.30046  0.28098  0.11502  1.0000
  H   H92       1.0  0.25091  0.41583  0.14434  1.0000
  S   S11       1.0  0.25435  0.47090  0.03721  1.0000
  H   H93       1.0  0.27989  0.38158  0.13981  1.0000
  C   C52       1.0  0.20256  0.34873  0.06357  1.0000
  H   H94       1.0  0.03529  0.44764  0.40489  1.0000
  H   H95       1.0  0.32599  0.29222  0.07577  1.0000
  Fe  Fe5       1.0  0.02132  0.21620  0.48132  1.0000
  H   H96       1.0  0.47308  0.45023  0.08904  1.0000
  C   C53       1.0  0.04305  0.23358  0.36363  1.0000
  H   H97       1.0  0.39317  0.08596  0.03799  1.0000
  C   C54       1.0  0.07244  0.39947  0.03184  1.0000
  H   H98       1.0  0.44191  0.06735  0.34226  1.0000
  H   H99       1.0  0.09758  0.35058  0.03631  1.0000
  S   S12       1.0  0.20026  0.01724  0.44695  1.0000
  Fe  Fe6       1.0  0.25962  0.02018  0.45253  1.0000
  N   N4        1.0  0.05037  0.46253  0.03460  1.0000
  H   H100      1.0  0.11635  0.02336  0.49380  1.0000
  C   C55       1.0  0.49036  0.04231  0.04722  1.0000
  H   H101      1.0  0.01847  0.49162  0.44823  1.0000
  C   C56       1.0  0.00890  0.37220  0.36808  1.0000
  H   H102      1.0  0.12761  0.38998  0.02709  1.0000
  C   C57       1.0  0.01242  0.38299  0.48348  1.0000
  C   C58       1.0  0.46272  0.07381  0.36237  1.0000
  H   H103      1.0  0.44454  0.13351  0.02763  1.0000
  C   C59       1.0  0.37514  0.13216  0.01456  1.0000
  H   H104      1.0  0.06287  0.00816  0.41436  1.0000
  H   H105      1.0  0.01560  0.49437  0.09567  1.0000
  N   N5        1.0  0.06453  0.00926  0.47160  1.0000
  C   C60       1.0  0.43665  0.11365  0.00640  1.0000
  C   C61       1.0  0.10367  0.37962  0.04216  1.0000
  H   H106      1.0  0.48937  0.42869  0.05069  1.0000
  C   C62       1.0  0.35674  0.04100  0.49751  1.0000
  H   H107      1.0  0.17840  0.31489  0.00001  1.0000
  C   C63       1.0  0.49492  0.11464  0.15058  1.0000
  H   H108      1.0  0.01929  0.36701  0.46036  1.0000
  H   H109      1.0  0.06673  0.39343  0.00358  1.0000
  H   H110      1.0  0.48228  0.01750  0.03187  1.0000
  H   H111      1.0  0.48998  0.01008  0.36789  1.0000
  C   C64       1.0  0.46297  0.00844  0.37929  1.0000
  H   H112      1.0  0.46584  0.02115  0.09615  1.0000
  H   H113      1.0  0.48278  0.01154  0.44864  1.0000
  C   C65       1.0  0.06390  0.50097  0.04316  1.0000
  H   H114      1.0  0.07510  0.50264  0.07027  1.0000
  C   C66       1.0  0.08174  0.00520  0.43601  1.0000
  C   C67       1.0  0.35850  0.49581  0.99941  1.0000
  H   H115      1.0  0.38406  0.43326  0.98992  1.0000
  H   H116      1.0  0.46767  0.03489  0.97875  1.0000
  C   C68       1.0  0.08641  0.47444  0.83415  1.0000
  H   H117      1.0  0.06055  0.30667  0.72968  1.0000
  H   H118      1.0  0.43874  0.12952  0.98164  1.0000
  C   C69       1.0  0.07284  0.50102  0.85444  1.0000
  H   H119      1.0  0.33262  0.47875  0.99801  1.0000
  H   H120      1.0  0.42159  0.29370  0.88122  1.0000
  C   C70       1.0  0.11080  0.12390  0.52503  1.0000
  S   S13       1.0  0.27515  0.40475  0.96007  1.0000
  H   H121      1.0  0.09439  0.00842  0.59258  1.0000
  Fe  Fe7       1.0  0.44736  0.22136  0.96654  1.0000
  S   S14       1.0  0.42435  0.18043  0.92536  1.0000
  C   C71       1.0  0.03764  0.36024  0.76041  1.0000
  S   S15       1.0  0.44836  0.28108  0.95898  1.0000
  H   H122      1.0  0.46669  0.07625  0.92917  1.0000
  C   C72       1.0  0.11897  0.49760  0.89870  1.0000
  H   H123      1.0  0.08125  0.45979  0.67330  1.0000
  H   H124      1.0  0.02436  0.33398  0.67893  1.0000
  C   C73       1.0  0.13627  0.10902  0.50425  1.0000
  C   C74       1.0  0.45413  0.05445  0.56151  1.0000
  H   H125      1.0  0.08768  0.34682  0.80812  1.0000
  H   H126      1.0  0.05850  0.46357  0.97806  1.0000
  C   C75       1.0  0.09914  0.40957  0.69024  1.0000
  H   H127      1.0  0.08357  0.04547  0.54137  1.0000
  C   C76       1.0  0.14366  0.35068  0.80198  1.0000
  H   H128      1.0  0.11565  0.44441  0.64645  1.0000
  C   C77       1.0  0.41190  0.09467  0.65753  1.0000
  C   C78       1.0  0.44152  0.06582  0.94205  1.0000
  H   H129      1.0  0.37662  0.46830  0.91520  1.0000
  H   H130      1.0  0.03820  0.33569  0.77653  1.0000
  C   C79       1.0  0.46534  0.04660  0.52304  1.0000
  C   C80       1.0  0.44615  0.15183  0.89707  1.0000
  C   C81       1.0  0.42648  0.13148  0.87115  1.0000
  C   C82       1.0  0.44262  0.10852  0.84802  1.0000
  H   H131      1.0  0.46617  0.42438  0.98705  1.0000
  H   H132      1.0  0.07781  0.28164  0.65910  1.0000
  S   S16       1.0  0.01314  0.31922  0.56810  1.0000
  H   H133      1.0  0.39852  0.13349  0.86885  1.0000
  H   H134      1.0  0.02559  0.42993  0.99242  1.0000
  C   C83       1.0  0.37592  0.05256  0.53175  1.0000
  H   H135      1.0  0.36121  0.31665  0.96521  1.0000
  H   H136      1.0  0.42321  0.08668  0.94075  1.0000
  H   H137      1.0  0.34393  0.44795  0.94468  1.0000
  C   C84       1.0  0.32404  0.35620  0.96314  1.0000
  H   H138      1.0  0.15524  0.45899  0.88770  1.0000
  H   H139      1.0  0.31514  0.34849  0.93682  1.0000
  H   H140      1.0  0.42710  0.09321  0.82811  1.0000
  C   C85       1.0  0.00628  0.37412  0.61500  1.0000
  H   H141      1.0  0.02997  0.38682  0.60258  1.0000
  C   C86       1.0  0.44735  0.41219  0.96695  1.0000
  H   H142      1.0  0.13103  0.01086  0.56237  1.0000
  C   C87       1.0  0.08945  0.14860  0.51082  1.0000
  N   N6        1.0  0.42156  0.03244  0.57573  1.0000
  S   S17       1.0  0.42106  0.00592  0.79325  1.0000
  H   H143      1.0  0.42179  0.04239  0.89251  1.0000
  H   H144      1.0  0.38327  0.08825  0.66303  1.0000
  C   C88       1.0  0.35023  0.33812  0.97914  1.0000
  H   H145      1.0  0.06006  0.42004  0.72901  1.0000
  H   H146      1.0  0.39869  0.08045  0.59148  1.0000
  C   C89       1.0  0.48217  0.14856  0.89993  1.0000
  H   H147      1.0  0.04297  0.39244  0.69420  1.0000
  H   H148      1.0  0.42962  0.39016  0.97926  1.0000
  H   H149      1.0  0.44631  0.05586  0.50406  1.0000
  C   C90       1.0  0.19541  0.34073  0.99736  1.0000
  C   C91       1.0  0.31076  0.48279  0.89549  1.0000
  S   S18       1.0  0.01375  0.47638  0.70883  1.0000
  H   H150      1.0  0.49411  0.11526  0.96714  1.0000
  H   H151      1.0  0.03520  0.26981  0.67986  1.0000
  H   H152      1.0  0.07128  0.42270  0.64281  1.0000
  C   C92       1.0  0.40286  0.45599  0.98028  1.0000
  C   C93       1.0  0.31830  0.02695  0.65356  1.0000
  H   H153      1.0  0.39956  0.02284  0.93094  1.0000
  C   C94       1.0  0.13226  0.47066  0.87866  1.0000
  H   H154      1.0  0.42582  0.09876  0.68315  1.0000
  N   N7        1.0  0.38259  0.48652  0.96958  1.0000
  Fe  Fe8       1.0  0.41355  0.00788  0.73427  1.0000
  H   H155      1.0  0.39515  0.07629  0.52626  1.0000
  H   H156      1.0  0.12678  0.43872  0.83099  1.0000
  H   H157      1.0  0.45015  0.00608  0.61559  1.0000
  C   C95       1.0  0.42594  0.44040  0.95147  1.0000
  H   H158      1.0  0.41613  0.11995  0.64234  1.0000
  H   H159      1.0  0.42415  0.04037  0.65469  1.0000
  H   H160      1.0  0.03961  0.38324  0.77942  1.0000
  H   H161      1.0  0.03787  0.28802  0.63608  1.0000
  C   C96       1.0  0.42611  0.06405  0.63710  1.0000
  H   H162      1.0  0.37858  0.04071  0.61126  1.0000
  H   H163      1.0  0.38626  0.08271  0.99107  1.0000
  C   C97       1.0  0.40456  0.05462  0.60301  1.0000
  H   H164      1.0  0.45093  0.08359  0.56234  1.0000
  C   C98       1.0  0.34342  0.00799  0.67003  1.0000
  H   H165      1.0  0.04244  0.05225  0.49970  1.0000
  H   H166      1.0  0.16398  0.34711  0.78156  1.0000
  C   C99       1.0  0.48071  0.25655  0.86877  1.0000
  H   H167      1.0  0.47708  0.05167  0.57899  1.0000
  H   H168      1.0  0.02865  0.37586  0.50610  1.0000
  S   S19       1.0  0.46561  0.04117  0.72495  1.0000
  H   H169      1.0  0.07022  0.15990  0.52731  1.0000
  H   H170      1.0  0.10274  0.31651  0.77560  1.0000
  H   H171      1.0  0.39116  0.26482  0.85467  1.0000
  H   H172      1.0  0.37820  0.14803  0.98988  1.0000
  S   S20       1.0  0.36390  0.02545  0.70942  1.0000
  N   N8        1.0  0.06850  0.36452  0.73507  1.0000
  C   C100      1.0  0.06576  0.39686  0.71231  1.0000
  H   H173      1.0  0.46266  0.40041  0.94569  1.0000
  C   C101      1.0  0.10157  0.37196  0.75699  1.0000
  C   C102      1.0  0.07067  0.33049  0.71380  1.0000
  C   C103      1.0  0.05175  0.32728  0.67748  1.0000
  H   H174      1.0  0.11050  0.38664  0.67772  1.0000
  H   H175      1.0  0.48907  0.32545  0.84600  1.0000
  C   C104      1.0  0.30219  0.01454  0.62165  1.0000
  H   H176      1.0  0.48361  0.28051  0.88646  1.0000
  C   C105      1.0  0.05070  0.28932  0.66237  1.0000
  C   C106      1.0  0.10668  0.34430  0.78619  1.0000
  C   C107      1.0  0.33457  0.50009  0.92467  1.0000
  H   H177      1.0  0.35586  0.06083  0.55060  1.0000
  H   H178      1.0  0.29408  0.45887  0.90554  1.0000
  S   S21       1.0  0.26035  0.04725  0.50607  1.0000
  H   H179      1.0  0.14850  0.37817  0.81330  1.0000
  Fe  Fe9       1.0  0.18524  0.49588  0.96898  1.0000
  H   H180      1.0  0.12543  0.37334  0.73985  1.0000
  H   H181      1.0  0.09865  0.32666  0.70793  1.0000
  C   C108      1.0  0.44821  0.05477  0.98061  1.0000
  H   H182      1.0  0.06589  0.34571  0.65810  1.0000
  H   H183      1.0  0.21002  0.34043  0.97194  1.0000
  H   H184      1.0  0.11957  0.42387  0.70763  1.0000
  H   H185      1.0  0.10777  0.11651  0.55249  1.0000
  H   H186      1.0  0.17854  0.36289  0.99662  1.0000
  S   S22       1.0  0.16274  0.07843  0.52414  1.0000
  Fe  Fe10      1.0  0.24397  0.44798  0.98326  1.0000
  H   H187      1.0  0.10244  0.39875  0.77011  1.0000
  C   C109      1.0  0.11606  0.45922  0.84652  1.0000
  Fe  Fe11      1.0  0.01903  0.47948  0.76809  1.0000
  H   H188      1.0  0.31152  0.05160  0.66539  1.0000
  C   C110      1.0  0.47878  0.10577  0.85037  1.0000
  S   S23       1.0  0.18491  0.44060  0.99112  1.0000
  H   H189      1.0  0.41075  0.24707  0.89276  1.0000
  H   H190      1.0  0.45436  0.07216  0.63120  1.0000
  H   H191      1.0  0.44471  0.46165  0.93956  1.0000
  C   C111      1.0  0.44597  0.25602  0.84744  1.0000
  C   C112      1.0  0.09118  0.43569  0.66145  1.0000
  C   C113      1.0  0.00691  0.48116  0.98741  1.0000
  C   C114      1.0  0.39425  0.02157  0.54777  1.0000
  H   H192      1.0  0.40923  0.42675  0.93040  1.0000
  H   H193      1.0  0.46650  0.01772  0.51816  1.0000
  Fe  Fe12      1.0  0.47465  0.03515  0.78344  1.0000
  C   C115      1.0  0.35998  0.47380  0.93832  1.0000
  C   C116      1.0  0.42561  0.03378  0.92008  1.0000
  H   H194      1.0  0.14626  0.33117  0.82341  1.0000
  C   C117      1.0  0.09155  0.00597  0.50002  1.0000
  C   C118      1.0  0.30887  0.38365  0.98107  1.0000
  H   H195      1.0  0.32675  0.47468  0.87286  1.0000
  S   S24       1.0  0.06749  0.45955  0.79316  1.0000
  H   H196      1.0  0.28312  0.02955  0.60917  1.0000
  S   S25       1.0  0.24352  0.50155  0.95650  1.0000
  C   C119      1.0  0.41564  0.26606  0.87055  1.0000
  H   H197      1.0  0.02201  0.48771  0.93198  1.0000
  H   H198      1.0  0.42374  0.03953  0.99114  1.0000
  H   H199      1.0  0.40553  0.00701  0.52578  1.0000
  H   H200      1.0  0.44859  0.27502  0.82517  1.0000
  C   C120      1.0  0.08027  0.01585  0.53796  1.0000
  Fe  Fe13      1.0  0.20071  0.04029  0.50199  1.0000
  H   H201      1.0  0.44349  0.01238  0.91949  1.0000
  C   C121      1.0  0.99867  0.47720  0.94799  1.0000
  H   H202      1.0  0.33707  0.01731  0.50208  1.0000
  H   H203      1.0  0.43818  0.22866  0.83671  1.0000
  S   S26       1.0  0.00035  0.21308  0.53689  1.0000
  H   H204      1.0  0.00075  0.41898  0.65000  1.0000
  H   H205      1.0  0.99662  0.38200  0.72935  1.0000
  C   C122      1.0  0.00034  0.35745  0.74421  1.0000
  H   H206      1.0  0.47644  0.23341  0.88701  1.0000
  H   H207      1.0  0.48818  0.21865  0.80790  1.0000
  H   H208      1.0  0.05224  0.00610  0.54322  1.0000
  H   H209      1.0  0.29310  0.50224  0.88601  1.0000
  C   C123      1.0  0.03649  0.45822  0.99746  1.0000
  H   H210      1.0  0.35603  0.54041  0.06041  1.0000
  H   H211      1.0  0.33626  0.89054  0.19066  1.0000
  C   C124      1.0  0.48700  0.82037  0.12422  1.0000
  H   H212      1.0  0.28494  0.88542  0.46690  1.0000
  H   H213      1.0  0.00183  0.79952  0.34563  1.0000
  H   H214      1.0  0.37797  0.96413  0.48444  1.0000
  H   H215      1.0  0.47704  0.87554  0.26679  1.0000
  S   S27       1.0  0.16600  0.91314  0.45471  1.0000
  H   H216      1.0  0.34495  0.93036  0.13745  1.0000
  H   H217      1.0  0.01235  0.99402  0.49330  1.0000
  H   H218      1.0  0.49189  0.79265  0.12199  1.0000
  C   C125      1.0  0.11679  0.97044  0.39341  1.0000
  H   H219      1.0  0.08312  0.54017  0.31957  1.0000
  S   S28       1.0  0.38933  0.95160  0.30621  1.0000
  H   H220      1.0  0.43088  0.87506  0.21085  1.0000
  C   C126      1.0  0.33894  0.95890  0.35733  1.0000
  Fe  Fe14      1.0  0.47261  0.76939  0.02732  1.0000
  H   H221      1.0  0.13986  0.99125  0.39462  1.0000
  H   H222      1.0  0.33376  0.93003  0.35582  1.0000
  H   H223      1.0  0.01387  0.56888  0.42420  1.0000
  C   C127      1.0  0.03197  0.98270  0.47582  1.0000
  N   N9        1.0  0.45751  0.97913  0.40658  1.0000
  H   H224      1.0  0.11446  0.96229  0.44899  1.0000
  H   H225      1.0  0.00626  0.54203  0.34815  1.0000
  C   C128      1.0  0.45966  0.94392  0.38754  1.0000
  H   H226      1.0  0.05188  0.58145  0.38042  1.0000
  Fe  Fe15      1.0  0.25140  0.52418  0.01130  1.0000
  H   H227      1.0  0.03137  0.50536  0.34905  1.0000
  C   C129      1.0  0.38470  0.90248  0.16361  1.0000
  H   H228      1.0  0.41570  0.90083  0.24532  1.0000
  C   C130      1.0  0.05837  0.55592  0.36844  1.0000
  H   H229      1.0  0.47419  0.89694  0.33436  1.0000
  Fe  Fe16      1.0  0.19888  0.96381  0.47401  1.0000
  H   H230      1.0  0.30207  0.88367  0.23701  1.0000
  H   H231      1.0  0.12329  0.57077  0.01039  1.0000
  C   C131      1.0  0.11189  0.85904  0.46180  1.0000
  C   C132      1.0  0.31923  0.97812  0.38097  1.0000
  H   H232      1.0  0.12073  0.84974  0.43653  1.0000
  H   H233      1.0  0.07053  0.81500  0.46729  1.0000
  H   H234      1.0  0.29659  0.82327  0.29160  1.0000
  H   H235      1.0  0.25804  0.84278  0.46465  1.0000
  C   C133      1.0  0.03703  0.94561  0.49180  1.0000
  Fe  Fe17      1.0  0.01321  0.50851  0.21396  1.0000
  H   H236      1.0  0.11373  0.55314  0.12910  1.0000
  C   C134      1.0  0.49535  0.90110  0.35448  1.0000
  H   H237      1.0  0.99776  0.77067  0.38332  1.0000
  C   C135      1.0  0.36499  0.97683  0.33546  1.0000
  H   H238      1.0  0.37020  0.79637  0.13352  1.0000
  C   C136      1.0  0.12927  0.89036  0.47703  1.0000
  C   C137      1.0  0.25860  0.87118  0.47325  1.0000
  C   C138      1.0  0.45930  0.87063  0.10261  1.0000
  H   H239      1.0  0.47184  0.83048  0.28342  1.0000
  C   C139      1.0  0.37691  0.64008  0.00988  1.0000
  H   H240      1.0  0.46483  0.95767  0.48084  1.0000
  H   H241      1.0  0.29903  0.96404  0.39737  1.0000
  Fe  Fe18      1.0  0.43456  0.97673  0.27166  1.0000
  H   H242      1.0  0.49085  0.87990  0.37477  1.0000
  C   C140      1.0  0.40025  0.81842  0.17899  1.0000
  H   H243      1.0  0.05617  0.57653  0.31490  1.0000
  C   C141      1.0  0.00360  0.91940  0.48818  1.0000
  H   H244      1.0  0.37568  0.76415  0.16793  1.0000
  H   H245      1.0  0.45262  0.92075  0.40504  1.0000
  H   H246      1.0  0.35372  0.92517  0.46491  1.0000
  H   H247      1.0  0.11621  0.50578  0.01741  1.0000
  C   C142      1.0  0.09625  0.96912  0.42819  1.0000
  H   H248      1.0  0.03172  0.65895  0.34755  1.0000
  C   C143      1.0  0.47214  0.89157  0.13183  1.0000
  H   H249      1.0  0.07423  0.94737  0.42546  1.0000
  N   N10       1.0  0.00692  0.51659  0.39909  1.0000
  H   H250      1.0  0.12672  0.94412  0.38851  1.0000
  H   H251      1.0  0.15584  0.52031  0.09507  1.0000
  S   S29       1.0  0.19324  0.52329  0.02204  1.0000
  H   H252      1.0  0.35668  0.84009  0.27021  1.0000
  C   C144      1.0  0.13678  0.50581  0.11239  1.0000
  H   H253      1.0  0.41204  0.77952  0.13929  1.0000
  H   H254      1.0  0.41872  0.92943  0.45271  1.0000
  S   S30       1.0  0.48588  0.95384  0.27818  1.0000
  H   H255      1.0  0.29701  0.87070  0.30114  1.0000
  C   C145      1.0  0.46419  0.84797  0.26197  1.0000
  C   C146      1.0  0.38864  0.78769  0.15349  1.0000
  H   H256      1.0  0.39202  0.92761  0.41369  1.0000
  H   H257      1.0  0.37914  0.87936  0.14531  1.0000
  H   H258      1.0  0.23844  0.88393  0.45825  1.0000
  C   C147      1.0  0.29036  0.84932  0.28103  1.0000
  H   H259      1.0  0.41367  0.84059  0.16331  1.0000
  H   H260      1.0  0.26157  0.84736  0.27585  1.0000
  C   C148      1.0  0.11283  0.52438  0.13171  1.0000
  C   C149      1.0  0.08339  0.83932  0.47914  1.0000
  C   C150      1.0  0.31074  0.85829  0.24683  1.0000
  C   C151      1.0  0.35111  0.51103  0.06463  1.0000
  C   C152      1.0  0.07501  0.56471  0.33235  1.0000
  H   H261      1.0  0.35715  0.88745  0.26994  1.0000
  C   C153      1.0  0.02474  0.52877  0.36496  1.0000
  H   H262      1.0  0.39476  0.65884  0.02481  1.0000
  S   S31       1.0  0.44728  0.80857  0.06329  1.0000
  H   H263      1.0  0.36698  0.92073  0.21451  1.0000
  N   N11       1.0  0.37441  0.86488  0.22084  1.0000
  H   H264      1.0  0.41336  0.90762  0.16827  1.0000
  S   S32       1.0  0.05797  0.53101  0.17755  1.0000
  H   H265      1.0  0.34564  0.82991  0.18265  1.0000
  C   C154      1.0  0.46700  0.83507  0.09841  1.0000
  S   S33       1.0  0.43647  0.97094  0.21261  1.0000
  C   C155      1.0  0.48759  0.95740  0.46256  1.0000
  H   H266      1.0  0.41542  0.85566  0.28785  1.0000
  S   S34       1.0  0.47427  0.70969  0.03284  1.0000
  H   H267      1.0  0.34581  0.62194  0.05529  1.0000
  C   C156      1.0  0.37326  0.93509  0.14473  1.0000
  H   H268      1.0  0.38907  0.94006  0.12023  1.0000
  H   H269      1.0  0.30316  0.83660  0.22735  1.0000
  H   H270      1.0  0.43979  0.94073  0.36590  1.0000
  H   H271      1.0  0.09873  0.58446  0.33550  1.0000
  H   H272      1.0  0.05878  0.93313  0.47916  1.0000
  S   S35       1.0  0.29108  0.56941  0.03138  1.0000
  H   H273      1.0  0.99779  0.91335  0.45994  1.0000
  H   H274      1.0  0.37751  0.95945  0.16165  1.0000
  H   H275      1.0  0.00534  0.60989  0.30819  1.0000
  C   C157      1.0  0.42414  0.84751  0.26123  1.0000
  H   H276      1.0  0.42033  0.80915  0.19677  1.0000
  C   C158      1.0  0.36852  0.82971  0.20078  1.0000
  H   H277      1.0  0.41252  0.81950  0.25640  1.0000
  C   C159      1.0  0.41199  0.87352  0.23323  1.0000
  H   H278      1.0  0.36077  0.80707  0.21905  1.0000
  C   C160      1.0  0.35112  0.86288  0.25333  1.0000
  C   C161      1.0  0.36435  0.89539  0.19866  1.0000
  H   H279      1.0  0.11479  0.55929  0.05591  1.0000
  C   C162      1.0  0.49613  0.93822  0.37152  1.0000
  H   H280      1.0  0.47392  0.83791  0.23651  1.0000
  S   S36       1.0  0.25789  0.96525  0.47474  1.0000
  H   H281      1.0  0.40282  0.98994  0.40318  1.0000
  H   H282      1.0  0.46678  0.91917  0.13423  1.0000
  C   C163      1.0  0.36951  0.95113  0.45906  1.0000
  C   C164      1.0  0.40161  0.94468  0.43657  1.0000
  C   C165      1.0  0.42125  0.98038  0.42284  1.0000
  S   S37       1.0  0.00561  0.69462  0.40784  1.0000
  C   C166      1.0  0.34915  0.61912  0.02708  1.0000
  H   H283      1.0  0.35236  0.96837  0.44507  1.0000
  H   H284      1.0  0.09961  0.97618  0.37107  1.0000
  C   C167      1.0  0.48597  0.98639  0.43402  1.0000
  H   H285      1.0  0.44336  0.88207  0.08308  1.0000
  H   H286      1.0  0.48749  0.93023  0.45094  1.0000
  H   H287      1.0  0.01852  0.97796  0.44991  1.0000
  H   H288      1.0  0.05168  0.52505  0.43436  1.0000
  C   C168      1.0  0.49187  0.87675  0.15779  1.0000
  H   H289      1.0  0.41702  0.54829  0.00806  1.0000
  H   H290      1.0  0.04227  0.51833  0.04373  1.0000
  C   C169      1.0  0.32552  0.59481  0.00810  1.0000
  Fe  Fe19      1.0  0.48987  0.95260  0.21895  1.0000
  H   H291      1.0  0.07871  0.54517  0.38477  1.0000
  S   S38       1.0  0.01353  0.51196  0.27335  1.0000
  C   C170      1.0  0.00556  0.64592  0.35314  1.0000
  C   C171      1.0  0.08772  0.50611  0.15431  1.0000
  H   H292      1.0  0.08017  0.57405  0.02891  1.0000
  C   C172      1.0  0.10310  0.55829  0.02909  1.0000
  C   C173      1.0  0.09205  0.51952  0.01776  1.0000
  H   H293      1.0  0.42249  0.00045  0.44471  1.0000
  H   H294      1.0  0.35961  0.50521  0.09174  1.0000
  H   H295      1.0  0.44466  0.00219  0.35664  1.0000
  H   H296      1.0  0.10621  0.79021  0.55046  1.0000
  N   N12       1.0  0.36837  0.74918  0.87201  1.0000
  H   H297      1.0  0.39146  0.78727  0.91093  1.0000
  C   C174      1.0  0.08910  0.51254  0.88651  1.0000
  S   S39       1.0  0.00037  0.53389  0.77076  1.0000
  H   H298      1.0  0.46025  0.70037  0.89164  1.0000
  Fe  Fe20      1.0  0.25560  0.99147  0.52812  1.0000
  C   C175      1.0  0.34328  0.79910  0.83533  1.0000
  H   H299      1.0  0.17596  0.96033  0.59774  1.0000
  S   S40       1.0  0.43473  0.95538  0.72505  1.0000
  Fe  Fe21      1.0  0.44696  0.95564  0.78322  1.0000
  H   H300      1.0  0.46515  0.94165  0.61518  1.0000
  H   H301      1.0  0.46300  0.70660  0.84442  1.0000
  C   C176      1.0  0.32999  0.59145  0.97162  1.0000
  C   C177      1.0  0.38130  0.63688  0.97344  1.0000
  H   H302      1.0  0.46729  0.84190  0.72967  1.0000
  H   H303      1.0  0.37992  0.72850  0.94431  1.0000
  H   H304      1.0  0.00249  0.67268  0.59109  1.0000
  H   H305      1.0  0.35476  0.75304  0.99677  1.0000
  H   H306      1.0  0.34176  0.93848  0.61145  1.0000
  C   C178      1.0  0.16686  0.83683  0.56347  1.0000
  Fe  Fe22      1.0  0.48754  0.98835  0.71813  1.0000
  H   H307      1.0  0.34691  0.67028  0.86058  1.0000
  H   H308      1.0  0.44941  0.82311  0.91355  1.0000
  H   H309      1.0  0.01446  0.51002  0.99289  1.0000
  C   C179      1.0  0.45038  0.93673  0.59015  1.0000
  C   C180      1.0  0.21505  0.85430  0.52260  1.0000
  C   C181      1.0  0.35908  0.74627  0.94002  1.0000
  H   H310      1.0  0.21670  0.82582  0.51541  1.0000
  S   S41       1.0  0.19622  0.98615  0.52858  1.0000
  C   C182      1.0  0.37420  0.77662  0.84295  1.0000
  H   H311      1.0  0.34941  0.52437  0.91319  1.0000
  H   H312      1.0  0.15711  0.83736  0.59116  1.0000
  H   H313      1.0  0.29753  0.82939  0.60179  1.0000
  C   C183      1.0  0.28547  0.84795  0.61998  1.0000
  C   C184      1.0  0.33524  0.96333  0.62303  1.0000
  H   H314      1.0  0.12595  0.74902  0.55351  1.0000
  H   H315      1.0  0.34124  0.68384  0.90521  1.0000
  H   H316      1.0  0.17647  0.94571  0.64269  1.0000
  H   H317      1.0  0.47591  0.98281  0.56385  1.0000
  C   C185      1.0  0.49355  0.88245  0.83860  1.0000
  H   H318      1.0  0.31863  0.78189  0.82867  1.0000
  H   H319      1.0  0.12456  0.77752  0.59186  1.0000
  C   C186      1.0  0.43647  0.74680  0.87269  1.0000
  S   S42       1.0  0.29114  0.96539  0.56631  1.0000
  C   C187      1.0  0.35225  0.82425  0.80426  1.0000
  H   H320      1.0  0.34553  0.78710  0.90586  1.0000
  H   H321      1.0  0.18338  0.90764  0.54722  1.0000
  H   H322      1.0  0.16563  0.79438  0.52298  1.0000
  C   C188      1.0  0.46426  0.72059  0.87037  1.0000
  C   C189      1.0  0.25912  0.86819  0.60030  1.0000
  Fe  Fe23      1.0  0.45501  0.70524  0.97674  1.0000
  H   H323      1.0  0.27230  0.83252  0.64216  1.0000
  H   H324      1.0  0.33330  0.78476  0.97152  1.0000
  C   C190      1.0  0.48121  0.86923  0.73348  1.0000
  H   H325      1.0  0.39718  0.79661  0.84916  1.0000
  S   S43       1.0  0.13865  0.51387  0.93890  1.0000
  C   C191      1.0  0.45747  0.88261  0.84514  1.0000
  H   H326      1.0  0.18468  0.78284  0.56437  1.0000
  H   H327      1.0  0.47163  0.58313  0.99170  1.0000
  H   H328      1.0  0.44191  0.76578  0.85057  1.0000
  H   H329      1.0  0.44032  0.76166  0.89787  1.0000
  H   H330      1.0  0.41395  0.86122  0.87788  1.0000
  H   H331      1.0  0.29210  0.64047  0.88593  1.0000
  C   C192      1.0  0.16373  0.79681  0.55213  1.0000
  H   H332      1.0  0.15165  0.89725  0.60128  1.0000
  C   C193      1.0  0.22792  0.84212  0.58551  1.0000
  H   H333      1.0  0.24940  0.88756  0.61923  1.0000
  C   C194      1.0  0.25171  0.87361  0.51293  1.0000
  H   H334      1.0  0.08063  0.89117  0.55268  1.0000
  C   C195      1.0  0.18811  0.94249  0.61611  1.0000
  C   C196      1.0  0.36673  0.76918  0.90657  1.0000
  H   H335      1.0  0.27373  0.88408  0.57945  1.0000
  C   C197      1.0  0.46165  0.83892  0.89224  1.0000
  H   H336      1.0  0.08158  0.52009  0.99056  1.0000
  C   C198      1.0  0.07215  0.85060  0.51211  1.0000
  H   H337      1.0  0.37637  0.84282  0.80995  1.0000
  H   H338      1.0  0.19523  0.86390  0.50447  1.0000
  H   H339      1.0  0.33797  0.81617  0.85830  1.0000
  C   C199      1.0  0.40660  0.51917  0.95837  1.0000
  H   H340      1.0  0.39746  0.71037  0.84608  1.0000
  C   C200      1.0  0.18069  0.90346  0.60404  1.0000
  H   H341      1.0  0.14748  0.84966  0.54743  1.0000
  C   C201      1.0  0.33406  0.72581  0.86500  1.0000
  C   C202      1.0  0.12794  0.77732  0.56274  1.0000
  H   H342      1.0  0.25414  0.90232  0.52033  1.0000
  H   H343      1.0  0.35657  0.80877  0.77984  1.0000
  C   C203      1.0  0.29306  0.66882  0.87744  1.0000
  H   H344      1.0  0.38067  0.78976  0.97536  1.0000
  H   H345      1.0  0.33021  0.84060  0.79964  1.0000
  H   H346      1.0  0.33313  0.72993  0.93800  1.0000
  H   H347      1.0  0.03220  0.63723  0.63472  1.0000
  S   S44       1.0  0.03816  0.82523  0.53608  1.0000
  H   H348      1.0  0.36101  0.60985  0.92615  1.0000
  H   H349      1.0  0.31761  0.50862  0.94615  1.0000
  H   H350      1.0  0.27650  0.68292  0.89591  1.0000
  H   H351      1.0  0.21696  0.95082  0.61769  1.0000
  C   C204      1.0  0.08920  0.88224  0.52718  1.0000
  H   H352      1.0  0.30683  0.86740  0.63094  1.0000
  H   H353      1.0  0.38079  0.76328  0.81776  1.0000
  H   H354      1.0  0.18938  0.88625  0.62520  1.0000
  H   H355      1.0  0.37092  0.96112  0.66706  1.0000
  H   H356      1.0  0.47231  0.88691  0.71277  1.0000
  H   H357      1.0  0.43359  0.96499  0.54593  1.0000
  H   H358      1.0  0.22475  0.91333  0.56751  1.0000
  C   C205      1.0  0.39877  0.72662  0.87087  1.0000
  H   H359      1.0  0.31145  0.73877  0.87602  1.0000
  H   H360      1.0  0.28206  0.66930  0.85039  1.0000
  C   C206      1.0  0.44845  0.97183  0.57050  1.0000
  H   H361      1.0  0.13040  0.92639  0.52151  1.0000
  H   H362      1.0  0.27267  0.86053  0.52622  1.0000
  H   H363      1.0  0.04315  0.94836  0.52035  1.0000
  N   N13       1.0  0.20305  0.85766  0.56039  1.0000
  C   C207      1.0  0.19901  0.89646  0.56832  1.0000
  C   C208      1.0  0.31054  0.98258  0.60629  1.0000
  S   S45       1.0  0.44868  0.76391  0.97304  1.0000
  S   S46       1.0  0.41571  0.66281  0.95069  1.0000
  H   H364      1.0  0.47442  0.55851  0.95087  1.0000
  H   H365      1.0  0.42347  0.92369  0.59623  1.0000
  H   H366      1.0  0.21338  0.83061  0.60909  1.0000
  C   C209      1.0  0.33118  0.68632  0.87812  1.0000
  C   C210      1.0  0.35784  0.61237  0.95439  1.0000
  H   H367      1.0  0.39693  0.70710  0.89276  1.0000
  C   C211      1.0  0.10287  0.00036  0.56591  1.0000
  C   C212      1.0  0.11749  0.90219  0.50963  1.0000
  H   H368      1.0  0.32913  0.72324  0.83607  1.0000
  C   C213      1.0  0.44171  0.86084  0.87220  1.0000
  S   S47       1.0  0.43055  0.90768  0.81901  1.0000
  C   C214      1.0  0.35183  0.97608  0.65456  1.0000
  H   H369      1.0  0.23908  0.81901  0.57279  1.0000
  H   H370      1.0  0.10005  0.97063  0.56430  1.0000
  H   H371      1.0  0.31169  0.57320  0.95668  1.0000
  H   H372      1.0  0.49095  0.73546  0.87335  1.0000
  H   H373      1.0  0.09966  0.97860  0.50074  1.0000
  C   C215      1.0  0.35690  0.77000  0.97281  1.0000
  H   H374      1.0  0.05009  0.51297  0.84523  1.0000
  C   C216      1.0  0.00513  0.62885  0.62748  1.0000
  H   H375      1.0  0.07870  0.53346  0.90176  1.0000
  H   H376      1.0  0.44009  0.58748  0.95768  1.0000
  H   H377      1.0  0.40724  0.98488  0.60644  1.0000
  C   C217      1.0  0.45603  0.56828  0.97058  1.0000
  H   H378      1.0  0.44929  0.51777  0.99737  1.0000
  H   H379      1.0  0.00497  0.69194  0.67303  1.0000
  S   S48       1.0  0.00705  0.72084  0.50890  1.0000
  H   H380      1.0  0.46424  0.91815  0.57359  1.0000
  H   H381      1.0  0.35186  0.52380  0.99661  1.0000
  C   C218      1.0  0.43219  0.53695  0.98645  1.0000
  S   S49       1.0  0.00868  0.57623  0.67702  1.0000
  H   H382      1.0  0.47382  0.87934  0.75978  1.0000
  H   H383      1.0  0.39072  0.54082  0.95038  1.0000
  Fe  Fe24      1.0  0.00031  0.77984  0.51234  1.0000
  C   C219      1.0  0.43112  0.99913  0.59376  1.0000
  H   H384      1.0  0.42196  0.51326  0.93445  1.0000
  H   H385      1.0  0.37283  0.00207  0.55880  1.0000
  H   H386      1.0  0.00736  0.89384  0.50151  1.0000
  Fe  Fe25      1.0  0.96417  0.26292  0.45703  1.0000
  C   C220      1.0  0.88466  0.45048  0.46612  1.0000
  H   H387      1.0  0.63409  0.48806  0.13526  1.0000
  C   C221      1.0  0.58462  0.02385  0.38019  1.0000
  S   S50       1.0  0.96796  0.20322  0.45601  1.0000
  C   C222      1.0  0.53905  0.48481  0.03034  1.0000
  C   C223      1.0  0.76935  0.36607  0.02619  1.0000
  C   C224      1.0  0.95946  0.32926  0.38585  1.0000
  H   H388      1.0  0.98943  0.46474  0.37623  1.0000
  H   H389      1.0  0.68259  0.39708  0.15131  1.0000
  C   C225      1.0  0.85294  0.46082  0.11448  1.0000
  S   S51       1.0  0.54822  0.03347  0.31906  1.0000
  S   S52       1.0  0.78039  0.06193  0.45902  1.0000
  H   H390      1.0  0.63615  0.34999  0.16915  1.0000
  S   S53       1.0  0.93156  0.47378  0.27043  1.0000
  H   H391      1.0  0.66860  0.33641  0.09658  1.0000
  H   H392      1.0  0.80083  0.39974  0.12506  1.0000
  H   H393      1.0  0.67791  0.04849  0.31912  1.0000
  H   H394      1.0  0.88446  0.15209  0.46064  1.0000
  H   H395      1.0  0.68584  0.11255  0.30925  1.0000
  C   C226      1.0  0.74224  0.49493  0.14084  1.0000
  H   H396      1.0  0.69513  0.45809  0.14226  1.0000
  H   H397      1.0  0.70953  0.11930  0.39011  1.0000
  H   H398      1.0  0.55759  0.33424  0.03015  1.0000
  H   H399      1.0  0.93102  0.44286  0.34900  1.0000
  H   H400      1.0  0.80559  0.08073  0.31243  1.0000
  C   C227      1.0  0.83892  0.11200  0.46029  1.0000
  C   C228      1.0  0.96983  0.45630  0.10082  1.0000
  C   C229      1.0  0.67162  0.34649  0.12418  1.0000
  H   H401      1.0  0.83126  0.09348  0.35127  1.0000
  C   C230      1.0  0.98853  0.38599  0.34164  1.0000
  C   C231      1.0  0.67019  0.08491  0.41884  1.0000
  H   H402      1.0  0.66584  0.12219  0.35075  1.0000
  Fe  Fe26      1.0  0.98573  0.45567  0.27235  1.0000
  C   C232      1.0  0.95339  0.37141  0.33761  1.0000
  H   H403      1.0  0.53527  0.15608  0.13387  1.0000
  C   C233      1.0  0.60245  0.37479  0.03357  1.0000
  H   H404      1.0  0.75969  0.33705  0.02540  1.0000
  H   H405      1.0  0.62026  0.45169  0.10529  1.0000
  C   C234      1.0  0.86720  0.13359  0.47632  1.0000
  H   H406      1.0  0.61395  0.01725  0.42808  1.0000
  H   H407      1.0  0.91188  0.33195  0.35603  1.0000
  H   H408      1.0  0.78020  0.05083  0.36673  1.0000
  C   C235      1.0  0.50796  0.14516  0.13106  1.0000
  H   H409      1.0  0.81655  0.46654  0.07179  1.0000
  H   H410      1.0  0.80311  0.12409  0.33314  1.0000
  C   C236      1.0  0.94741  0.49695  0.36820  1.0000
  C   C237      1.0  0.99445  0.34409  0.39002  1.0000
  C   C238      1.0  0.57676  0.35176  0.01552  1.0000
  H   H411      1.0  0.79225  0.37353  0.20150  1.0000
  C   C239      1.0  0.66613  0.10202  0.32931  1.0000
  Fe  Fe27      1.0  0.93755  0.47477  0.21107  1.0000
  C   C240      1.0  0.67192  0.10897  0.45165  1.0000
  H   H412      1.0  0.79658  0.36978  0.01531  1.0000
  H   H413      1.0  0.73778  0.10991  0.33826  1.0000
  H   H414      1.0  0.64743  0.09126  0.40290  1.0000
  H   H415      1.0  0.60275  0.37486  0.06208  1.0000
  S   S54       1.0  0.68345  0.02132  0.49046  1.0000
  N   N14       1.0  0.72628  0.39361  0.11509  1.0000
  Fe  Fe28      1.0  0.74208  0.01888  0.48523  1.0000
  H   H416      1.0  0.85652  0.44618  0.47432  1.0000
  C   C241      1.0  0.87275  0.47786  0.14225  1.0000
  C   C242      1.0  0.73465  0.43363  0.11092  1.0000
  C   C243      1.0  0.97317  0.37470  0.49196  1.0000
  S   S55       1.0  0.98954  0.45120  0.21288  1.0000
  C   C244      1.0  0.74762  0.37852  0.14381  1.0000
  C   C245      1.0  0.78562  0.39704  0.14984  1.0000
  H   H417      1.0  0.83272  0.39042  0.17973  1.0000
  C   C246      1.0  0.67512  0.06532  0.34303  1.0000
  H   H418      1.0  0.65745  0.48398  0.09430  1.0000
  C   C247      1.0  0.63486  0.34194  0.14088  1.0000
  H   H419      1.0  0.74936  0.34950  0.13882  1.0000
  H   H420      1.0  0.80892  0.34891  0.16486  1.0000
  H   H421      1.0  0.90831  0.45526  0.38845  1.0000
  S   S56       1.0  0.51921  0.00821  0.21602  1.0000
  H   H422      1.0  0.98232  0.18777  0.37666  1.0000
  H   H423      1.0  0.78045  0.40892  0.06318  1.0000
  C   C248      1.0  0.73921  0.08112  0.34419  1.0000
  H   H424      1.0  0.78698  0.36504  0.07952  1.0000
  H   H425      1.0  0.73410  0.37959  0.16986  1.0000
  H   H426      1.0  0.73855  0.01086  0.33075  1.0000
  H   H427      1.0  0.62476  0.12440  0.30047  1.0000
  H   H428      1.0  0.73247  0.02915  0.39818  1.0000
  H   H429      1.0  0.72659  0.08692  0.41641  1.0000
  S   S57       1.0  0.94028  0.29317  0.41236  1.0000
  H   H430      1.0  0.98722  0.49061  0.05775  1.0000
  H   H431      1.0  0.72111  0.44285  0.08722  1.0000
  H   H432      1.0  0.62362  0.31338  0.13911  1.0000
  C   C249      1.0  0.60493  0.00524  0.40328  1.0000
  H   H433      1.0  0.78510  0.42434  0.16111  1.0000
  H   H434      1.0  0.57885  0.05060  0.38706  1.0000
  C   C250      1.0  0.68757  0.38636  0.12451  1.0000
  H   H435      1.0  0.61698  0.35834  0.12675  1.0000
  H   H436      1.0  0.68856  0.32954  0.13880  1.0000
  C   C251      1.0  0.71103  0.02895  0.37832  1.0000
  H   H437      1.0  0.83464  0.11412  0.43224  1.0000
  C   C252      1.0  0.72403  0.45663  0.14259  1.0000
  H   H438      1.0  0.71327  0.38458  0.06014  1.0000
  H   H439      1.0  0.62824  0.07790  0.29046  1.0000
  H   H440      1.0  0.58096  0.50063  0.10374  1.0000
  C   C253      1.0  0.91947  0.46499  0.36283  1.0000
  H   H441      1.0  0.93740  0.38154  0.31731  1.0000
  S   S58       1.0  0.50399  0.20021  0.08428  1.0000
  C   C254      1.0  0.76931  0.38047  0.06404  1.0000
  C   C255      1.0  0.80562  0.09536  0.33802  1.0000
  S   S59       1.0  0.89694  0.45178  0.17019  1.0000
  H   H442      1.0  0.83200  0.44278  0.01161  1.0000
  C   C256      1.0  0.80595  0.37603  0.17558  1.0000
  H   H443      1.0  0.75231  0.38073  0.00909  1.0000
  C   C257      1.0  0.57188  0.00817  0.34822  1.0000
  C   C258      1.0  0.62986  0.09836  0.31191  1.0000
  C   C259      1.0  0.70508  0.09053  0.39754  1.0000
  H   H444      1.0  0.64694  0.10383  0.46685  1.0000
  H   H445      1.0  0.98090  0.44122  0.12244  1.0000
  H   H446      1.0  0.72506  0.34603  0.08199  1.0000
  H   H447      1.0  0.85416  0.43258  0.10964  1.0000
  H   H448      1.0  0.51731  0.05313  0.03889  1.0000
  H   H449      1.0  0.56498  0.16609  0.01944  1.0000
  C   C260      1.0  0.77562  0.07899  0.36166  1.0000
  C   C261      1.0  0.83171  0.48000  0.09293  1.0000
  H   H450      1.0  0.66502  0.05688  0.42762  1.0000
  C   C262      1.0  0.81597  0.08807  0.48034  1.0000
  H   H451      1.0  0.98241  0.47193  0.00210  1.0000
  H   H452      1.0  0.95091  0.21956  0.37012  1.0000
  H   H453      1.0  0.93624  0.45010  0.48798  1.0000
  H   H454      1.0  0.73070  0.44493  0.16814  1.0000
  C   C263      1.0  0.52059  0.47854  0.06651  1.0000
  C   C264      1.0  0.73169  0.37552  0.08003  1.0000
  H   H455      1.0  0.67565  0.13766  0.44409  1.0000
  H   H456      1.0  0.53714  0.46407  0.08416  1.0000
  C   C265      1.0  0.97828  0.48664  0.39098  1.0000
  H   H457      1.0  0.91752  0.00887  0.49335  1.0000
  C   C266      1.0  0.62778  0.39741  0.01496  1.0000
  H   H458      1.0  0.65179  0.05171  0.35712  1.0000
  H   H459      1.0  0.76304  0.44115  0.10561  1.0000
  H   H460      1.0  0.54438  0.45776  0.02100  1.0000
  H   H461      1.0  0.59879  0.46488  0.04618  1.0000
  H   H462      1.0  0.96726  0.47394  0.41566  1.0000
  S   S60       1.0  0.75739  0.46441  0.01077  1.0000
  H   H463      1.0  0.67137  0.40084  0.10633  1.0000
  H   H464      1.0  0.88878  0.43244  0.44350  1.0000
  H   H465      1.0  0.69400  0.10325  0.46898  1.0000
  H   H466      1.0  0.73916  0.06784  0.31785  1.0000
  N   N15       1.0  0.70756  0.06646  0.36572  1.0000
  S   S61       1.0  0.65975  0.42550  0.03895  1.0000
  C   C267      1.0  0.60174  0.49459  0.04928  1.0000
  H   H467      1.0  0.95176  0.43763  0.08462  1.0000
  H   H468      1.0  0.77753  0.09394  0.38704  1.0000
  Fe  Fe29      1.0  0.69894  0.46762  0.01350  1.0000
  H   H469      1.0  0.90212  0.38639  0.48445  1.0000
  H   H470      1.0  0.60896  0.09049  0.33174  1.0000
  C   C268      1.0  0.93900  0.34321  0.35959  1.0000
  H   H471      1.0  0.89774  0.47318  0.34642  1.0000
  H   H472      1.0  0.77118  0.49513  0.14404  1.0000
  C   C269      1.0  0.55186  0.14531  0.00139  1.0000
  H   H473      1.0  0.51214  0.10221  0.16812  1.0000
  H   H474      1.0  0.89064  0.47869  0.45743  1.0000
  H   H475      1.0  0.89975  0.48892  0.01204  1.0000
  C   C270      1.0  0.97735  0.21238  0.36231  1.0000
  H   H476      1.0  0.97723  0.20692  0.33348  1.0000
  C   C271      1.0  0.63104  0.48039  0.10701  1.0000
  Fe  Fe30      1.0  0.51101  0.01035  0.27530  1.0000
  H   H477      1.0  0.95805  0.38185  0.46862  1.0000
  C   C272      1.0  0.51682  0.12964  0.01761  1.0000
  H   H478      1.0  0.68684  0.01787  0.39277  1.0000
  H   H479      1.0  0.51960  0.49322  0.01123  1.0000
  H   H480      1.0  0.50868  0.06139  0.48665  1.0000
  H   H481      1.0  0.95425  0.47648  0.11305  1.0000
  H   H482      1.0  0.82779  0.00717  0.49703  1.0000
  H   H483      1.0  0.52272  0.11784  0.04335  1.0000
  H   H484      1.0  0.51026  0.01063  0.08886  1.0000
  H   H485      1.0  0.99440  0.09921  0.43442  1.0000
  H   H486      1.0  0.88528  0.03942  0.49767  1.0000
  H   H487      1.0  0.50273  0.05523  0.10227  1.0000
  H   H488      1.0  0.50100  0.15215  0.02255  1.0000
  H   H489      1.0  0.96801  0.34537  0.49626  1.0000
  C   C273      1.0  0.90861  0.44318  0.49682  1.0000
  H   H490      1.0  0.60472  0.23574  0.90404  1.0000
  S   S62       1.0  0.96529  0.45039  0.77843  1.0000
  Fe  Fe31      1.0  0.95901  0.45040  0.71917  1.0000
  S   S63       1.0  0.93606  0.39934  0.69038  1.0000
  H   H491      1.0  0.97645  0.49248  0.94111  1.0000
  S   S64       1.0  0.54479  0.32215  0.95481  1.0000
  H   H492      1.0  0.85416  0.10535  0.56071  1.0000
  Fe  Fe32      1.0  0.50255  0.28495  0.98277  1.0000
  H   H493      1.0  0.91240  0.33733  0.51631  1.0000
  H   H494      1.0  0.87369  0.39994  0.51750  1.0000
  C   C274      1.0  0.87935  0.34166  0.56210  1.0000
  H   H495      1.0  0.88101  0.35144  0.58982  1.0000
  C   C275      1.0  0.99194  0.33993  0.60338  1.0000
  C   C276      1.0  0.94470  0.34212  0.64650  1.0000
  H   H496      1.0  0.92707  0.39400  0.59357  1.0000
  H   H497      1.0  0.50663  0.34730  0.78582  1.0000
  N   N16       1.0  0.92540  0.39149  0.53646  1.0000
  C   C277      1.0  0.92117  0.41116  0.57102  1.0000
  H   H498      1.0  0.52238  0.37858  0.82007  1.0000
  C   C278      1.0  0.90158  0.40366  0.50843  1.0000
  H   H499      1.0  0.87071  0.43171  0.98797  1.0000
  S   S65       1.0  0.66427  0.01298  0.59335  1.0000
  C   C279      1.0  0.91467  0.35190  0.54206  1.0000
  H   H500      1.0  0.63084  0.00924  0.76828  1.0000
  H   H501      1.0  0.63281  0.03951  0.65570  1.0000
  H   H502      1.0  0.93549  0.33982  0.55667  1.0000
  S   S66       1.0  0.93443  0.50258  0.71924  1.0000
  C   C280      1.0  0.93326  0.46743  0.60917  1.0000
  H   H503      1.0  0.55255  0.35149  0.79894  1.0000
  H   H504      1.0  0.82725  0.43315  0.86120  1.0000
  C   C281      1.0  0.84644  0.44535  0.98612  1.0000
  C   C282      1.0  0.95884  0.37651  0.65780  1.0000
  C   C283      1.0  0.96124  0.32381  0.61959  1.0000
  H   H505      1.0  0.97320  0.42444  0.52035  1.0000
  H   H506      1.0  0.90243  0.46120  0.51875  1.0000
  C   C284      1.0  0.59520  0.48230  0.97221  1.0000
  C   C285      1.0  0.58017  0.23186  0.92008  1.0000
  H   H507      1.0  0.58145  0.49832  0.91927  1.0000
  H   H508      1.0  0.54579  0.28582  0.80873  1.0000
  H   H509      1.0  0.83056  0.49652  0.97259  1.0000
  C   C286      1.0  0.85566  0.48479  0.97654  1.0000
  C   C287      1.0  0.98983  0.39237  0.64196  1.0000
  C   C288      1.0  0.89876  0.01922  0.51243  1.0000
  H   H510      1.0  0.53467  0.32917  0.85880  1.0000
  H   H511      1.0  0.54462  0.28157  0.88924  1.0000
  H   H512      1.0  0.50053  0.28045  0.79863  1.0000
  C   C289      1.0  0.87026  0.30100  0.56337  1.0000
  H   H513      1.0  0.84155  0.02345  0.55528  1.0000
  C   C290      1.0  0.60139  0.37402  0.96002  1.0000
  H   H514      1.0  0.56955  0.12407  0.99740  1.0000
  H   H515      1.0  0.50267  0.19683  0.84508  1.0000
  H   H516      1.0  0.96929  0.05142  0.51054  1.0000
  H   H517      1.0  0.98018  0.38773  0.54713  1.0000
  S   S67       1.0  0.93820  0.26152  0.51065  1.0000
  H   H518      1.0  0.64659  0.41414  0.96341  1.0000
  H   H519      1.0  0.60416  0.01027  0.80763  1.0000
  H   H520      1.0  0.52637  0.12387  0.87875  1.0000
  C   C291      1.0  0.62711  0.39702  0.97808  1.0000
  H   H521      1.0  0.56092  0.16960  0.77245  1.0000
  C   C292      1.0  0.60475  0.49090  0.93378  1.0000
  C   C293      1.0  0.52501  0.35174  0.80848  1.0000
  S   S68       1.0  0.78383  0.46349  0.91269  1.0000
  H   H522      1.0  0.55011  0.20046  0.88108  1.0000
  C   C294      1.0  0.92061  0.04167  0.54094  1.0000
  H   H523      1.0  0.90671  0.47582  0.60434  1.0000
  C   C295      1.0  0.54504  0.25774  0.87170  1.0000
  H   H524      1.0  0.56719  0.21347  0.82182  1.0000
  C   C296      1.0  0.82022  0.48301  0.88742  1.0000
  H   H525      1.0  0.97599  0.37519  0.79262  1.0000
  H   H526      1.0  0.89155  0.28827  0.57659  1.0000
  C   C297      1.0  0.51028  0.21964  0.82705  1.0000
  H   H527      1.0  0.93265  0.02467  0.56009  1.0000
  H   H528      1.0  0.57857  0.25583  0.93713  1.0000
  Fe  Fe33      1.0  0.94657  0.20285  0.51123  1.0000
  C   C298      1.0  0.94557  0.44670  0.57743  1.0000
  H   H529      1.0  0.61865  0.47300  0.98482  1.0000
  C   C299      1.0  0.85015  0.10711  0.53257  1.0000
  H   H530      1.0  0.79967  0.00748  0.60531  1.0000
  H   H531      1.0  0.84544  0.29432  0.57850  1.0000
  C   C300      1.0  0.96361  0.39597  0.52519  1.0000
  H   H532      1.0  0.85712  0.35296  0.54922  1.0000
  H   H533      1.0  0.89323  0.41644  0.57478  1.0000
  H   H534      1.0  0.94706  0.46476  0.55449  1.0000
  H   H535      1.0  0.58145  0.20835  0.93740  1.0000
  C   C301      1.0  0.54314  0.21174  0.80535  1.0000
  C   C302      1.0  0.57621  0.35115  0.97862  1.0000
  C   C303      1.0  0.86557  0.47566  0.84273  1.0000
  H   H536      1.0  0.86643  0.28968  0.53631  1.0000
  C   C304      1.0  0.58066  0.01102  0.66106  1.0000
  C   C305      1.0  0.83685  0.46128  0.86367  1.0000
  H   H537      1.0  0.99556  0.33361  0.72688  1.0000
  H   H538      1.0  0.92069  0.32962  0.65854  1.0000
  H   H539      1.0  0.80404  0.06781  0.53241  1.0000
  N   N17       1.0  0.51377  0.25466  0.84714  1.0000
  H   H540      1.0  0.87785  0.45866  0.82433  1.0000
  H   H541      1.0  0.87532  0.00677  0.57969  1.0000
  S   S69       1.0  0.90803  0.15786  0.53434  1.0000
  H   H542      1.0  0.50163  0.09563  0.51859  1.0000
  H   H543      1.0  0.52436  0.22125  0.91353  1.0000
  C   C306      1.0  0.53789  0.17410  0.78926  1.0000
  C   C307      1.0  0.51919  0.28500  0.82111  1.0000
  H   H544      1.0  0.57486  0.02435  0.68545  1.0000
  C   C308      1.0  0.82179  0.08568  0.51658  1.0000
  H   H545      1.0  0.90336  0.05862  0.55572  1.0000
  C   C309      1.0  0.61351  0.01957  0.64411  1.0000
  H   H546      1.0  0.57026  0.26270  0.85675  1.0000
  H   H547      1.0  0.49741  0.16316  0.92035  1.0000
  H   H548      1.0  0.95007  0.29737  0.61119  1.0000
  H   H549      1.0  0.86994  0.48545  0.95103  1.0000
  H   H550      1.0  0.60123  0.37369  0.93149  1.0000
  C   C310      1.0  0.49693  0.10143  0.99263  1.0000
  H   H551      1.0  0.57379  0.45978  0.97196  1.0000
  C   C311      1.0  0.54783  0.22544  0.89629  1.0000
  H   H552      1.0  0.54789  0.23108  0.78339  1.0000
  H   H553      1.0  0.95199  0.49183  0.61398  1.0000
  H   H554      1.0  0.96421  0.08386  0.54502  1.0000
  H   H555      1.0  0.94558  0.35362  0.76079  1.0000
  H   H556      1.0  0.53560  0.15367  0.81039  1.0000
  C   C312      1.0  0.51625  0.32301  0.83647  1.0000
  C   C313      1.0  0.50164  0.06628  0.51458  1.0000
  C   C314      1.0  0.87288  0.13138  0.51264  1.0000
  H   H557      1.0  0.51376  0.17042  0.77275  1.0000
  H   H558      1.0  0.93910  0.08504  0.50514  1.0000
  S   S70       1.0  0.69569  0.48770  0.95848  1.0000
  C   C315      1.0  0.97197  0.35309  0.77295  1.0000
  C   C316      1.0  0.49843  0.12595  0.87651  1.0000
  H   H559      1.0  0.82935  0.43164  0.96533  1.0000
  H   H560      1.0  0.61396  0.46700  0.92077  1.0000
  Fe  Fe34      1.0  0.75488  0.48936  0.95708  1.0000
  H   H561      1.0  0.54742  0.15809  0.97570  1.0000
  H   H562      1.0  0.58474  0.01620  0.76520  1.0000
  H   H563      1.0  0.97282  0.44055  0.58302  1.0000
  S   S71       1.0  0.50080  0.07863  0.82071  1.0000
  H   H564      1.0  0.51450  0.08042  0.98661  1.0000
  H   H565      1.0  0.97241  0.32711  0.78664  1.0000
  S   S72       1.0  0.50295  0.22515  0.98595  1.0000
  Fe  Fe35      1.0  0.99318  0.27186  0.53220  1.0000
  H   H566      1.0  0.52211  0.05658  0.53169  1.0000
  H   H567      1.0  0.99109  0.44864  0.94082  1.0000
  H   H568      1.0  0.93226  0.45073  0.63325  1.0000
  C   C317      1.0  0.95011  0.06694  0.52421  1.0000
  H   H569      1.0  0.93428  0.51888  0.38043  1.0000
  H   H570      1.0  0.69716  0.84284  0.13345  1.0000
  C   C318      1.0  0.85474  0.83067  0.47789  1.0000
  H   H571      1.0  0.92391  0.71287  0.30081  1.0000
  Fe  Fe36      1.0  0.98190  0.72207  0.45519  1.0000
  S   S73       1.0  0.92652  0.71033  0.47509  1.0000
  H   H572      1.0  0.59833  0.89040  0.10429  1.0000
  H   H573      1.0  0.88399  0.56097  0.05231  1.0000
  Fe  Fe37      1.0  0.92577  0.77027  0.48147  1.0000
  H   H574      1.0  0.52920  0.89022  0.06261  1.0000
  H   H575      1.0  0.92117  0.64004  0.27767  1.0000
  C   C319      1.0  0.55413  0.90343  0.07411  1.0000
  H   H576      1.0  0.87833  0.73335  0.42195  1.0000
  Fe  Fe38      1.0  0.95961  0.53005  0.26971  1.0000
  H   H577      1.0  0.94133  0.72000  0.38445  1.0000
  H   H578      1.0  0.51434  0.82930  0.17381  1.0000
  Fe  Fe39      1.0  0.67742  0.96617  0.46635  1.0000
  C   C320      1.0  0.59962  0.95492  0.36289  1.0000
  S   S74       1.0  0.63929  0.94646  0.42200  1.0000
  H   H579      1.0  0.56049  0.83745  0.05006  1.0000
  S   S75       1.0  0.88362  0.80219  0.45744  1.0000
  H   H580      1.0  0.93672  0.58441  0.44293  1.0000
  N   N18       1.0  0.57258  0.51035  0.02980  1.0000
  C   C321      1.0  0.64482  0.62137  0.01877  1.0000
  C   C322      1.0  0.57919  0.97341  0.33988  1.0000
  C   C323      1.0  0.61310  0.97088  0.39444  1.0000
  H   H581      1.0  0.55432  0.71126  0.14466  1.0000
  H   H582      1.0  0.58979  0.77025  0.04486  1.0000
  S   S76       1.0  0.93561  0.56822  0.30836  1.0000
  C   C324      1.0  0.85821  0.71581  0.40724  1.0000
  H   H583      1.0  0.91125  0.60061  0.37139  1.0000
  H   H584      1.0  0.61785  0.53223  0.09232  1.0000
  H   H585      1.0  0.52790  0.72892  0.11119  1.0000
  H   H586      1.0  0.60540  0.92817  0.35598  1.0000
  H   H587      1.0  0.88335  0.75219  0.30506  1.0000
  H   H588      1.0  0.85073  0.56243  0.13000  1.0000
  C   C325      1.0  0.72649  0.96607  0.36448  1.0000
  H   H589      1.0  0.85186  0.68148  0.36258  1.0000
  C   C326      1.0  0.90994  0.69652  0.32204  1.0000
  H   H590      1.0  0.90467  0.67385  0.25048  1.0000
  H   H591      1.0  0.81829  0.67155  0.42033  1.0000
  C   C327      1.0  0.93770  0.61310  0.36628  1.0000
  C   C328      1.0  0.98658  0.65767  0.38210  1.0000
  H   H592      1.0  0.88725  0.52825  0.16862  1.0000
  H   H593      1.0  0.51578  0.61686  0.03181  1.0000
  H   H594      1.0  0.63262  0.77508  0.06255  1.0000
  H   H595      1.0  0.57042  0.91731  0.05291  1.0000
  H   H596      1.0  0.84814  0.80726  0.30612  1.0000
  C   C329      1.0  0.93493  0.54102  0.05169  1.0000
  C   C330      1.0  0.84319  0.98360  0.49734  1.0000
  H   H597      1.0  0.51699  0.94025  0.39195  1.0000
  H   H598      1.0  0.84649  0.73330  0.32945  1.0000
  C   C331      1.0  0.54705  0.73634  0.13277  1.0000
  H   H599      1.0  0.55730  0.86430  0.11392  1.0000
  H   H600      1.0  0.93823  0.64884  0.41158  1.0000
  H   H601      1.0  0.50397  0.95830  0.35099  1.0000
  S   S77       1.0  0.73577  0.96551  0.45729  1.0000
  S   S78       1.0  0.80470  0.54227  0.07170  1.0000
  C   C332      1.0  0.92810  0.73951  0.36873  1.0000
  C   C333      1.0  0.95282  0.64055  0.38900  1.0000
  C   C334      1.0  0.54069  0.56781  0.02547  1.0000
  C   C335      1.0  0.90618  0.56008  0.03312  1.0000
  H   H602      1.0  0.96043  0.58878  0.07836  1.0000
  H   H603      1.0  0.89085  0.67667  0.38676  1.0000
  H   H604      1.0  0.97616  0.59536  0.46893  1.0000
  S   S79       1.0  0.57420  0.69437  0.03362  1.0000
  H   H605      1.0  0.97685  0.56212  0.39647  1.0000
  C   C336      1.0  0.80880  0.87124  0.47142  1.0000
  H   H606      1.0  0.51601  0.55059  0.01929  1.0000
  H   H607      1.0  0.65324  0.87346  0.07545  1.0000
  N   N19       1.0  0.59986  0.81521  0.08129  1.0000
  H   H608      1.0  0.83754  0.73188  0.39771  1.0000
  C   C337      1.0  0.61173  0.79083  0.05253  1.0000
  C   C338      1.0  0.57086  0.79393  0.10206  1.0000
  C   C339      1.0  0.62970  0.82681  0.10615  1.0000
  C   C340      1.0  0.66150  0.85031  0.08992  1.0000
  Fe  Fe40      1.0  0.76342  0.52088  0.03100  1.0000
  C   C341      1.0  0.58007  0.75821  0.11821  1.0000
  S   S80       1.0  0.96141  0.53206  0.21011  1.0000
  H   H609      1.0  0.81745  0.78815  0.33943  1.0000
  H   H610      1.0  0.56956  0.96097  0.31542  1.0000
  H   H611      1.0  0.54714  0.78757  0.08506  1.0000
  H   H612      1.0  0.56219  0.80972  0.12468  1.0000
  H   H613      1.0  0.61986  0.84108  0.12943  1.0000
  H   H614      1.0  0.64060  0.80305  0.11723  1.0000
  C   C342      1.0  0.88202  0.66960  0.30351  1.0000
  H   H615      1.0  0.85946  0.60933  0.02126  1.0000
  S   S81       1.0  0.70492  0.52242  0.03877  1.0000
  S   S82       1.0  0.97982  0.78195  0.45725  1.0000
  H   H616      1.0  0.59883  0.76372  0.14039  1.0000
  H   H617      1.0  0.86782  0.78131  0.37937  1.0000
  C   C343      1.0  0.99214  0.54828  0.41597  1.0000
  H   H618      1.0  0.71034  0.88116  0.10616  1.0000
  H   H619      1.0  0.96830  0.54699  0.09820  1.0000
  C   C344      1.0  0.83311  0.84954  0.45648  1.0000
  C   C345      1.0  0.87406  0.74620  0.33251  1.0000
  C   C346      1.0  0.59930  0.66241  0.01349  1.0000
  C   C347      1.0  0.83059  0.51672  0.09847  1.0000
  S   S83       1.0  0.50850  0.90165  0.19529  1.0000
  H   H620      1.0  0.59310  0.56417  0.04492  1.0000
  H   H621      1.0  0.98394  0.52971  0.47072  1.0000
  H   H622      1.0  0.70538  0.95434  0.38254  1.0000
  H   H623      1.0  0.82952  0.70298  0.45584  1.0000
  H   H624      1.0  0.73687  0.50741  0.11522  1.0000
  H   H625      1.0  0.79178  0.88472  0.45457  1.0000
  C   C348      1.0  0.71691  0.00107  0.34897  1.0000
  C   C349      1.0  0.85122  0.53400  0.12556  1.0000
  C   C350      1.0  0.96863  0.54018  0.44908  1.0000
  S   S84       1.0  0.52784  0.77969  0.00645  1.0000
  H   H626      1.0  0.86898  0.95251  0.45686  1.0000
  C   C351      1.0  0.56741  0.54675  0.04490  1.0000
  H   H627      1.0  0.75181  0.97070  0.37903  1.0000
  H   H628      1.0  0.84411  0.82998  0.34783  1.0000
  H   H629      1.0  0.86082  0.50398  0.03011  1.0000
  H   H630      1.0  0.55478  0.61562  0.05793  1.0000
  H   H631      1.0  0.83472  0.84685  0.42812  1.0000
  H   H632      1.0  0.94454  0.77391  0.32309  1.0000
  H   H633      1.0  0.94565  0.52035  0.44313  1.0000
  C   C352      1.0  0.87208  0.51470  0.14744  1.0000
  H   H634      1.0  0.87761  0.63232  0.25921  1.0000
  C   C353      1.0  0.57428  0.87586  0.09235  1.0000
  C   C354      1.0  0.62419  0.64662  0.03378  1.0000
  C   C355      1.0  0.58436  0.84696  0.06577  1.0000
  H   H635      1.0  0.55925  0.54499  0.07296  1.0000
  H   H636      1.0  0.87318  0.64715  0.32155  1.0000
  C   C356      1.0  0.87269  0.78335  0.35067  1.0000
  C   C357      1.0  0.87467  0.69689  0.37591  1.0000
  C   C358      1.0  0.68739  0.86507  0.11852  1.0000
  C   C359      1.0  0.95656  0.60166  0.33706  1.0000
  C   C360      1.0  0.53082  0.59925  0.04792  1.0000
  H   H637      1.0  0.60270  0.86172  0.04683  1.0000
  H   H638      1.0  0.97213  0.73911  0.33127  1.0000
  C   C361      1.0  0.49924  0.84106  0.15379  1.0000
  H   H639      1.0  0.54726  0.92371  0.09372  1.0000
  C   C362      1.0  0.89740  0.65307  0.27071  1.0000
  H   H640      1.0  0.93008  0.68062  0.33336  1.0000
  H   H641      1.0  0.92046  0.75901  0.38869  1.0000
  H   H642      1.0  0.67598  0.83391  0.07161  1.0000
  H   H643      1.0  0.59204  0.74110  0.09863  1.0000
  H   H644      1.0  0.60272  0.81869  0.00317  1.0000
  H   H645      1.0  0.62768  0.65411  0.06125  1.0000
  H   H646      1.0  0.89812  0.80040  0.34705  1.0000
  H   H647      1.0  0.92613  0.56342  0.10389  1.0000
  N   N20       1.0  0.89636  0.72057  0.35001  1.0000
  H   H648      1.0  0.66410  0.60979  0.03458  1.0000
  H   H649      1.0  0.72948  0.94642  0.34294  1.0000
  H   H650      1.0  0.95791  0.53934  0.03401  1.0000
  C   C363      1.0  0.94818  0.56141  0.08499  1.0000
  H   H651      1.0  0.85952  0.67118  0.44371  1.0000
  H   H652      1.0  0.92429  0.51367  0.06011  1.0000
  C   C364      1.0  0.84378  0.80329  0.33488  1.0000
  H   H653      1.0  0.85878  0.68283  0.29540  1.0000
  C   C365      1.0  0.84032  0.68856  0.43325  1.0000
  C   C366      1.0  0.95664  0.75904  0.34412  1.0000
  H   H654      1.0  0.67454  0.88267  0.13710  1.0000
  H   H655      1.0  0.91732  0.58836  0.02966  1.0000
  C   C367      1.0  0.52121  0.96466  0.48450  1.0000
  C   C368      1.0  0.95429  0.57413  0.46280  1.0000
  C   C369      1.0  0.82486  0.97270  0.43324  1.0000
  H   H656      1.0  0.80658  0.94870  0.44024  1.0000
  H   H657      1.0  0.54492  0.96309  0.46762  1.0000
  Fe  Fe41      1.0  0.52857  0.71959  0.00821  1.0000
  H   H658      1.0  0.83472  0.96890  0.40603  1.0000
  H   H659      1.0  0.51238  0.99149  0.42114  1.0000
  C   C370      1.0  0.85575  0.97726  0.45887  1.0000
  H   H660      1.0  0.95718  0.50553  0.34172  1.0000
  H   H661      1.0  0.96879  0.80555  0.37865  1.0000
  H   H662      1.0  0.53434  0.75180  0.15337  1.0000
  C   C371      1.0  0.99075  0.61798  0.33085  1.0000
  H   H663      1.0  0.69239  0.99459  0.33342  1.0000
  C   C372      1.0  0.62487  0.80807  0.01710  1.0000
  C   C373      1.0  0.87786  0.50517  0.00618  1.0000
  H   H664      1.0  0.52294  0.99154  0.49719  1.0000
  H   H665      1.0  0.66187  0.76937  0.00458  1.0000
  H   H666      1.0  0.51425  0.58937  0.07073  1.0000
  H   H667      1.0  0.52107  0.89863  0.34133  1.0000
  C   C374      1.0  0.98272  0.78534  0.36433  1.0000
  H   H668      1.0  0.87419  0.00016  0.44941  1.0000
  H   H669      1.0  0.64608  0.83034  0.02104  1.0000
  H   H670      1.0  0.73236  0.51133  0.16243  1.0000
  H   H671      1.0  0.93876  0.56811  0.48732  1.0000
  H   H672      1.0  0.81047  0.99680  0.43365  1.0000
  C   C375      1.0  0.60624  0.50388  0.08917  1.0000
  H   H673      1.0  0.62789  0.50386  0.03736  1.0000
  H   H674      1.0  0.51496  0.50400  0.07914  1.0000
  H   H675      1.0  0.55250  0.57890  0.00046  1.0000
  H   H676      1.0  0.99060  0.56096  0.94795  1.0000
  H   H677      1.0  0.57608  0.66421  0.96205  1.0000
  S   S85       1.0  0.92948  0.66570  0.56564  1.0000
  H   H678      1.0  0.88351  0.54413  0.68494  1.0000
  H   H679      1.0  0.61797  0.75790  0.98711  1.0000
  H   H680      1.0  0.92282  0.59763  0.78308  1.0000
  H   H681      1.0  0.90009  0.89679  0.57207  1.0000
  N   N21       1.0  0.58049  0.90956  0.73094  1.0000
  H   H682      1.0  0.62627  0.51335  0.93220  1.0000
  H   H683      1.0  0.79409  0.96229  0.62157  1.0000
  H   H684      1.0  0.61343  0.94807  0.79238  1.0000
  C   C376      1.0  0.98135  0.70599  0.67829  1.0000
  H   H685      1.0  0.54098  0.85919  0.85212  1.0000
  H   H686      1.0  0.95960  0.66155  0.80150  1.0000
  H   H687      1.0  0.96068  0.55889  0.91076  1.0000
  C   C377      1.0  0.85215  0.83438  0.51455  1.0000
  H   H688      1.0  0.86446  0.70089  0.79805  1.0000
  H   H689      1.0  0.85687  0.60127  0.73336  1.0000
  S   S86       1.0  0.76344  0.54606  0.97701  1.0000
  H   H690      1.0  0.58522  0.87015  0.68952  1.0000
  H   H691      1.0  0.64729  0.79302  0.96710  1.0000
  C   C378      1.0  0.98698  0.59851  0.64359  1.0000
  C   C379      1.0  0.80555  0.87417  0.50810  1.0000
  H   H692      1.0  0.58920  0.88910  0.78294  1.0000
  N   N22       1.0  0.87202  0.98896  0.52483  1.0000
  H   H693      1.0  0.50607  0.89948  0.81839  1.0000
  C   C380      1.0  0.54127  0.90555  0.73832  1.0000
  C   C381      1.0  0.61912  0.91749  0.67336  1.0000
  H   H694      1.0  0.68087  0.86554  0.78062  1.0000
  H   H695      1.0  0.97373  0.67633  0.74055  1.0000
  H   H696      1.0  0.57859  0.96598  0.72192  1.0000
  H   H697      1.0  0.84065  0.61648  0.94282  1.0000
  H   H698      1.0  0.93799  0.56411  0.64516  1.0000
  H   H699      1.0  0.90784  0.60039  0.60255  1.0000
  Fe  Fe42      1.0  0.68745  0.99260  0.54211  1.0000
  C   C382      1.0  0.59507  0.65238  0.97803  1.0000
  Fe  Fe43      1.0  0.98992  0.52860  0.71233  1.0000
  C   C383      1.0  0.64110  0.61197  0.98307  1.0000
  C   C384      1.0  0.63768  0.88595  0.75302  1.0000
  S   S87       1.0  0.77384  0.89921  0.52879  1.0000
  C   C385      1.0  0.59399  0.96122  0.77684  1.0000
  S   S88       1.0  0.94604  0.77053  0.53708  1.0000
  H   H700      1.0  0.83465  0.99049  0.63014  1.0000
  C   C386      1.0  0.97188  0.61486  0.82939  1.0000
  C   C387      1.0  0.91609  0.95216  0.55678  1.0000
  C   C388      1.0  0.83281  0.51936  0.89028  1.0000
  C   C389      1.0  0.52104  0.86801  0.73093  1.0000
  H   H701      1.0  0.84166  0.94565  0.58260  1.0000
  S   S89       1.0  0.50947  0.71186  0.95256  1.0000
  C   C390      1.0  0.92389  0.91345  0.56196  1.0000
  H   H702      1.0  0.87090  0.56196  0.87150  1.0000
  S   S90       1.0  0.67865  0.93715  0.51844  1.0000
  C   C391      1.0  0.95303  0.63922  0.59387  1.0000
  C   C392      1.0  0.93512  0.60831  0.60929  1.0000
  C   C393      1.0  0.95209  0.58780  0.63364  1.0000
  H   H703      1.0  0.93210  0.90153  0.53673  1.0000
  S   S91       1.0  0.52302  0.80810  0.90713  1.0000
  H   H704      1.0  0.88469  0.56789  0.74736  1.0000
  H   H705      1.0  0.64534  0.87326  0.72802  1.0000
  H   H706      1.0  0.88492  0.66632  0.73349  1.0000
  C   C394      1.0  0.83757  0.62182  0.97148  1.0000
  H   H707      1.0  0.95945  0.59321  0.75600  1.0000
  C   C395      1.0  0.63888  0.78033  0.99258  1.0000
  Fe  Fe44      1.0  0.73794  0.94110  0.51088  1.0000
  C   C396      1.0  0.82762  0.85581  0.52947  1.0000
  S   S92       1.0  0.50127  0.98454  0.77587  1.0000
  H   H708      1.0  0.90921  0.53054  0.94619  1.0000
  C   C397      1.0  0.61598  0.62750  0.96293  1.0000
  C   C398      1.0  0.93954  0.57964  0.95955  1.0000
  H   H709      1.0  0.91850  0.68715  0.76102  1.0000
  H   H710      1.0  0.53575  0.91161  0.76627  1.0000
  H   H711      1.0  0.56238  0.52523  0.97586  1.0000
  C   C399      1.0  0.55575  0.98484  0.64665  1.0000
  H   H712      1.0  0.90170  0.94815  0.50262  1.0000
  H   H713      1.0  0.80658  0.96200  0.55844  1.0000
  H   H714      1.0  0.81985  0.53645  0.90799  1.0000
  C   C400      1.0  0.58563  0.89972  0.69253  1.0000
  H   H715      1.0  0.56320  0.90708  0.67630  1.0000
  H   H716      1.0  0.64348  0.91595  0.68863  1.0000
  H   H717      1.0  0.54468  0.94773  0.60336  1.0000
  H   H718      1.0  0.98184  0.58866  0.82409  1.0000
  H   H719      1.0  0.60001  0.90093  0.62088  1.0000
  H   H720      1.0  0.85429  0.57674  0.67322  1.0000
  C   C401      1.0  0.59708  0.88456  0.75506  1.0000
  C   C402      1.0  0.86200  0.56309  0.98591  1.0000
  C   C403      1.0  0.87796  0.51204  0.84535  1.0000
  H   H721      1.0  0.90003  0.65067  0.81152  1.0000
  H   H722      1.0  0.85761  0.55790  0.95722  1.0000
  H   H723      1.0  0.84050  0.54242  0.70498  1.0000
  H   H724      1.0  0.64589  0.87721  0.80908  1.0000
  H   H725      1.0  0.52673  0.85785  0.70421  1.0000
  H   H726      1.0  0.82534  0.85769  0.55786  1.0000
  H   H727      1.0  0.60248  0.96326  0.57343  1.0000
  C   C404      1.0  0.87822  0.58517  0.72526  1.0000
  H   H728      1.0  0.86844  0.82006  0.53145  1.0000
  C   C405      1.0  0.59404  0.94838  0.73779  1.0000
  C   C406      1.0  0.92043  0.54306  0.97093  1.0000
  C   C407      1.0  0.88257  0.64861  0.78810  1.0000
  Fe  Fe45      1.0  0.95133  0.71150  0.52921  1.0000
  S   S93       1.0  0.74678  0.99482  0.53850  1.0000
  H   H729      1.0  0.83916  0.66392  0.81986  1.0000
  S   S94       1.0  0.91340  0.53180  0.81899  1.0000
  H   H730      1.0  0.92105  0.59479  0.94483  1.0000
  S   S95       1.0  0.66745  0.58173  0.96198  1.0000
  H   H731      1.0  0.61291  0.62051  0.93529  1.0000
  H   H732      1.0  0.52839  0.92548  0.72286  1.0000
  H   H733      1.0  0.94581  0.61005  0.84272  1.0000
  H   H734      1.0  0.52817  0.84843  0.75071  1.0000
  C   C408      1.0  0.95954  0.65701  0.72173  1.0000
  Fe  Fe46      1.0  0.70417  0.54279  0.98332  1.0000
  N   N23       1.0  0.92894  0.63538  0.73994  1.0000
  H   H735      1.0  0.99569  0.64053  0.78338  1.0000
  H   H736      1.0  0.58681  0.85625  0.74923  1.0000
  C   C409      1.0  0.56374  0.96804  0.61473  1.0000
  C   C410      1.0  0.96882  0.63529  0.79502  1.0000
  H   H737      1.0  0.94113  0.96809  0.54894  1.0000
  C   C411      1.0  0.91095  0.61001  0.71283  1.0000
  C   C412      1.0  0.59649  0.97676  0.59767  1.0000
  C   C413      1.0  0.85329  0.67241  0.79511  1.0000
  C   C414      1.0  0.95013  0.67933  0.68948  1.0000
  H   H738      1.0  0.63990  0.83662  0.78262  1.0000
  H   H739      1.0  0.65082  0.91376  0.75447  1.0000
  C   C415      1.0  0.65181  0.86501  0.78323  1.0000
  H   H740      1.0  0.98258  0.60131  0.92553  1.0000
  H   H741      1.0  0.90163  0.62497  0.69019  1.0000
  H   H742      1.0  0.93025  0.59262  0.70193  1.0000
  H   H743      1.0  0.62168  0.95476  0.72882  1.0000
  H   H744      1.0  0.62936  0.87190  0.64035  1.0000
  H   H745      1.0  0.83394  0.66992  0.77317  1.0000
  H   H746      1.0  0.92751  0.69462  0.69524  1.0000
  H   H747      1.0  0.94545  0.91265  0.58141  1.0000
  H   H748      1.0  0.99059  0.63066  0.84742  1.0000
  H   H749      1.0  0.94327  0.66154  0.66650  1.0000
  C   C416      1.0  0.90396  0.66057  0.75433  1.0000
  C   C417      1.0  0.86161  0.53375  0.86943  1.0000
  C   C418      1.0  0.86333  0.56067  0.69520  1.0000
  H   H750      1.0  0.87028  0.62055  0.78657  1.0000
  S   S96       1.0  0.51500  0.97076  0.66794  1.0000
  H   H751      1.0  0.94057  0.52573  0.97929  1.0000
  Fe  Fe47      1.0  0.50391  0.77109  0.95255  1.0000
  C   C419      1.0  0.94402  0.61361  0.76823  1.0000
  H   H752      1.0  0.60648  0.53721  0.99003  1.0000
  H   H753      1.0  0.84127  0.65126  0.97596  1.0000
  C   C420      1.0  0.81351  0.98353  0.61042  1.0000
  H   H754      1.0  0.64659  0.91509  0.62329  1.0000
  C   C421      1.0  0.82885  0.96989  0.57621  1.0000
  H   H755      1.0  0.83698  0.55237  0.99920  1.0000
  C   C422      1.0  0.97018  0.57472  0.93446  1.0000
  H   H756      1.0  0.61659  0.94625  0.66889  1.0000
  C   C423      1.0  0.62394  0.90015  0.63730  1.0000
  C   C424      1.0  0.98837  0.64901  0.60267  1.0000
  H   H757      1.0  0.81044  0.61175  0.97996  1.0000
  H   H758      1.0  0.90737  0.96203  0.58261  1.0000
  C   C425      1.0  0.88822  0.95423  0.52762  1.0000
  C   C426      1.0  0.58389  0.51572  0.99176  1.0000
  H   H759      1.0  0.56794  0.95528  0.78965  1.0000
  C   C427      1.0  0.51327  0.85968  0.85791  1.0000
  H   H760      1.0  0.86715  0.93138  0.53094  1.0000
  H   H761      1.0  0.97931  0.63913  0.71262  1.0000
  H   H762      1.0  0.95044  0.59567  0.98244  1.0000
  H   H763      1.0  0.97467  0.71956  0.65366  1.0000
  H   H764      1.0  0.82385  0.96017  0.50384  1.0000
  C   C428      1.0  0.62176  0.00234  0.61249  1.0000
  H   H765      1.0  0.52126  0.94424  0.50554  1.0000
  H   H766      1.0  0.89095  0.61810  0.98651  1.0000
  C   C429      1.0  0.49739  0.83754  0.88465  1.0000
  C   C430      1.0  0.60412  0.00171  0.77951  1.0000
  C   C431      1.0  0.85530  0.99911  0.55914  1.0000
  Fe  Fe48      1.0  0.94580  0.50475  0.77773  1.0000
  C   C432      1.0  0.86467  0.60421  0.99286  1.0000
  H   H767      1.0  0.98764  0.72664  0.69912  1.0000
  N   N24       1.0  0.89208  0.54361  0.99878  1.0000
  H   H768      1.0  0.98080  0.93062  0.50061  1.0000
