data_image0
_chemical_formula_structural       FeS2FeS2FeHFeS3FeSCFeS2FeSFeHS2H2FeS2CHFeS2NH3C6H4C6H4C6H4C2H3SCHC2NC7H19SHSCH6CH3CH5C2H2CHSH6CHC4HCHCHCH2CHCH7C2H9C2H4CSCHCHNHC3H4SCFeC2H2CH6C2HCH5CH3NC4H2CHCH2CH4CH11C2HCHC2HCH3CHCHCH4CH4CH2C2HC2HC2H8CH2C4H5CH6C2HCH5CH3FeS2FeS2FeSFeCS2FeS2FeS2FeHFeS3FeS2FeS2HNHCHNCHC6H7CHC6H4C6H5CHC2H2SC2HCH3CHCH2FeH3CH3CHSCHCH2CH4CHCNC8HC3H31CHC3NC9H23SC2HCH4C3H3CH3CH3FeSCH4C3H2CHC3H3SH2CH5CHSCFeSFeSFeS3FeS2FeS2C4H2C7H2C7H2CHNCS2FeS2FeSFeS2C2H2C6H4C2HC3H4CHCHCHCHCH3C2H6CH4CH2CH2CH7CHCHSH7CNHCHCNC6HC3H14C2H4CH3CH5NC9H24CH3C2HC2H6CH3CHNH2CH9CH3CH9CHCHC5H4C2H13C2H2CH2C2HCH2CHCH8CH2C3H2NC2H5CNCH3C3H2CH7CHCH12C4H4CHC3H4CH2CHCHCH2CNFeS2FeSFeS3FeS2FeSFeS3C2NC4H3C5H4C6H4FeS2FeS2C4H2C6H4C6H6C3H4CHCH6CHCH5CHNC6HC5H12CH15NC4HC4HC2H9CH9SHNH7CH3CH5CH5CH5CHCH3CH3C3H2CH2CHCH4CH4CH2CH4CHCHC2H3SC2H2CHFeS2FeS2FeSFeHS2FeS2FeS2FeCFeS3C2H2FeS2H2CHFeS2HCH4C6H4C6H4C6H7CNH7CH9CH3SH4CH4C2H2FeCH4C2HNC11H8CHC2H2CH3C2NCHC2H2C2HSCH6NH3CH2CH2C3H5SHCH3CHCSH3NH2CH2C3H6CHCHFeHC4H2CHSHC3H3FeSCH3C3H5CH4CH3CHC4HCHCH6CH2CH3CH3CHCH2CH5CH3CHCHCH2CHCHC3HCH4CH7NH7CH3CH3CH2CH4CH2CHFeS2FeS2FeNFeS3FeS2FeS2FeSFeHS2FeS2HCHNC2FeS2C2H2C2HCHC2HCH4C6H8C7H4NHNC12H28FeNC5H7SH6C2H4SC3HCHC2HCH2CH4CHC3HC3H3CHCH4CH4C2H2CHFeCHC2H3SNH3CHSHCHCH10
_chemical_formula_sum              "Fe64 S128 H1024 C576 N32"
_cell_length_a       47.755
_cell_length_b       44.3694
_cell_length_c       33.9405
_cell_angle_alpha    90.6906
_cell_angle_beta     89.8952
_cell_angle_gamma    90.0178

_space_group_name_H-M_alt    "P 1"
_space_group_IT_number       1

loop_
  _space_group_symop_operation_xyz
  'x, y, z'

loop_
  _atom_site_type_symbol
  _atom_site_label
  _atom_site_symmetry_multiplicity
  _atom_site_fract_x
  _atom_site_fract_y
  _atom_site_fract_z
  _atom_site_occupancy
  Fe  Fe1       1.0  0.27700  0.41609  0.34396  1.0000
  S   S1        1.0  0.26705  0.44362  0.29057  1.0000
  S   S2        1.0  0.28362  0.43463  0.40743  1.0000
  Fe  Fe2       1.0  0.27513  0.35614  0.29541  1.0000
  S   S3        1.0  0.26382  0.38055  0.23978  1.0000
  S   S4        1.0  0.28586  0.30648  0.28377  1.0000
  Fe  Fe3       1.0  0.29755  0.41341  0.25761  1.0000
  H   H1        1.0  0.17781  0.40728  0.38608  1.0000
  Fe  Fe4       1.0  0.23428  0.40816  0.27695  1.0000
  S   S5        1.0  0.18925  0.42429  0.26576  1.0000
  S   S6        1.0  0.31001  0.38824  0.31180  1.0000
  S   S7        1.0  0.24306  0.38148  0.33184  1.0000
  Fe  Fe5       1.0  0.25929  0.06764  0.33448  1.0000
  S   S8        1.0  0.27495  0.06167  0.27197  1.0000
  C   C1        1.0  0.33463  0.20980  0.33456  1.0000
  Fe  Fe6       1.0  0.25617  0.13697  0.32401  1.0000
  S   S9        1.0  0.27126  0.13479  0.26150  1.0000
  S   S10       1.0  0.24653  0.18138  0.35564  1.0000
  Fe  Fe7       1.0  0.24159  0.09540  0.25569  1.0000
  S   S11       1.0  0.21390  0.08623  0.20204  1.0000
  Fe  Fe8       1.0  0.30308  0.10146  0.28353  1.0000
  H   H2        1.0  0.22017  0.48764  0.28949  1.0000
  S   S12       1.0  0.22463  0.09939  0.31710  1.0000
  S   S13       1.0  0.28930  0.10558  0.34697  1.0000
  H   H3        1.0  0.22566  0.42189  0.39428  1.0000
  H   H4        1.0  0.05297  0.41693  0.98586  1.0000
  Fe  Fe9       1.0  0.04809  0.09025  0.14628  1.0000
  S   S14       1.0  0.08090  0.10026  0.19395  1.0000
  S   S15       1.0  0.05074  0.09490  0.08047  1.0000
  C   C2        1.0  0.07232  0.40416  0.99256  1.0000
  H   H5        1.0  0.33363  0.18809  0.41369  1.0000
  Fe  Fe10      1.0  0.05076  0.39054  0.12965  1.0000
  S   S16       1.0  0.09872  0.38932  0.13403  1.0000
  S   S17       1.0  0.03582  0.36398  0.07643  1.0000
  N   N1        1.0  0.10679  0.46801  0.05723  1.0000
  H   H6        1.0  0.11269  0.44788  0.39908  1.0000
  H   H7        1.0  0.08572  0.44783  0.10670  1.0000
  H   H8        1.0  0.27253  0.04940  0.44112  1.0000
  C   C3        1.0  0.17714  0.09238  0.19895  1.0000
  C   C4        1.0  0.16215  0.10703  0.22902  1.0000
  C   C5        1.0  0.13279  0.10975  0.22650  1.0000
  C   C6        1.0  0.11805  0.09820  0.19376  1.0000
  C   C7        1.0  0.13309  0.08429  0.16318  1.0000
  C   C8        1.0  0.16246  0.08136  0.16585  1.0000
  H   H9        1.0  0.17314  0.11601  0.25443  1.0000
  H   H10       1.0  0.12137  0.12065  0.25027  1.0000
  H   H11       1.0  0.12204  0.07525  0.13785  1.0000
  H   H12       1.0  0.17384  0.07011  0.14232  1.0000
  C   C9        1.0  0.12274  0.39747  0.17283  1.0000
  C   C10       1.0  0.15030  0.38641  0.16972  1.0000
  C   C11       1.0  0.17077  0.39384  0.19820  1.0000
  C   C12       1.0  0.16398  0.41277  0.23004  1.0000
  C   C13       1.0  0.13637  0.42377  0.23326  1.0000
  C   C14       1.0  0.11580  0.41601  0.20502  1.0000
  H   H13       1.0  0.15595  0.37209  0.14494  1.0000
  H   H14       1.0  0.19187  0.38525  0.19522  1.0000
  H   H15       1.0  0.13087  0.43849  0.25768  1.0000
  H   H16       1.0  0.09475  0.42475  0.20783  1.0000
  C   C15       1.0  0.27084  0.27320  0.30322  1.0000
  C   C16       1.0  0.26204  0.27123  0.34247  1.0000
  C   C17       1.0  0.25394  0.24312  0.35798  1.0000
  C   C18       1.0  0.25437  0.21682  0.33438  1.0000
  C   C19       1.0  0.26204  0.21913  0.29478  1.0000
  C   C20       1.0  0.27059  0.24704  0.27948  1.0000
  H   H17       1.0  0.26236  0.29113  0.36120  1.0000
  H   H18       1.0  0.24784  0.24165  0.38860  1.0000
  H   H19       1.0  0.26178  0.19930  0.27604  1.0000
  H   H20       1.0  0.27723  0.24833  0.24905  1.0000
  C   C21       1.0  0.19690  0.46718  0.36101  1.0000
  C   C22       1.0  0.27325  0.46876  0.43215  1.0000
  H   H21       1.0  0.33403  0.11309  0.40560  1.0000
  H   H22       1.0  0.16711  0.42310  0.43222  1.0000
  H   H23       1.0  0.18822  0.03964  0.31620  1.0000
  S   S18       1.0  0.25046  0.02323  0.36695  1.0000
  C   C23       1.0  0.34565  0.19035  0.22381  1.0000
  H   H24       1.0  0.31257  0.02053  0.36300  1.0000
  C   C24       1.0  0.11505  0.49895  0.04329  1.0000
  C   C25       1.0  0.09495  0.45098  0.02211  1.0000
  N   N2        1.0  0.09493  0.20891  0.13138  1.0000
  C   C26       1.0  0.12200  0.19290  0.14037  1.0000
  C   C27       1.0  0.10140  0.24116  0.12088  1.0000
  C   C28       1.0  0.07551  0.20922  0.16648  1.0000
  C   C29       1.0  0.13763  0.20376  0.17801  1.0000
  C   C30       1.0  0.07655  0.25971  0.10435  1.0000
  C   C31       1.0  0.16494  0.18630  0.18330  1.0000
  C   C32       1.0  0.08528  0.29218  0.09620  1.0000
  H   H25       1.0  0.13701  0.19548  0.11552  1.0000
  H   H26       1.0  0.12755  0.42804  0.07896  1.0000
  H   H27       1.0  0.11897  0.24225  0.09935  1.0000
  H   H28       1.0  0.10906  0.25377  0.14727  1.0000
  H   H29       1.0  0.08366  0.22446  0.19013  1.0000
  H   H30       1.0  0.05484  0.21884  0.15830  1.0000
  H   H31       1.0  0.14301  0.22802  0.17625  1.0000
  H   H32       1.0  0.12479  0.20030  0.20483  1.0000
  H   H33       1.0  0.05893  0.26069  0.12562  1.0000
  H   H34       1.0  0.06874  0.24988  0.07624  1.0000
  H   H35       1.0  0.17529  0.19355  0.21113  1.0000
  H   H36       1.0  0.16075  0.16173  0.18483  1.0000
  H   H37       1.0  0.17951  0.19058  0.15843  1.0000
  H   H38       1.0  0.09192  0.30381  0.12384  1.0000
  H   H39       1.0  0.10265  0.29281  0.07442  1.0000
  H   H40       1.0  0.06716  0.30463  0.08399  1.0000
  H   H41       1.0  0.18626  0.03005  0.22216  1.0000
  H   H42       1.0  0.13618  0.46030  0.13360  1.0000
  H   H43       1.0  0.10991  0.45161  0.99686  1.0000
  S   S19       1.0  0.03283  0.01233  0.03887  1.0000
  H   H44       1.0  0.13939  0.08672  0.37386  1.0000
  S   S20       1.0  0.02250  0.43009  0.11722  1.0000
  C   C33       1.0  0.08069  0.19247  0.09780  1.0000
  H   H45       1.0  0.11769  0.02693  0.27101  1.0000
  H   H46       1.0  0.14057  0.46952  0.34482  1.0000
  H   H47       1.0  0.06294  0.19407  0.24521  1.0000
  H   H48       1.0  0.10244  0.21509  0.04850  1.0000
  H   H49       1.0  0.33707  0.36052  0.21675  1.0000
  H   H50       1.0  0.26955  0.49562  0.38026  1.0000
  C   C34       1.0  0.09677  0.00802  0.20356  1.0000
  H   H51       1.0  0.05944  0.20177  0.09284  1.0000
  H   H52       1.0  0.08847  0.16620  0.19341  1.0000
  H   H53       1.0  0.15628  0.43407  0.33374  1.0000
  C   C35       1.0  0.05116  0.18173  0.22188  1.0000
  H   H54       1.0  0.11855  0.16811  0.14258  1.0000
  H   H55       1.0  0.13805  0.04593  0.23522  1.0000
  H   H56       1.0  0.04498  0.48950  0.14512  1.0000
  H   H57       1.0  0.08296  0.41400  0.35920  1.0000
  H   H58       1.0  0.07292  0.46987  0.17011  1.0000
  C   C36       1.0  0.06911  0.17816  0.18483  1.0000
  C   C37       1.0  0.17683  0.44881  0.11168  1.0000
  H   H59       1.0  0.07275  0.41539  0.05440  1.0000
  H   H60       1.0  0.17685  0.06244  0.27778  1.0000
  C   C38       1.0  0.08701  0.41750  0.02877  1.0000
  H   H61       1.0  0.21877  0.44340  0.43805  1.0000
  S   S21       1.0  0.02158  0.04839  0.14274  1.0000
  H   H62       1.0  0.10582  0.40342  0.03380  1.0000
  H   H63       1.0  0.09632  0.03093  0.19066  1.0000
  H   H64       1.0  0.07540  0.46194  0.01168  1.0000
  H   H65       1.0  0.07709  0.16843  0.10534  1.0000
  H   H66       1.0  0.31229  0.20338  0.26384  1.0000
  H   H67       1.0  0.05741  0.16369  0.16372  1.0000
  C   C39       1.0  0.14857  0.46445  0.10644  1.0000
  H   H68       1.0  0.31509  0.22315  0.33089  1.0000
  C   C40       1.0  0.33112  0.34098  0.19781  1.0000
  C   C41       1.0  0.18099  0.42700  0.40636  1.0000
  C   C42       1.0  0.12303  0.43293  0.37705  1.0000
  C   C43       1.0  0.10136  0.42503  0.34543  1.0000
  H   H69       1.0  0.33493  0.50406  0.43989  1.0000
  C   C44       1.0  0.07905  0.17788  0.02526  1.0000
  H   H70       1.0  0.33341  0.46842  0.46451  1.0000
  C   C45       1.0  0.32511  0.17494  0.19556  1.0000
  H   H71       1.0  0.09144  0.17641  0.99760  1.0000
  C   C46       1.0  0.13275  0.45143  0.07029  1.0000
  H   H72       1.0  0.32132  0.04222  0.32200  1.0000
  H   H73       1.0  0.21599  0.47130  0.37878  1.0000
  C   C47       1.0  0.09676  0.19208  0.05801  1.0000
  H   H74       1.0  0.17329  0.06884  0.37295  1.0000
  C   C48       1.0  0.26784  0.49546  0.41200  1.0000
  H   H75       1.0  0.30814  0.16955  0.33389  1.0000
  H   H76       1.0  0.30504  0.18756  0.19443  1.0000
  H   H77       1.0  0.06020  0.19187  0.01969  1.0000
  H   H78       1.0  0.14778  0.44933  0.04523  1.0000
  H   H79       1.0  0.18657  0.45640  0.13982  1.0000
  H   H80       1.0  0.03161  0.19421  0.21520  1.0000
  H   H81       1.0  0.09409  0.44567  0.33028  1.0000
  C   C49       1.0  0.32866  0.02276  0.33965  1.0000
  C   C50       1.0  0.26954  0.02548  0.44506  1.0000
  H   H82       1.0  0.02328  0.48041  0.02913  1.0000
  H   H83       1.0  0.31444  0.05978  0.40311  1.0000
  H   H84       1.0  0.11042  0.40918  0.32320  1.0000
  H   H85       1.0  0.06353  0.46965  0.07685  1.0000
  H   H86       1.0  0.06641  0.38038  0.99818  1.0000
  H   H87       1.0  0.17352  0.49433  0.31763  1.0000
  H   H88       1.0  0.16550  0.09949  0.33974  1.0000
  H   H89       1.0  0.29951  0.19992  0.39668  1.0000
  H   H90       1.0  0.31099  0.34634  0.18313  1.0000
  C   C51       1.0  0.21171  0.42387  0.42030  1.0000
  C   C52       1.0  0.15685  0.07928  0.35441  1.0000
  H   H91       1.0  0.20325  0.44934  0.33945  1.0000
  H   H92       1.0  0.11620  0.17853  0.06046  1.0000
  H   H93       1.0  0.04557  0.15908  0.23312  1.0000
  H   H94       1.0  0.07230  0.15478  0.03333  1.0000
  C   C53       1.0  0.08638  0.49595  0.11932  1.0000
  S   S22       1.0  0.32711  0.42781  0.20791  1.0000
  C   C54       1.0  0.32583  0.17888  0.35137  1.0000
  H   H95       1.0  0.19001  0.47446  0.46705  1.0000
  C   C55       1.0  0.14885  0.44874  0.35852  1.0000
  H   H96       1.0  0.15282  0.48886  0.10384  1.0000
  N   N3        1.0  0.17292  0.45592  0.38601  1.0000
  H   H97       1.0  0.12888  0.41159  0.39160  1.0000
  C   C56       1.0  0.08500  0.46904  0.08959  1.0000
  C   C57       1.0  0.16310  0.47946  0.41536  1.0000
  C   C58       1.0  0.16980  0.04395  0.29725  1.0000
  H   H98       1.0  0.17416  0.42398  0.11274  1.0000
  H   H99       1.0  0.19120  0.45439  0.08706  1.0000
  H   H100      1.0  0.33426  0.17399  0.16546  1.0000
  H   H101      1.0  0.14593  0.47036  0.43389  1.0000
  S   S23       1.0  0.01975  0.36939  0.17080  1.0000
  C   C59       1.0  0.14591  0.05682  0.32366  1.0000
  Fe  Fe11      1.0  0.02166  0.05457  0.07643  1.0000
  C   C60       1.0  0.13566  0.02398  0.25040  1.0000
  C   C61       1.0  0.33318  0.19260  0.26605  1.0000
  H   H102      1.0  0.32771  0.32103  0.21663  1.0000
  H   H103      1.0  0.13048  0.06904  0.30526  1.0000
  C   C62       1.0  0.31584  0.18217  0.39406  1.0000
  H   H104      1.0  0.13468  0.03854  0.33914  1.0000
  H   H105      1.0  0.23695  0.02336  0.20842  1.0000
  H   H106      1.0  0.33728  0.24842  0.26365  1.0000
  H   H107      1.0  0.32093  0.15147  0.20506  1.0000
  H   H108      1.0  0.33841  0.27048  0.32840  1.0000
  H   H109      1.0  0.15363  0.49887  0.39974  1.0000
  C   C63       1.0  0.21588  0.39556  0.44479  1.0000
  C   C64       1.0  0.19148  0.49668  0.33805  1.0000
  H   H110      1.0  0.08110  0.00695  0.22773  1.0000
  C   C65       1.0  0.06715  0.49093  0.15468  1.0000
  H   H111      1.0  0.22197  0.02250  0.27859  1.0000
  H   H112      1.0  0.23828  0.39373  0.45327  1.0000
  H   H113      1.0  0.32909  0.16908  0.27518  1.0000
  H   H114      1.0  0.32184  0.09918  0.45225  1.0000
  H   H115      1.0  0.30654  0.16062  0.40399  1.0000
  C   C66       1.0  0.33639  0.06416  0.41195  1.0000
  H   H116      1.0  0.10770  0.49983  0.13082  1.0000
  H   H117      1.0  0.21016  0.37510  0.42739  1.0000
  H   H118      1.0  0.13283  0.49720  0.02203  1.0000
  N   N4        1.0  0.16211  0.01653  0.27279  1.0000
  C   C67       1.0  0.18484  0.01067  0.24266  1.0000
  C   C68       1.0  0.01584  0.48257  0.99926  1.0000
  C   C69       1.0  0.25913  0.00784  0.41390  1.0000
  C   C70       1.0  0.18530  0.49174  0.44466  1.0000
  H   H119      1.0  0.20491  0.49838  0.42971  1.0000
  H   H120      1.0  0.34234  0.04897  0.43621  1.0000
  C   C71       1.0  0.33793  0.09624  0.42883  1.0000
  H   H121      1.0  0.34325  0.16240  0.35073  1.0000
  C   C72       1.0  0.21668  0.50511  0.31270  1.0000
  H   H122      1.0  0.09974  0.48642  0.70616  1.0000
  H   H123      1.0  0.25048  0.01402  0.66174  1.0000
  C   C73       1.0  0.27154  0.46932  0.47364  1.0000
  H   H124      1.0  0.22387  0.02679  0.60954  1.0000
  H   H125      1.0  0.19980  0.09570  0.66318  1.0000
  H   H126      1.0  0.20717  0.04262  0.68065  1.0000
  H   H127      1.0  0.08640  0.40463  0.96650  1.0000
  C   C74       1.0  0.26477  0.49609  0.49466  1.0000
  H   H128      1.0  0.17308  0.04839  0.65895  1.0000
  H   H129      1.0  0.20303  0.39670  0.47207  1.0000
  H   H130      1.0  0.28306  0.02632  0.50582  1.0000
  H   H131      1.0  0.31834  0.48150  0.52420  1.0000
  H   H132      1.0  0.19372  0.08529  0.61241  1.0000
  H   H133      1.0  0.27560  0.44885  0.48966  1.0000
  H   H134      1.0  0.28806  0.46912  0.58096  1.0000
  H   H135      1.0  0.05882  0.48551  0.66185  1.0000
  H   H136      1.0  0.16282  0.00940  0.69728  1.0000
  H   H137      1.0  0.18854  0.02959  0.59512  1.0000
  H   H138      1.0  0.22785  0.07954  0.63431  1.0000
  C   C75       1.0  0.20490  0.07887  0.63974  1.0000
  C   C76       1.0  0.30655  0.47301  0.60015  1.0000
  H   H139      1.0  0.04858  0.48574  0.71311  1.0000
  C   C77       1.0  0.19591  0.04750  0.65293  1.0000
  H   H140      1.0  0.29898  0.48007  0.62983  1.0000
  C   C78       1.0  0.20207  0.02360  0.62051  1.0000
  C   C79       1.0  0.33667  0.48871  0.54207  1.0000
  H   H141      1.0  0.01654  0.50066  0.54219  1.0000
  C   C80       1.0  0.05764  0.49947  0.68913  1.0000
  H   H142      1.0  0.26360  0.49606  0.52648  1.0000
  H   H143      1.0  0.34265  0.50130  0.60446  1.0000
  H   H144      1.0  0.31843  0.45163  0.60303  1.0000
  C   C81       1.0  0.27531  0.01230  0.48192  1.0000
  H   H145      1.0  0.01694  0.48529  0.62573  1.0000
  C   C82       1.0  0.32525  0.49769  0.58335  1.0000
  H   H146      1.0  0.11480  0.00739  0.67083  1.0000
  C   C83       1.0  0.21459  0.00433  0.25848  1.0000
  H   H147      1.0  0.18326  0.95382  0.38182  1.0000
  H   H148      1.0  0.29762  0.96207  0.28829  1.0000
  H   H149      1.0  0.24658  0.96292  0.39655  1.0000
  H   H150      1.0  0.25749  0.54281  0.41698  1.0000
  C   C84       1.0  0.32736  0.99441  0.31228  1.0000
  H   H151      1.0  0.21496  0.98247  0.27394  1.0000
  H   H152      1.0  0.17962  0.99068  0.22404  1.0000
  H   H153      1.0  0.16664  0.00264  0.35859  1.0000
  H   H154      1.0  0.19674  0.99050  0.33176  1.0000
  C   C85       1.0  0.26118  0.52227  0.43302  1.0000
  H   H155      1.0  0.17984  0.93738  0.33328  1.0000
  H   H156      1.0  0.05431  0.96129  0.99544  1.0000
  C   C86       1.0  0.17418  0.98612  0.33616  1.0000
  C   C87       1.0  0.09149  0.51693  0.02252  1.0000
  H   H157      1.0  0.12320  0.51306  0.06786  1.0000
  C   C88       1.0  0.03948  0.97232  0.97636  1.0000
  C   C89       1.0  0.15692  0.98892  0.29750  1.0000
  H   H158      1.0  0.29068  0.97334  0.33857  1.0000
  C   C90       1.0  0.26060  0.96364  0.45710  1.0000
  C   C91       1.0  0.25473  0.97685  0.42027  1.0000
  H   H159      1.0  0.03190  0.52786  0.99232  1.0000
  H   H160      1.0  0.30720  0.57011  0.44786  1.0000
  H   H161      1.0  0.13454  0.98773  0.30674  1.0000
  H   H162      1.0  0.32784  0.00405  0.42158  1.0000
  H   H163      1.0  0.12578  0.97753  0.23084  1.0000
  H   H164      1.0  0.08169  0.56222  0.00370  1.0000
  H   H165      1.0  0.16038  0.96811  0.27945  1.0000
  H   H166      1.0  0.14896  0.94965  0.36021  1.0000
  C   C92       1.0  0.17127  0.95476  0.35382  1.0000
  H   H167      1.0  0.11860  0.55368  0.00389  1.0000
  H   H168      1.0  0.07957  0.51707  0.10502  1.0000
  C   C93       1.0  0.02075  0.50949  0.97823  1.0000
  C   C94       1.0  0.23562  0.00176  0.22455  1.0000
  C   C95       1.0  0.09856  0.55042  0.01996  1.0000
  C   C96       1.0  0.29782  0.98141  0.30936  1.0000
  H   H169      1.0  0.33260  0.97250  0.38947  1.0000
  H   H170      1.0  0.33941  0.95867  0.45842  1.0000
  H   H171      1.0  0.06915  0.51009  0.17584  1.0000
  H   H172      1.0  0.10017  0.56066  0.04990  1.0000
  H   H173      1.0  0.28298  0.99870  0.29875  1.0000
  C   C97       1.0  0.17459  0.51958  0.46693  1.0000
  H   H174      1.0  0.23582  0.50750  0.33094  1.0000
  H   H175      1.0  0.21266  0.52689  0.29799  1.0000
  H   H176      1.0  0.22945  0.98350  0.20363  1.0000
  H   H177      1.0  0.18744  0.51573  0.35877  1.0000
  H   H178      1.0  0.25671  0.99648  0.23628  1.0000
  H   H179      1.0  0.33161  0.60108  0.44876  1.0000
  C   C98       1.0  0.32223  0.58287  0.46665  1.0000
  C   C99       1.0  0.12610  0.00066  0.21875  1.0000
  H   H180      1.0  0.17047  0.53824  0.44620  1.0000
  C   C100      1.0  0.02580  0.99866  0.98996  1.0000
  H   H181      1.0  0.25697  0.93984  0.46140  1.0000
  H   H182      1.0  0.14036  0.00114  0.19287  1.0000
  H   H183      1.0  0.04265  0.85670  0.98340  1.0000
  H   H184      1.0  0.07120  0.51463  0.03812  1.0000
  H   H185      1.0  0.09069  0.99153  0.18022  1.0000
  C   C101      1.0  0.34383  0.98875  0.40888  1.0000
  H   H186      1.0  0.34143  0.97630  0.32266  1.0000
  H   H187      1.0  0.08866  0.50832  0.99187  1.0000
  H   H188      1.0  0.33422  0.00062  0.28210  1.0000
  Fe  Fe12      1.0  0.27678  0.92031  0.56711  1.0000
  S   S24       1.0  0.28924  0.92331  0.63153  1.0000
  S   S25       1.0  0.27759  0.96645  0.53625  1.0000
  Fe  Fe13      1.0  0.26817  0.85160  0.57331  1.0000
  S   S26       1.0  0.27952  0.85102  0.63708  1.0000
  S   S27       1.0  0.25823  0.80741  0.54131  1.0000
  Fe  Fe14      1.0  0.25251  0.89240  0.64220  1.0000
  S   S28       1.0  0.22408  0.89602  0.69627  1.0000
  Fe  Fe15      1.0  0.31511  0.88165  0.62080  1.0000
  C   C102      1.0  0.07082  0.85734  0.93436  1.0000
  S   S29       1.0  0.23868  0.89135  0.57900  1.0000
  S   S30       1.0  0.30503  0.88033  0.55589  1.0000
  Fe  Fe16      1.0  0.25858  0.57488  0.56379  1.0000
  S   S31       1.0  0.26219  0.54525  0.61688  1.0000
  S   S32       1.0  0.25306  0.55797  0.49955  1.0000
  Fe  Fe17      1.0  0.26649  0.63302  0.61351  1.0000
  S   S33       1.0  0.27123  0.60626  0.66903  1.0000
  S   S34       1.0  0.27080  0.68280  0.63075  1.0000
  Fe  Fe18      1.0  0.29863  0.57516  0.63391  1.0000
  H   H189      1.0  0.05315  0.54359  0.66455  1.0000
  Fe  Fe19      1.0  0.23426  0.57921  0.64798  1.0000
  S   S35       1.0  0.20358  0.56656  0.69738  1.0000
  S   S36       1.0  0.29661  0.60327  0.57947  1.0000
  S   S37       1.0  0.22802  0.60735  0.59388  1.0000
  Fe  Fe20      1.0  0.04021  0.58687  0.77584  1.0000
  S   S38       1.0  0.03927  0.60852  0.83627  1.0000
  S   S39       1.0  0.07279  0.59145  0.72604  1.0000
  Fe  Fe21      1.0  0.05892  0.89764  0.75775  1.0000
  S   S40       1.0  0.06127  0.89326  0.82388  1.0000
  S   S41       1.0  0.09127  0.90978  0.71033  1.0000
  H   H190      1.0  0.03531  0.69905  0.86137  1.0000
  N   N5        1.0  0.33634  0.59694  0.78920  1.0000
  H   H191      1.0  0.21868  0.94838  0.52322  1.0000
  C   C103      1.0  0.02915  0.77369  0.83745  1.0000
  H   H192      1.0  0.30983  0.78043  0.64444  1.0000
  N   N6        1.0  0.19737  0.99126  0.63187  1.0000
  C   C104      1.0  0.04305  0.86651  0.95350  1.0000
  H   H193      1.0  0.02463  0.57146  0.61513  1.0000
  C   C105      1.0  0.16718  0.57386  0.70464  1.0000
  C   C106      1.0  0.15504  0.56774  0.74158  1.0000
  C   C107      1.0  0.12631  0.57308  0.74887  1.0000
  C   C108      1.0  0.10923  0.58437  0.71908  1.0000
  C   C109      1.0  0.12130  0.59047  0.68211  1.0000
  C   C110      1.0  0.15007  0.58530  0.67489  1.0000
  H   H194      1.0  0.16800  0.55878  0.76477  1.0000
  H   H195      1.0  0.11740  0.56823  0.77742  1.0000
  H   H196      1.0  0.10832  0.59919  0.65879  1.0000
  H   H197      1.0  0.15900  0.59003  0.64631  1.0000
  H   H198      1.0  0.25969  0.56456  0.74700  1.0000
  H   H199      1.0  0.16571  0.81105  0.52022  1.0000
  H   H200      1.0  0.19766  0.79303  0.57354  1.0000
  C   C111      1.0  0.24674  0.98944  0.66426  1.0000
  H   H201      1.0  0.20833  0.83123  0.58313  1.0000
  C   C112      1.0  0.18697  0.89811  0.69905  1.0000
  C   C113      1.0  0.17382  0.89504  0.73591  1.0000
  C   C114      1.0  0.14448  0.89757  0.73981  1.0000
  C   C115      1.0  0.12800  0.90378  0.70689  1.0000
  C   C116      1.0  0.14114  0.90641  0.66989  1.0000
  C   C117      1.0  0.17042  0.90327  0.66587  1.0000
  H   H202      1.0  0.18642  0.89102  0.76179  1.0000
  H   H203      1.0  0.13472  0.89563  0.76847  1.0000
  H   H204      1.0  0.12853  0.91103  0.64421  1.0000
  H   H205      1.0  0.18017  0.90531  0.63727  1.0000
  C   C118      1.0  0.25932  0.77246  0.56610  1.0000
  C   C119      1.0  0.26047  0.77137  0.60716  1.0000
  C   C120      1.0  0.26321  0.74360  0.62627  1.0000
  C   C121      1.0  0.26451  0.71646  0.60465  1.0000
  C   C122      1.0  0.26238  0.71731  0.56356  1.0000
  C   C123      1.0  0.25976  0.74525  0.54438  1.0000
  H   H206      1.0  0.25987  0.79195  0.62422  1.0000
  H   H207      1.0  0.26476  0.74316  0.65806  1.0000
  H   H208      1.0  0.26337  0.69656  0.54653  1.0000
  H   H209      1.0  0.25870  0.74582  0.51255  1.0000
  H   H210      1.0  0.31064  0.59337  0.49167  1.0000
  C   C124      1.0  0.15593  0.98817  0.68284  1.0000
  H   H211      1.0  0.16692  0.97653  0.56319  1.0000
  C   C125      1.0  0.19048  0.81681  0.57378  1.0000
  C   C126      1.0  0.03940  0.74748  0.85544  1.0000
  H   H212      1.0  0.19076  0.52735  0.48830  1.0000
  H   H213      1.0  0.04547  0.94041  0.92813  1.0000
  S   S42       1.0  0.03438  0.85482  0.74910  1.0000
  C   C127      1.0  0.33220  0.80019  0.51712  1.0000
  C   C128      1.0  0.01515  0.51024  0.62345  1.0000
  H   H214      1.0  0.05684  0.74919  0.87564  1.0000
  C   C129      1.0  0.29977  0.55466  0.77506  1.0000
  H   H215      1.0  0.31312  0.78686  0.51010  1.0000
  H   H216      1.0  0.29863  0.60009  0.75383  1.0000
  H   H217      1.0  0.17627  0.84960  0.53081  1.0000
  C   C130      1.0  0.34524  0.56201  0.48160  1.0000
  H   H218      1.0  0.33037  0.70877  0.58507  1.0000
  C   C131      1.0  0.01400  0.57986  0.64215  1.0000
  H   H219      1.0  0.20477  0.94725  0.60592  1.0000
  H   H220      1.0  0.16069  0.96206  0.63030  1.0000
  Fe  Fe22      1.0  0.02040  0.91880  0.82663  1.0000
  H   H221      1.0  0.07240  0.83241  0.93169  1.0000
  H   H222      1.0  0.11709  0.98674  0.71617  1.0000
  H   H223      1.0  0.20135  0.82265  0.51220  1.0000
  C   C132      1.0  0.20627  0.97141  0.59755  1.0000
  H   H224      1.0  0.33311  0.67439  0.64277  1.0000
  H   H225      1.0  0.02006  0.86472  0.89848  1.0000
  H   H226      1.0  0.14638  0.81391  0.58687  1.0000
  C   C133      1.0  0.03998  0.52838  0.68271  1.0000
  H   H227      1.0  0.29780  0.79739  0.71189  1.0000
  S   S43       1.0  0.01987  0.92617  0.76085  1.0000
  C   C134      1.0  0.21493  0.98249  0.66695  1.0000
  H   H228      1.0  0.16403  0.96898  0.70029  1.0000
  C   C135      1.0  0.33821  0.76937  0.57918  1.0000
  H   H229      1.0  0.18515  0.95478  0.50076  1.0000
  H   H230      1.0  0.31433  0.53514  0.77516  1.0000
  C   C136      1.0  0.33222  0.78687  0.64698  1.0000
  H   H231      1.0  0.26538  0.52537  0.75739  1.0000
  H   H232      1.0  0.02116  0.83060  0.92445  1.0000
  H   H233      1.0  0.32924  0.82338  0.50589  1.0000
  H   H234      1.0  0.25660  0.97802  0.63865  1.0000
  C   C137      1.0  0.33304  0.64495  0.74669  1.0000
  H   H235      1.0  0.18809  0.92844  0.54061  1.0000
  C   C138      1.0  0.27568  0.54637  0.74733  1.0000
  N   N7        1.0  0.08925  0.69130  0.74656  1.0000
  C   C139      1.0  0.10983  0.67440  0.72074  1.0000
  C   C140      1.0  0.06019  0.67928  0.73831  1.0000
  C   C141      1.0  0.09129  0.72440  0.73763  1.0000
  C   C142      1.0  0.09556  0.68689  0.78968  1.0000
  C   C143      1.0  0.10065  0.65386  0.80230  1.0000
  C   C144      1.0  0.14111  0.68313  0.72627  1.0000
  C   C145      1.0  0.07063  0.74499  0.76067  1.0000
  C   C146      1.0  0.04717  0.68817  0.69819  1.0000
  H   H236      1.0  0.33325  0.81072  0.63769  1.0000
  C   C147      1.0  0.10303  0.65159  0.84706  1.0000
  C   C148      1.0  0.16043  0.66065  0.70534  1.0000
  C   C149      1.0  0.07134  0.77707  0.74505  1.0000
  H   H237      1.0  0.10511  0.67793  0.68911  1.0000
  H   H238      1.0  0.10754  0.64964  0.72466  1.0000
  H   H239      1.0  0.06012  0.65424  0.73938  1.0000
  H   H240      1.0  0.04516  0.68628  0.76187  1.0000
  H   H241      1.0  0.08885  0.72824  0.70546  1.0000
  H   H242      1.0  0.11251  0.73310  0.74501  1.0000
  H   H243      1.0  0.11402  0.70048  0.79906  1.0000
  H   H244      1.0  0.07797  0.69573  0.80808  1.0000
  H   H245      1.0  0.12039  0.64492  0.78940  1.0000
  H   H246      1.0  0.08330  0.63906  0.79244  1.0000
  H   H247      1.0  0.14516  0.70566  0.71358  1.0000
  H   H248      1.0  0.14725  0.68384  0.75772  1.0000
  H   H249      1.0  0.07667  0.74603  0.79220  1.0000
  H   H250      1.0  0.04875  0.73686  0.75867  1.0000
  H   H251      1.0  0.04330  0.71280  0.69706  1.0000
  H   H252      1.0  0.06100  0.68175  0.67324  1.0000
  H   H253      1.0  0.22859  0.97517  0.58979  1.0000
  H   H254      1.0  0.32336  0.54849  0.53381  1.0000
  H   H255      1.0  0.33984  0.76381  0.70343  1.0000
  H   H256      1.0  0.10660  0.62772  0.85521  1.0000
  H   H257      1.0  0.12086  0.66535  0.85810  1.0000
  H   H258      1.0  0.08338  0.65940  0.86152  1.0000
  H   H259      1.0  0.15453  0.65778  0.67386  1.0000
  H   H260      1.0  0.18243  0.66871  0.70681  1.0000
  H   H261      1.0  0.15935  0.63850  0.72012  1.0000
  H   H262      1.0  0.09269  0.78675  0.74793  1.0000
  H   H263      1.0  0.06458  0.77739  0.71378  1.0000
  H   H264      1.0  0.05670  0.79141  0.76241  1.0000
  H   H265      1.0  0.03779  0.53984  0.71194  1.0000
  H   H266      1.0  0.32652  0.73128  0.64918  1.0000
  H   H267      1.0  0.32541  0.57759  0.73243  1.0000
  C   C150      1.0  0.03443  0.96030  0.93821  1.0000
  H   H268      1.0  0.25915  0.95426  0.70515  1.0000
  C   C151      1.0  0.32099  0.60840  0.82541  1.0000
  C   C152      1.0  0.01527  0.97420  0.91316  1.0000
  C   C153      1.0  0.31930  0.64131  0.88724  1.0000
  N   N8        1.0  0.16835  0.80727  0.64220  1.0000
  C   C154      1.0  0.14520  0.81904  0.66860  1.0000
  C   C155      1.0  0.19589  0.81765  0.65966  1.0000
  C   C156      1.0  0.16837  0.77317  0.64024  1.0000
  C   C157      1.0  0.15017  0.75785  0.60785  1.0000
  C   C158      1.0  0.20113  0.80917  0.70332  1.0000
  C   C159      1.0  0.11477  0.81115  0.65645  1.0000
  C   C160      1.0  0.09371  0.83191  0.67711  1.0000
  C   C161      1.0  0.14982  0.72361  0.61258  1.0000
  C   C162      1.0  0.23218  0.81094  0.71393  1.0000
  H   H269      1.0  0.14737  0.81042  0.69906  1.0000
  H   H270      1.0  0.14700  0.84398  0.67156  1.0000
  H   H271      1.0  0.19800  0.84259  0.65761  1.0000
  H   H272      1.0  0.21367  0.80831  0.64221  1.0000
  H   H273      1.0  0.19004  0.76444  0.63533  1.0000
  H   H274      1.0  0.16176  0.76387  0.66913  1.0000
  H   H275      1.0  0.15875  0.76251  0.57813  1.0000
  H   H276      1.0  0.12825  0.76578  0.60860  1.0000
  H   H277      1.0  0.19391  0.78597  0.70961  1.0000
  H   H278      1.0  0.18970  0.82513  0.72308  1.0000
  H   H279      1.0  0.11095  0.81349  0.62453  1.0000
  H   H280      1.0  0.11002  0.78758  0.66496  1.0000
  H   H281      1.0  0.09764  0.83336  0.70933  1.0000
  H   H282      1.0  0.09512  0.85487  0.66463  1.0000
  H   H283      1.0  0.07206  0.82357  0.67215  1.0000
  H   H284      1.0  0.13753  0.71310  0.58828  1.0000
  H   H285      1.0  0.17146  0.71438  0.61134  1.0000
  H   H286      1.0  0.13995  0.71743  0.64100  1.0000
  H   H287      1.0  0.24057  0.83379  0.70816  1.0000
  H   H288      1.0  0.23495  0.80619  0.74574  1.0000
  H   H289      1.0  0.24435  0.79408  0.69658  1.0000
  H   H290      1.0  0.15515  0.51428  0.48346  1.0000
  H   H291      1.0  0.28357  0.54250  0.71685  1.0000
  S   S44       1.0  0.04534  0.80896  0.84767  1.0000
  C   C163      1.0  0.31948  0.80606  0.71540  1.0000
  C   C164      1.0  0.19587  0.95023  0.52909  1.0000
  H   H292      1.0  0.21236  0.95796  0.67264  1.0000
  C   C165      1.0  0.16652  0.98540  0.63963  1.0000
  H   H293      1.0  0.31956  0.81437  0.57504  1.0000
  H   H294      1.0  0.04312  0.89138  0.95639  1.0000
  H   H295      1.0  0.16278  0.84656  0.60585  1.0000
  H   H296      1.0  0.08730  0.52043  0.72981  1.0000
  C   C166      1.0  0.16550  0.82169  0.60232  1.0000
  C   C167      1.0  0.33284  0.53686  0.50785  1.0000
  C   C168      1.0  0.18284  0.82560  0.53173  1.0000
  H   H297      1.0  0.29660  0.64547  0.88269  1.0000
  H   H298      1.0  0.32451  0.63500  0.71896  1.0000
  H   H299      1.0  0.31647  0.76035  0.57843  1.0000
  C   C169      1.0  0.02737  0.71902  0.84723  1.0000
  H   H300      1.0  0.31512  0.65192  0.76558  1.0000
  H   H301      1.0  0.29105  0.55796  0.80512  1.0000
  H   H302      1.0  0.32199  0.62164  0.90684  1.0000
  C   C170      1.0  0.34009  0.78693  0.69135  1.0000
  H   H303      1.0  0.28477  0.98352  0.69827  1.0000
  H   H304      1.0  0.11574  0.96663  0.66992  1.0000
  H   H305      1.0  0.25404  0.99099  0.72777  1.0000
  Fe  Fe23      1.0  0.03392  0.85195  0.81499  1.0000
  S   S45       1.0  0.33829  0.55336  0.65825  1.0000
  C   C171      1.0  0.26200  0.97890  0.70119  1.0000
  H   H306      1.0  0.31486  0.52668  0.49199  1.0000
  H   H307      1.0  0.32025  0.82993  0.70579  1.0000
  H   H308      1.0  0.03037  0.58910  0.66214  1.0000
  H   H309      1.0  0.32510  0.80535  0.74710  1.0000
  C   C172      1.0  0.31519  0.58338  0.76097  1.0000
  C   C173      1.0  0.33714  0.80147  0.56160  1.0000
  C   C174      1.0  0.12395  0.98719  0.68488  1.0000
  H   H310      1.0  0.29929  0.61555  0.81778  1.0000
  H   H311      1.0  0.31276  0.51864  0.58211  1.0000
  C   C175      1.0  0.01787  0.85516  0.92853  1.0000
  H   H312      1.0  0.31811  0.58979  0.84680  1.0000
  C   C176      1.0  0.18988  0.97579  0.55848  1.0000
  C   C177      1.0  0.27080  0.98133  0.48837  1.0000
  C   C178      1.0  0.25990  0.52294  0.47453  1.0000
  H   H313      1.0  0.20778  0.99392  0.69435  1.0000
  H   H314      1.0  0.08852  0.86571  0.95263  1.0000
  H   H315      1.0  0.07270  0.86721  0.90456  1.0000
  S   S46       1.0  0.01880  0.54761  0.91404  1.0000
  H   H316      1.0  0.03532  0.51763  0.61007  1.0000
  H   H317      1.0  0.09821  0.52091  0.67872  1.0000
  C   C179      1.0  0.33404  0.63571  0.84782  1.0000
  H   H318      1.0  0.02213  0.64778  0.68961  1.0000
  H   H319      1.0  0.33180  0.65649  0.83021  1.0000
  H   H320      1.0  0.33596  0.68869  0.71909  1.0000
  H   H321      1.0  0.32853  0.66142  0.90209  1.0000
  H   H322      1.0  0.19641  0.99719  0.54447  1.0000
  C   C180      1.0  0.01905  0.67254  0.69172  1.0000
  H   H323      1.0  0.15330  0.00039  0.62125  1.0000
  S   S47       1.0  0.01351  0.54700  0.79324  1.0000
  C   C181      1.0  0.08752  0.50738  0.70165  1.0000
  Fe  Fe24      1.0  0.51404  0.08776  0.05756  1.0000
  S   S48       1.0  0.50865  0.06865  0.99425  1.0000
  Fe  Fe25      1.0  0.51150  0.14382  0.11409  1.0000
  S   S49       1.0  0.50496  0.19290  0.13363  1.0000
  Fe  Fe26      1.0  0.48475  0.08403  0.13828  1.0000
  S   S50       1.0  0.44578  0.05914  0.16084  1.0000
  S   S51       1.0  0.47866  0.11410  0.08634  1.0000
  S   S52       1.0  0.52755  0.43584  0.14293  1.0000
  Fe  Fe27      1.0  0.51117  0.36366  0.08219  1.0000
  S   S53       1.0  0.51731  0.36347  0.14725  1.0000
  S   S54       1.0  0.50455  0.31991  0.04780  1.0000
  Fe  Fe28      1.0  0.49027  0.40483  0.14825  1.0000
  S   S55       1.0  0.45935  0.40758  0.19956  1.0000
  S   S56       1.0  0.48140  0.40332  0.08315  1.0000
  C   C182      1.0  0.50489  0.22755  0.10829  1.0000
  C   C183      1.0  0.50920  0.22952  0.06762  1.0000
  C   C184      1.0  0.50902  0.25794  0.04932  1.0000
  C   C185      1.0  0.50487  0.28454  0.07156  1.0000
  H   H324      1.0  0.51250  0.20920  0.05030  1.0000
  H   H325      1.0  0.51216  0.25931  0.01781  1.0000
  C   C186      1.0  0.37537  0.09667  0.24114  1.0000
  C   C187      1.0  0.37086  0.07123  0.21722  1.0000
  C   C188      1.0  0.39243  0.06039  0.19228  1.0000
  C   C189      1.0  0.41853  0.07513  0.19032  1.0000
  C   C190      1.0  0.42274  0.10101  0.21353  1.0000
  C   C191      1.0  0.40141  0.11147  0.23908  1.0000
  C   C192      1.0  0.35546  0.24093  0.28176  1.0000
  H   H326      1.0  0.38890  0.04040  0.17447  1.0000
  H   H327      1.0  0.44274  0.11245  0.21259  1.0000
  C   C193      1.0  0.36359  0.42013  0.20570  1.0000
  C   C194      1.0  0.42238  0.41174  0.20058  1.0000
  C   C195      1.0  0.40838  0.40996  0.23696  1.0000
  C   C196      1.0  0.37913  0.41386  0.23951  1.0000
  C   C197      1.0  0.49570  0.47466  0.97057  1.0000
  C   C198      1.0  0.37754  0.42138  0.16916  1.0000
  C   C199      1.0  0.40674  0.41686  0.16652  1.0000
  H   H328      1.0  0.42026  0.40585  0.26347  1.0000
  H   H329      1.0  0.65050  0.46554  0.20558  1.0000
  C   C200      1.0  0.66792  0.39268  0.22268  1.0000
  H   H330      1.0  0.41718  0.41763  0.13834  1.0000
  N   N9        1.0  0.35714  0.02950  0.35680  1.0000
  C   C201      1.0  0.51343  0.49071  0.99606  1.0000
  S   S57       1.0  0.51883  0.05677  0.10847  1.0000
  S   S58       1.0  0.51613  0.11469  0.16794  1.0000
  Fe  Fe29      1.0  0.54969  0.09082  0.13282  1.0000
  S   S59       1.0  0.59347  0.07438  0.14989  1.0000
  S   S60       1.0  0.54653  0.12108  0.08013  1.0000
  Fe  Fe30      1.0  0.52023  0.43200  0.07695  1.0000
  S   S61       1.0  0.52514  0.47600  0.04202  1.0000
  Fe  Fe31      1.0  0.55411  0.39406  0.13667  1.0000
  S   S62       1.0  0.59416  0.37651  0.16571  1.0000
  S   S63       1.0  0.54931  0.39212  0.07069  1.0000
  C   C202      1.0  0.50060  0.28244  0.11215  1.0000
  C   C203      1.0  0.50052  0.25414  0.13033  1.0000
  H   H331      1.0  0.49709  0.30260  0.12956  1.0000
  H   H332      1.0  0.49714  0.25280  0.16179  1.0000
  C   C204      1.0  0.65985  0.10928  0.23841  1.0000
  C   C205      1.0  0.63236  0.12083  0.23945  1.0000
  C   C206      1.0  0.61200  0.11114  0.21196  1.0000
  C   C207      1.0  0.61873  0.08923  0.18349  1.0000
  C   C208      1.0  0.64624  0.07777  0.18239  1.0000
  C   C209      1.0  0.35364  0.33438  0.16680  1.0000
  H   H333      1.0  0.62659  0.13692  0.26218  1.0000
  H   H334      1.0  0.59090  0.11992  0.21350  1.0000
  H   H335      1.0  0.65167  0.06074  0.16061  1.0000
  H   H336      1.0  0.48923  0.45207  0.97801  1.0000
  C   C210      1.0  0.62303  0.39571  0.18777  1.0000
  C   C211      1.0  0.64441  0.37861  0.20526  1.0000
  H   H337      1.0  0.34972  0.46255  0.39644  1.0000
  C   C212      1.0  0.63802  0.20547  0.23673  1.0000
  C   C213      1.0  0.64888  0.44122  0.20557  1.0000
  C   C214      1.0  0.62536  0.42714  0.18811  1.0000
  H   H338      1.0  0.64278  0.35432  0.20551  1.0000
  H   H339      1.0  0.48524  0.01413  0.04635  1.0000
  H   H340      1.0  0.59404  0.43958  0.98103  1.0000
  H   H341      1.0  0.60914  0.44061  0.17479  1.0000
  C   C215      1.0  0.36443  0.47126  0.41925  1.0000
  H   H342      1.0  0.35052  0.21296  0.21199  1.0000
  C   C216      1.0  0.46298  0.50527  0.15239  1.0000
  H   H343      1.0  0.37854  0.48799  0.40536  1.0000
  C   C217      1.0  0.42762  0.03658  0.29825  1.0000
  H   H344      1.0  0.35582  0.50261  0.09308  1.0000
  C   C218      1.0  0.46583  0.48705  0.19004  1.0000
  H   H345      1.0  0.37435  0.26044  0.33623  1.0000
  C   C219      1.0  0.42607  0.43162  0.01300  1.0000
  H   H346      1.0  0.36562  0.42595  0.14283  1.0000
  H   H347      1.0  0.38858  0.29339  0.28040  1.0000
  H   H348      1.0  0.43764  0.18911  0.35947  1.0000
  C   C220      1.0  0.58567  0.19531  0.11232  1.0000
  C   C221      1.0  0.34775  0.48585  0.45284  1.0000
  H   H349      1.0  0.37975  0.00882  0.30798  1.0000
  H   H350      1.0  0.35321  0.35313  0.14539  1.0000
  H   H351      1.0  0.35888  0.10057  0.44192  1.0000
  H   H352      1.0  0.38739  0.20085  0.36281  1.0000
  H   H353      1.0  0.66830  0.41091  0.30928  1.0000
  H   H354      1.0  0.47656  0.47437  0.10668  1.0000
  C   C222      1.0  0.35883  0.26628  0.31346  1.0000
  H   H355      1.0  0.35142  0.07778  0.35454  1.0000
  H   H356      1.0  0.42005  0.04819  0.27149  1.0000
  H   H357      1.0  0.38206  0.01555  0.40664  1.0000
  H   H358      1.0  0.62796  0.49757  0.36641  1.0000
  C   C223      1.0  0.35657  0.06017  0.37659  1.0000
  H   H359      1.0  0.65782  0.21934  0.31844  1.0000
  H   H360      1.0  0.44685  0.34759  0.03783  1.0000
  C   C224      1.0  0.65706  0.23356  0.24148  1.0000
  H   H361      1.0  0.43385  0.21915  0.12321  1.0000
  H   H362      1.0  0.44334  0.31285  0.09385  1.0000
  C   C225      1.0  0.65041  0.42262  0.32373  1.0000
  H   H363      1.0  0.41716  0.15791  0.34091  1.0000
  H   H364      1.0  0.64337  0.18747  0.25764  1.0000
  H   H365      1.0  0.34757  0.31341  0.15100  1.0000
  H   H366      1.0  0.47179  0.01277  0.09454  1.0000
  H   H367      1.0  0.60386  0.21974  0.27528  1.0000
  H   H368      1.0  0.42610  0.10119  0.03895  1.0000
  H   H369      1.0  0.36927  0.04660  0.29961  1.0000
  C   C226      1.0  0.42924  0.08007  0.02162  1.0000
  H   H370      1.0  0.64151  0.32373  0.14308  1.0000
  C   C227      1.0  0.40757  0.04212  0.33276  1.0000
  H   H371      1.0  0.42748  0.43843  0.07563  1.0000
  S   S64       1.0  0.35024  0.10961  0.27629  1.0000
  H   H372      1.0  0.37757  0.06607  0.38844  1.0000
  H   H373      1.0  0.36870  0.41286  0.26780  1.0000
  H   H374      1.0  0.44340  0.46561  0.12569  1.0000
  H   H375      1.0  0.67215  0.42706  0.37852  1.0000
  H   H376      1.0  0.63936  0.43652  0.30162  1.0000
  H   H377      1.0  0.42172  0.44430  0.98565  1.0000
  H   H378      1.0  0.58970  0.32735  0.98973  1.0000
  C   C228      1.0  0.37751  0.03124  0.32267  1.0000
  N   N10       1.0  0.35081  0.20910  0.29629  1.0000
  H   H379      1.0  0.56162  0.33359  0.02420  1.0000
  C   C229      1.0  0.66073  0.44214  0.35814  1.0000
  H   H380      1.0  0.37389  0.24172  0.26166  1.0000
  C   C230      1.0  0.42671  0.34534  0.05397  1.0000
  N   N11       1.0  0.59940  0.28239  0.11507  1.0000
  C   C231      1.0  0.58768  0.25204  0.10308  1.0000
  C   C232      1.0  0.58677  0.30601  0.08883  1.0000
  C   C233      1.0  0.63090  0.28153  0.11104  1.0000
  C   C234      1.0  0.59246  0.28999  0.15741  1.0000
  C   C235      1.0  0.56106  0.28917  0.16869  1.0000
  C   C236      1.0  0.59491  0.22539  0.13047  1.0000
  H   H381      1.0  0.67359  0.17059  0.34254  1.0000
  C   C237      1.0  0.59398  0.30282  0.04430  1.0000
  C   C238      1.0  0.58458  0.33045  0.02145  1.0000
  C   C239      1.0  0.55683  0.29748  0.21211  1.0000
  H   H382      1.0  0.40758  0.06679  0.33880  1.0000
  H   H383      1.0  0.59396  0.19350  0.23682  1.0000
  H   H384      1.0  0.59522  0.24566  0.07307  1.0000
  H   H385      1.0  0.56444  0.25309  0.10039  1.0000
  H   H386      1.0  0.56352  0.30540  0.09045  1.0000
  H   H387      1.0  0.59246  0.32909  0.09940  1.0000
  H   H388      1.0  0.63974  0.19640  0.20618  1.0000
  H   H389      1.0  0.64015  0.26700  0.13410  1.0000
  H   H390      1.0  0.60392  0.27490  0.17773  1.0000
  H   H391      1.0  0.59983  0.31306  0.16497  1.0000
  H   H392      1.0  0.55206  0.26646  0.16376  1.0000
  H   H393      1.0  0.54904  0.30564  0.15129  1.0000
  H   H394      1.0  0.61770  0.22387  0.13607  1.0000
  H   H395      1.0  0.58397  0.22793  0.15913  1.0000
  C   C240      1.0  0.60727  0.21341  0.24387  1.0000
  C   C241      1.0  0.51596  0.03230  0.97303  1.0000
  H   H396      1.0  0.61674  0.30019  0.03910  1.0000
  H   H397      1.0  0.58309  0.28290  0.03142  1.0000
  H   H398      1.0  0.59546  0.35099  0.03254  1.0000
  H   H399      1.0  0.44578  0.47562  0.19715  1.0000
  C   C242      1.0  0.44237  0.47972  0.04663  1.0000
  H   H400      1.0  0.53418  0.29655  0.21942  1.0000
  H   H401      1.0  0.56812  0.28146  0.23130  1.0000
  H   H402      1.0  0.56444  0.32078  0.21814  1.0000
  C   C243      1.0  0.37818  0.19234  0.29985  1.0000
  H   H403      1.0  0.44761  0.42223  0.01128  1.0000
  H   H404      1.0  0.44868  0.04563  0.30565  1.0000
  H   H405      1.0  0.63725  0.27066  0.08268  1.0000
  H   H406      1.0  0.67774  0.19900  0.38056  1.0000
  H   H407      1.0  0.43542  0.18233  0.30709  1.0000
  N   N12       1.0  0.40605  0.31851  0.16015  1.0000
  C   C244      1.0  0.43374  0.32558  0.17955  1.0000
  C   C245      1.0  0.40473  0.33317  0.12014  1.0000
  C   C246      1.0  0.38319  0.33202  0.18579  1.0000
  C   C247      1.0  0.40075  0.28499  0.15704  1.0000
  C   C248      1.0  0.42296  0.26590  0.13479  1.0000
  C   C249      1.0  0.43758  0.31411  0.22212  1.0000
  C   C250      1.0  0.43232  0.33470  0.09585  1.0000
  C   C251      1.0  0.41778  0.23217  0.13999  1.0000
  C   C252      1.0  0.46720  0.32070  0.23690  1.0000
  H   H408      1.0  0.43693  0.35040  0.18040  1.0000
  H   H409      1.0  0.45160  0.31677  0.16202  1.0000
  H   H410      1.0  0.38835  0.32214  0.10160  1.0000
  H   H411      1.0  0.39824  0.35722  0.12347  1.0000
  H   H412      1.0  0.38897  0.35529  0.19547  1.0000
  H   H413      1.0  0.43525  0.49154  0.01981  1.0000
  H   H414      1.0  0.39793  0.27526  0.18684  1.0000
  H   H415      1.0  0.38061  0.28044  0.14176  1.0000
  H   H416      1.0  0.44436  0.27052  0.14562  1.0000
  H   H417      1.0  0.42187  0.27035  0.10274  1.0000
  H   H418      1.0  0.42281  0.32569  0.24255  1.0000
  H   H419      1.0  0.43425  0.28942  0.22362  1.0000
  H   H420      1.0  0.44691  0.35113  0.10983  1.0000
  H   H421      1.0  0.41345  0.32874  0.03784  1.0000
  H   H422      1.0  0.41948  0.22597  0.17151  1.0000
  H   H423      1.0  0.39676  0.22572  0.12871  1.0000
  H   H424      1.0  0.48294  0.30907  0.21798  1.0000
  H   H425      1.0  0.47141  0.34535  0.23678  1.0000
  H   H426      1.0  0.46953  0.31257  0.26753  1.0000
  H   H427      1.0  0.38080  0.31901  0.21340  1.0000
  H   H428      1.0  0.60069  0.23238  0.22506  1.0000
  H   H429      1.0  0.45171  0.05750  0.06786  1.0000
  H   H430      1.0  0.48261  0.46991  0.18675  1.0000
  H   H431      1.0  0.41101  0.41262  0.01466  1.0000
  C   C253      1.0  0.42356  0.18157  0.33528  1.0000
  H   H432      1.0  0.41615  0.36761  0.05459  1.0000
  H   H433      1.0  0.40561  0.22532  0.32884  1.0000
  H   H434      1.0  0.45138  0.02727  0.00304  1.0000
  C   C254      1.0  0.64610  0.31245  0.11449  1.0000
  C   C255      1.0  0.66675  0.08788  0.20942  1.0000
  H   H435      1.0  0.36505  0.17658  0.22355  1.0000
  C   C256      1.0  0.43538  0.02341  0.02643  1.0000
  C   C257      1.0  0.43282  0.05359  0.04960  1.0000
  H   H436      1.0  0.63968  0.32783  0.09062  1.0000
  H   H437      1.0  0.56173  0.45935  0.97347  1.0000
  H   H438      1.0  0.39067  0.19451  0.27234  1.0000
  H   H439      1.0  0.58951  0.17680  0.13342  1.0000
  H   H440      1.0  0.40528  0.13100  0.25762  1.0000
  H   H441      1.0  0.56297  0.19566  0.10538  1.0000
  C   C258      1.0  0.42284  0.45205  0.04936  1.0000
  H   H442      1.0  0.44819  0.08279  0.00297  1.0000
  H   H443      1.0  0.40064  0.45944  0.05024  1.0000
  H   H444      1.0  0.63568  0.40524  0.33464  1.0000
  C   C259      1.0  0.67032  0.42412  0.22286  1.0000
  H   H445      1.0  0.42364  0.01383  0.10350  1.0000
  N   N13       1.0  0.44308  0.50094  0.08175  1.0000
  H   H446      1.0  0.59757  0.19036  0.08485  1.0000
  H   H447      1.0  0.67191  0.46697  0.42371  1.0000
  C   C260      1.0  0.45635  0.48490  0.11599  1.0000
  H   H448      1.0  0.41412  0.05356  0.06908  1.0000
  H   H449      1.0  0.46389  0.47140  0.04015  1.0000
  H   H450      1.0  0.41511  0.01973  0.01081  1.0000
  H   H451      1.0  0.39579  0.47035  0.11372  1.0000
  H   H452      1.0  0.64216  0.45110  0.37382  1.0000
  H   H453      1.0  0.65325  0.24720  0.21479  1.0000
  H   H454      1.0  0.67906  0.17101  0.20752  1.0000
  H   H455      1.0  0.64894  0.24773  0.26629  1.0000
  H   H456      1.0  0.37431  0.16770  0.30256  1.0000
  C   C261      1.0  0.39788  0.20212  0.33372  1.0000
  H   H457      1.0  0.35101  0.05953  0.21855  1.0000
  H   H458      1.0  0.42964  0.01209  0.29172  1.0000
  H   H459      1.0  0.40479  0.49699  0.15122  1.0000
  C   C262      1.0  0.39624  0.49466  0.12096  1.0000
  H   H460      1.0  0.36962  0.31366  0.31832  1.0000
  H   H461      1.0  0.37697  0.45202  0.43016  1.0000
  H   H462      1.0  0.41070  0.07660  0.00239  1.0000
  H   H463      1.0  0.67102  0.47830  0.31765  1.0000
  H   H464      1.0  0.47135  0.50225  0.21506  1.0000
  H   H465      1.0  0.35207  0.30344  0.27338  1.0000
  H   H466      1.0  0.41591  0.03032  0.35889  1.0000
  H   H467      1.0  0.53976  0.01555  0.02169  1.0000
  H   H468      1.0  0.35399  0.49260  0.14431  1.0000
  C   C263      1.0  0.67784  0.30863  0.11161  1.0000
  H   H469      1.0  0.63897  0.50093  0.41729  1.0000
  C   C264      1.0  0.53147  0.01041  0.99278  1.0000
  H   H470      1.0  0.34638  0.22189  0.35802  1.0000
  C   C265      1.0  0.36791  0.29594  0.29504  1.0000
  C   C266      1.0  0.36598  0.50577  0.12227  1.0000
  C   C267      1.0  0.52446  0.02740  0.80236  1.0000
  C   C268      1.0  0.59558  0.01936  0.89378  1.0000
  C   C269      1.0  0.48600  0.48800  0.93551  1.0000
  H   H471      1.0  0.49401  0.04195  0.91918  1.0000
  H   H472      1.0  0.55447  0.48781  0.91175  1.0000
  H   H473      1.0  0.57272  0.07753  0.95644  1.0000
  H   H474      1.0  0.53626  0.50352  0.76598  1.0000
  C   C270      1.0  0.55430  0.03456  0.81557  1.0000
  C   C271      1.0  0.58587  0.05779  0.94805  1.0000
  H   H475      1.0  0.60819  0.06374  0.95296  1.0000
  H   H476      1.0  0.66430  0.02397  0.53989  1.0000
  H   H477      1.0  0.53408  0.46518  0.78356  1.0000
  H   H478      1.0  0.66752  0.49587  0.82423  1.0000
  H   H479      1.0  0.65001  0.06664  0.77930  1.0000
  H   H480      1.0  0.47198  0.47549  0.91638  1.0000
  H   H481      1.0  0.62137  0.47789  0.85249  1.0000
  H   H482      1.0  0.67816  0.47603  0.49579  1.0000
  H   H483      1.0  0.50480  0.49045  0.78979  1.0000
  H   H484      1.0  0.61752  0.03676  0.51385  1.0000
  H   H485      1.0  0.38023  0.47865  0.49551  1.0000
  H   H486      1.0  0.61210  0.45644  0.91720  1.0000
  H   H487      1.0  0.55317  0.05329  0.83720  1.0000
  C   C272      1.0  0.58083  0.04939  0.90480  1.0000
  C   C273      1.0  0.52802  0.48894  0.78975  1.0000
  H   H488      1.0  0.57916  0.47783  0.81662  1.0000
  H   H489      1.0  0.55788  0.04681  0.90093  1.0000
  C   C274      1.0  0.61455  0.03524  0.82970  1.0000
  H   H490      1.0  0.51414  0.04827  0.79198  1.0000
  H   H491      1.0  0.56868  0.45935  0.88052  1.0000
  C   C275      1.0  0.50603  0.02530  0.93490  1.0000
  C   C276      1.0  0.57175  0.49944  0.83016  1.0000
  H   H492      1.0  0.61447  0.07159  0.76174  1.0000
  C   C277      1.0  0.57434  0.48019  0.89743  1.0000
  H   H493      1.0  0.60278  0.48797  0.94825  1.0000
  H   H494      1.0  0.56561  0.04292  0.78930  1.0000
  C   C278      1.0  0.59425  0.46908  0.93040  1.0000
  H   H495      1.0  0.38621  0.48595  0.58006  1.0000
  C   C279      1.0  0.53923  0.49927  0.82983  1.0000
  H   H496      1.0  0.60324  0.05703  0.82951  1.0000
  H   H497      1.0  0.51194  0.01831  0.82712  1.0000
  H   H498      1.0  0.53018  0.48420  0.85236  1.0000
  H   H499      1.0  0.58823  0.06861  0.88713  1.0000
  H   H500      1.0  0.60512  0.02626  0.56231  1.0000
  H   H501      1.0  0.63427  0.04007  0.84616  1.0000
  H   H502      1.0  0.41051  0.49613  0.54197  1.0000
  H   H503      1.0  0.63889  0.04882  0.73389  1.0000
  C   C280      1.0  0.63215  0.05544  0.76412  1.0000
  H   H504      1.0  0.34937  0.46787  0.54545  1.0000
  H   H505      1.0  0.57085  0.42775  0.94189  1.0000
  C   C281      1.0  0.36741  0.49813  0.48578  1.0000
  C   C282      1.0  0.62302  0.02742  0.78650  1.0000
  C   C283      1.0  0.57922  0.44762  0.95826  1.0000
  H   H506      1.0  0.61685  0.01957  0.90730  1.0000
  H   H507      1.0  0.62791  0.50270  0.89253  1.0000
  N   N14       1.0  0.58533  0.50422  0.86993  1.0000
  C   C284      1.0  0.61658  0.50093  0.86414  1.0000
  C   C285      1.0  0.60932  0.01794  0.53185  1.0000
  H   H508      1.0  0.52470  0.01083  0.77757  1.0000
  H   H509      1.0  0.60555  0.01654  0.77013  1.0000
  H   H510      1.0  0.58923  0.01017  0.51875  1.0000
  H   H511      1.0  0.58021  0.03883  0.96756  1.0000
  H   H512      1.0  0.43026  0.50568  0.60789  1.0000
  C   C286      1.0  0.39638  0.50521  0.56527  1.0000
  N   N15       1.0  0.59785  0.01129  0.85049  1.0000
  C   C287      1.0  0.56922  0.00636  0.83248  1.0000
  H   H513      1.0  0.64097  0.01145  0.78628  1.0000
  H   H514      1.0  0.46616  0.58527  0.00266  1.0000
  H   H515      1.0  0.54870  0.96535  0.99064  1.0000
  C   C288      1.0  0.40154  0.96595  0.14169  1.0000
  C   C289      1.0  0.52189  0.51991  0.98530  1.0000
  C   C290      1.0  0.63926  0.51191  0.38815  1.0000
  H   H516      1.0  0.47756  0.95279  0.08720  1.0000
  H   H517      1.0  0.36515  0.52996  0.13102  1.0000
  C   C291      1.0  0.45449  0.54456  0.03347  1.0000
  H   H518      1.0  0.38092  0.96389  0.12680  1.0000
  H   H519      1.0  0.47698  0.98030  0.98807  1.0000
  H   H520      1.0  0.44619  0.94780  0.03830  1.0000
  H   H521      1.0  0.42490  0.94485  0.09508  1.0000
  H   H522      1.0  0.43182  0.54995  0.03249  1.0000
  H   H523      1.0  0.48314  0.51723  0.14749  1.0000
  H   H524      1.0  0.67434  0.96163  0.46764  1.0000
  C   C292      1.0  0.46206  0.52701  0.07133  1.0000
  H   H525      1.0  0.52752  0.95530  0.10156  1.0000
  C   C293      1.0  0.43980  0.96878  0.02346  1.0000
  H   H526      1.0  0.46007  0.53110  0.00679  1.0000
  H   H527      1.0  0.41542  0.53623  0.10387  1.0000
  H   H528      1.0  0.40429  0.94633  0.16132  1.0000
  H   H529      1.0  0.66703  0.52632  0.34293  1.0000
  H   H530      1.0  0.48409  0.51911  0.06786  1.0000
  H   H531      1.0  0.41730  0.96520  0.01602  1.0000
  H   H532      1.0  0.49696  0.96130  0.04377  1.0000
  H   H533      1.0  0.53562  0.53260  0.00466  1.0000
  H   H534      1.0  0.46502  0.58957  0.05557  1.0000
  H   H535      1.0  0.62194  0.55315  0.36359  1.0000
  H   H536      1.0  0.46254  0.54390  0.09582  1.0000
  H   H537      1.0  0.67830  0.53722  0.39042  1.0000
  C   C294      1.0  0.35636  0.97090  0.44278  1.0000
  C   C295      1.0  0.51570  0.97661  0.09766  1.0000
  C   C296      1.0  0.47090  0.57407  0.03099  1.0000
  C   C297      1.0  0.48974  0.97062  0.07253  1.0000
  H   H538      1.0  0.49378  0.56963  0.03210  1.0000
  H   H539      1.0  0.52975  0.99300  0.08312  1.0000
  H   H540      1.0  0.36671  0.98630  0.46430  1.0000
  H   H541      1.0  0.35610  0.55260  0.45533  1.0000
  C   C298      1.0  0.53674  0.98201  0.97485  1.0000
  H   H542      1.0  0.40185  0.51539  0.06360  1.0000
  C   C299      1.0  0.41416  0.51297  0.09124  1.0000
  C   C300      1.0  0.45590  0.97051  0.98378  1.0000
  C   C301      1.0  0.66941  0.51784  0.37342  1.0000
  H   H543      1.0  0.44656  0.52257  0.15737  1.0000
  H   H544      1.0  0.63277  0.55644  0.41463  1.0000
  H   H545      1.0  0.60112  0.53648  0.40197  1.0000
  H   H546      1.0  0.47268  0.92481  0.98239  1.0000
  C   C302      1.0  0.62286  0.54137  0.39227  1.0000
  H   H547      1.0  0.50967  0.98551  0.12722  1.0000
  H   H548      1.0  0.37900  0.98770  0.36944  1.0000
  C   C303      1.0  0.42528  0.96661  0.11143  1.0000
  H   H549      1.0  0.37181  0.95415  0.43153  1.0000
  C   C304      1.0  0.47237  0.99985  0.06617  1.0000
  H   H550      1.0  0.44508  0.96867  0.12832  1.0000
  C   C305      1.0  0.36690  0.00563  0.38520  1.0000
  H   H551      1.0  0.40180  0.98680  0.16017  1.0000
  H   H552      1.0  0.40036  0.99373  0.07173  1.0000
  C   C306      1.0  0.42211  0.99377  0.08365  1.0000
  N   N16       1.0  0.44295  0.99599  0.05027  1.0000
  Fe  Fe32      1.0  0.48048  0.60714  0.76706  1.0000
  S   S65       1.0  0.46798  0.61437  0.83037  1.0000
  S   S66       1.0  0.44901  0.62002  0.71911  1.0000
  Fe  Fe33      1.0  0.50765  0.64172  0.83459  1.0000
  S   S67       1.0  0.50886  0.68691  0.86708  1.0000
  Fe  Fe34      1.0  0.49474  0.57375  0.84399  1.0000
  S   S68       1.0  0.48026  0.53350  0.88123  1.0000
  S   S69       1.0  0.51929  0.63649  0.77099  1.0000
  S   S70       1.0  0.50468  0.56461  0.77972  1.0000
  Fe  Fe35      1.0  0.48923  0.91197  0.78044  1.0000
  S   S71       1.0  0.49433  0.88369  0.83462  1.0000
  S   S72       1.0  0.44476  0.92494  0.76232  1.0000
  Fe  Fe36      1.0  0.52666  0.91829  0.85383  1.0000
  S   S73       1.0  0.53317  0.93820  0.91633  1.0000
  Fe  Fe37      1.0  0.52898  0.86074  0.80025  1.0000
  S   S74       1.0  0.53609  0.81130  0.78297  1.0000
  S   S75       1.0  0.51953  0.94768  0.80180  1.0000
  S   S76       1.0  0.52240  0.88792  0.74518  1.0000
  C   C307      1.0  0.42943  0.77967  0.59701  1.0000
  C   C308      1.0  0.52668  0.97494  0.93682  1.0000
  N   N17       1.0  0.34986  0.76702  0.62036  1.0000
  C   C309      1.0  0.51623  0.72142  0.84333  1.0000
  C   C310      1.0  0.51572  0.74848  0.86535  1.0000
  C   C311      1.0  0.52162  0.77631  0.84746  1.0000
  C   C312      1.0  0.52823  0.77724  0.80738  1.0000
  H   H553      1.0  0.51087  0.74789  0.89649  1.0000
  H   H554      1.0  0.52139  0.79695  0.86478  1.0000
  H   H555      1.0  0.44440  0.98515  0.96295  1.0000
  C   C313      1.0  0.38832  0.55669  0.69813  1.0000
  C   C314      1.0  0.41274  0.57098  0.71241  1.0000
  C   C315      1.0  0.41853  0.60082  0.70234  1.0000
  C   C316      1.0  0.39961  0.61611  0.67789  1.0000
  C   C317      1.0  0.37483  0.60206  0.66443  1.0000
  H   H556      1.0  0.38422  0.53348  0.70573  1.0000
  H   H557      1.0  0.42732  0.55880  0.73065  1.0000
  H   H558      1.0  0.40412  0.63905  0.66957  1.0000
  H   H559      1.0  0.36303  0.73057  0.65843  1.0000
  C   C318      1.0  0.38311  0.88395  0.67174  1.0000
  C   C319      1.0  0.41046  0.87236  0.67486  1.0000
  C   C320      1.0  0.42973  0.88474  0.70212  1.0000
  C   C321      1.0  0.42175  0.90877  0.72675  1.0000
  C   C322      1.0  0.39442  0.92034  0.72351  1.0000
  C   C323      1.0  0.37520  0.90806  0.69620  1.0000
  H   H560      1.0  0.65905  0.94277  0.52243  1.0000
  H   H561      1.0  0.45079  0.87589  0.70397  1.0000
  H   H562      1.0  0.38806  0.93897  0.74235  1.0000
  H   H563      1.0  0.34622  0.55424  0.81648  1.0000
  Fe  Fe38      1.0  0.54231  0.59472  0.78939  1.0000
  S   S77       1.0  0.53308  0.60184  0.85402  1.0000
  S   S78       1.0  0.58816  0.58093  0.78062  1.0000
  Fe  Fe39      1.0  0.55351  0.92047  0.77169  1.0000
  S   S79       1.0  0.56191  0.89212  0.82455  1.0000
  S   S80       1.0  0.58967  0.94600  0.74267  1.0000
  C   C324      1.0  0.61444  0.98231  0.84723  1.0000
  C   C325      1.0  0.37972  0.77809  0.62293  1.0000
  C   C326      1.0  0.52882  0.75018  0.78540  1.0000
  C   C327      1.0  0.52269  0.72245  0.80317  1.0000
  H   H564      1.0  0.53392  0.75071  0.75435  1.0000
  H   H565      1.0  0.52310  0.70189  0.78584  1.0000
  C   C328      1.0  0.65240  0.60372  0.68337  1.0000
  C   C329      1.0  0.62394  0.61118  0.67868  1.0000
  C   C330      1.0  0.60400  0.60452  0.70808  1.0000
  C   C331      1.0  0.61228  0.59004  0.74251  1.0000
  C   C332      1.0  0.64070  0.58248  0.74717  1.0000
  C   C333      1.0  0.66067  0.58926  0.71785  1.0000
  H   H566      1.0  0.61729  0.62220  0.65201  1.0000
  H   H567      1.0  0.58221  0.61026  0.70384  1.0000
  H   H568      1.0  0.64737  0.57138  0.77368  1.0000
  H   H569      1.0  0.58236  0.55251  0.86219  1.0000
  C   C334      1.0  0.66720  0.90140  0.68476  1.0000
  C   C335      1.0  0.64463  0.88369  0.69780  1.0000
  C   C336      1.0  0.62101  0.89696  0.71601  1.0000
  C   C337      1.0  0.61950  0.92824  0.72106  1.0000
  C   C338      1.0  0.64208  0.94603  0.70807  1.0000
  C   C339      1.0  0.66589  0.93271  0.69024  1.0000
  H   H570      1.0  0.61818  0.80088  0.69185  1.0000
  H   H571      1.0  0.60383  0.88299  0.72579  1.0000
  H   H572      1.0  0.64115  0.97024  0.71189  1.0000
  H   H573      1.0  0.67179  0.52246  0.86475  1.0000
  H   H574      1.0  0.62709  0.54740  0.84637  1.0000
  H   H575      1.0  0.63699  0.78814  0.62592  1.0000
  C   C340      1.0  0.40061  0.76503  0.59234  1.0000
  C   C341      1.0  0.63019  0.99185  0.53227  1.0000
  C   C342      1.0  0.65824  0.00158  0.55181  1.0000
  H   H576      1.0  0.43838  0.92866  0.95995  1.0000
  H   H577      1.0  0.62041  0.97327  0.54904  1.0000
  H   H578      1.0  0.59349  0.58481  0.96246  1.0000
  H   H579      1.0  0.66605  0.68239  0.70842  1.0000
  C   C343      1.0  0.67374  0.68376  0.73924  1.0000
  H   H580      1.0  0.42805  0.80444  0.59273  1.0000
  C   C344      1.0  0.51237  0.53315  0.95009  1.0000
  H   H581      1.0  0.65303  0.00596  0.58341  1.0000
  H   H582      1.0  0.61199  0.90760  0.87865  1.0000
  H   H583      1.0  0.35482  0.84739  0.78998  1.0000
  H   H584      1.0  0.67231  0.53534  0.81468  1.0000
  H   H585      1.0  0.67203  0.79652  0.58698  1.0000
  H   H586      1.0  0.64604  0.75069  0.64184  1.0000
  C   C345      1.0  0.34947  0.70905  0.60379  1.0000
  H   H587      1.0  0.36777  0.66681  0.71664  1.0000
  C   C346      1.0  0.62048  0.92685  0.86174  1.0000
  H   H588      1.0  0.46922  0.94198  0.93492  1.0000
  H   H589      1.0  0.40336  0.74053  0.59672  1.0000
  H   H590      1.0  0.42675  0.71583  0.69687  1.0000
  H   H591      1.0  0.36122  0.79680  0.69589  1.0000
  H   H592      1.0  0.42565  0.54083  0.58256  1.0000
  C   C347      1.0  0.34966  0.67306  0.73561  1.0000
  H   H593      1.0  0.62737  0.76381  0.70911  1.0000
  N   N18       1.0  0.62367  0.68774  0.76960  1.0000
  C   C348      1.0  0.60450  0.67031  0.79651  1.0000
  C   C349      1.0  0.61232  0.68765  0.72791  1.0000
  C   C350      1.0  0.65164  0.67173  0.76891  1.0000
  C   C351      1.0  0.62838  0.71954  0.78441  1.0000
  C   C352      1.0  0.60190  0.73905  0.79111  1.0000
  C   C353      1.0  0.61355  0.66852  0.84030  1.0000
  H   H594      1.0  0.35182  0.66026  0.60039  1.0000
  C   C354      1.0  0.58003  0.68681  0.72268  1.0000
  C   C355      1.0  0.57182  0.69112  0.67963  1.0000
  C   C356      1.0  0.60946  0.76947  0.80986  1.0000
  C   C357      1.0  0.59192  0.65130  0.86436  1.0000
  C   C358      1.0  0.40284  0.55520  0.82925  1.0000
  H   H595      1.0  0.60206  0.64679  0.78507  1.0000
  H   H596      1.0  0.58300  0.67980  0.79680  1.0000
  H   H597      1.0  0.62069  0.70720  0.71131  1.0000
  H   H598      1.0  0.61987  0.66742  0.71135  1.0000
  H   H599      1.0  0.64857  0.64726  0.76219  1.0000
  H   H600      1.0  0.35680  0.81416  0.56680  1.0000
  H   H601      1.0  0.64065  0.71947  0.81226  1.0000
  H   H602      1.0  0.64161  0.73220  0.76338  1.0000
  H   H603      1.0  0.58670  0.72800  0.81099  1.0000
  H   H604      1.0  0.59170  0.74384  0.76257  1.0000
  H   H605      1.0  0.63370  0.65639  0.84338  1.0000
  H   H606      1.0  0.61553  0.69134  0.85371  1.0000
  C   C359      1.0  0.58481  0.57853  0.93315  1.0000
  H   H607      1.0  0.64647  0.95281  0.59988  1.0000
  H   H608      1.0  0.57183  0.66449  0.73174  1.0000
  H   H609      1.0  0.56928  0.70432  0.74053  1.0000
  H   H610      1.0  0.57860  0.71363  0.66927  1.0000
  H   H611      1.0  0.58147  0.67331  0.66071  1.0000
  H   H612      1.0  0.54870  0.68951  0.67671  1.0000
  H   H613      1.0  0.62399  0.78219  0.79059  1.0000
  H   H614      1.0  0.59019  0.78316  0.81406  1.0000
  H   H615      1.0  0.61926  0.76632  0.83918  1.0000
  H   H616      1.0  0.59850  0.65064  0.89570  1.0000
  H   H617      1.0  0.57111  0.66247  0.86292  1.0000
  H   H618      1.0  0.59012  0.62781  0.85300  1.0000
  H   H619      1.0  0.59504  0.59270  0.91054  1.0000
  H   H620      1.0  0.44404  0.77018  0.57458  1.0000
  H   H621      1.0  0.63649  0.98612  0.85691  1.0000
  N   N19       1.0  0.43956  0.79370  0.76646  1.0000
  C   C360      1.0  0.44416  0.78863  0.80984  1.0000
  C   C361      1.0  0.42654  0.76567  0.74877  1.0000
  C   C362      1.0  0.46740  0.80057  0.74759  1.0000
  C   C363      1.0  0.42022  0.82002  0.75948  1.0000
  H   H622      1.0  0.40132  0.52987  0.62074  1.0000
  C   C364      1.0  0.45544  0.81608  0.83362  1.0000
  C   C365      1.0  0.46769  0.80170  0.70196  1.0000
  C   C366      1.0  0.44489  0.73672  0.74957  1.0000
  C   C367      1.0  0.43033  0.71048  0.72835  1.0000
  H   H623      1.0  0.41685  0.85388  0.65584  1.0000
  C   C368      1.0  0.45505  0.81001  0.87785  1.0000
  C   C369      1.0  0.49674  0.81006  0.68663  1.0000
  H   H624      1.0  0.45982  0.77040  0.81432  1.0000
  H   H625      1.0  0.42464  0.78038  0.82408  1.0000
  H   H626      1.0  0.40687  0.76003  0.76463  1.0000
  H   H627      1.0  0.42005  0.76968  0.71780  1.0000
  H   H628      1.0  0.48338  0.78392  0.75669  1.0000
  H   H629      1.0  0.47549  0.82274  0.75841  1.0000
  H   H630      1.0  0.43105  0.84182  0.76578  1.0000
  H   H631      1.0  0.41447  0.82112  0.72780  1.0000
  H   H632      1.0  0.67693  0.92981  0.60663  1.0000
  C   C370      1.0  0.57747  0.53526  0.88475  1.0000
  H   H633      1.0  0.47743  0.82060  0.82498  1.0000
  H   H634      1.0  0.44299  0.83676  0.82870  1.0000
  H   H635      1.0  0.45271  0.81869  0.69097  1.0000
  H   H636      1.0  0.46226  0.77944  0.68896  1.0000
  H   H637      1.0  0.46543  0.74011  0.73502  1.0000
  H   H638      1.0  0.44880  0.72960  0.78032  1.0000
  H   H639      1.0  0.44379  0.69007  0.72968  1.0000
  H   H640      1.0  0.63298  0.98376  0.50159  1.0000
  H   H641      1.0  0.37099  0.67674  0.64097  1.0000
  S   S81       1.0  0.67656  0.61384  0.64577  1.0000
  H   H642      1.0  0.38046  0.80315  0.62092  1.0000
  N   N20       1.0  0.35298  0.51270  0.52072  1.0000
  H   H643      1.0  0.43319  0.80742  0.88850  1.0000
  H   H644      1.0  0.46705  0.78928  0.88464  1.0000
  H   H645      1.0  0.46483  0.82927  0.89390  1.0000
  H   H646      1.0  0.49659  0.81038  0.65392  1.0000
  H   H647      1.0  0.50289  0.83279  0.69761  1.0000
  H   H648      1.0  0.51259  0.79342  0.69641  1.0000
  H   H649      1.0  0.36786  0.71153  0.58429  1.0000
  C   C371      1.0  0.67364  0.94734  0.54713  1.0000
  H   H650      1.0  0.37967  0.79971  0.77558  1.0000
  H   H651      1.0  0.66941  0.80983  0.67879  1.0000
  H   H652      1.0  0.36484  0.56131  0.77220  1.0000
  C   C372      1.0  0.45913  0.93950  0.96423  1.0000
  H   H653      1.0  0.64262  0.93044  0.87061  1.0000
  H   H654      1.0  0.38713  0.54390  0.53059  1.0000
  H   H655      1.0  0.39234  0.53577  0.84340  1.0000
  H   H656      1.0  0.50300  0.99175  0.88802  1.0000
  H   H657      1.0  0.38273  0.51388  0.47232  1.0000
  C   C373      1.0  0.36907  0.57223  0.67450  1.0000
  H   H658      1.0  0.55443  0.53693  0.88891  1.0000
  H   H659      1.0  0.62310  0.52129  0.80561  1.0000
  H   H660      1.0  0.34999  0.75487  0.55812  1.0000
  H   H661      1.0  0.62463  0.91208  0.55886  1.0000
  H   H662      1.0  0.38866  0.77311  0.65235  1.0000
  C   C374      1.0  0.38254  0.58161  0.82482  1.0000
  H   H663      1.0  0.35737  0.68488  0.76251  1.0000
  H   H664      1.0  0.35659  0.63258  0.85378  1.0000
  H   H665      1.0  0.36032  0.61415  0.64601  1.0000
  H   H666      1.0  0.67740  0.77274  0.69356  1.0000
  H   H667      1.0  0.39367  0.76927  0.56175  1.0000
  C   C375      1.0  0.64268  0.90718  0.57835  1.0000
  H   H668      1.0  0.63451  0.89885  0.60690  1.0000
  C   C376      1.0  0.66252  0.51899  0.83504  1.0000
  H   H669      1.0  0.41003  0.70523  0.74271  1.0000
  H   H670      1.0  0.60421  0.95909  0.90273  1.0000
  H   H671      1.0  0.35047  0.78988  0.50180  1.0000
  C   C377      1.0  0.51129  0.99689  0.91694  1.0000
  H   H672      1.0  0.57042  0.98976  0.80761  1.0000
  H   H673      1.0  0.36027  0.57608  0.49863  1.0000
  H   H674      1.0  0.57790  0.51751  0.80941  1.0000
  C   C378      1.0  0.35683  0.57233  0.79966  1.0000
  C   C379      1.0  0.67272  0.78641  0.66728  1.0000
  C   C380      1.0  0.60304  0.95506  0.87046  1.0000
  H   H675      1.0  0.58098  0.95042  0.86226  1.0000
  H   H676      1.0  0.41119  0.54796  0.80007  1.0000
  C   C381      1.0  0.63082  0.52387  0.83627  1.0000
  H   H677      1.0  0.55494  0.99576  0.85432  1.0000
  H   H678      1.0  0.36643  0.63379  0.78729  1.0000
  C   C382      1.0  0.41448  0.52149  0.59591  1.0000
  H   H679      1.0  0.39455  0.60024  0.81136  1.0000
  C   C383      1.0  0.35149  0.67830  0.62337  1.0000
  H   H680      1.0  0.36443  0.54019  0.57139  1.0000
  H   H681      1.0  0.65576  0.88921  0.56473  1.0000
  H   H682      1.0  0.37574  0.58823  0.85493  1.0000
  H   H683      1.0  0.53128  0.52237  0.83551  1.0000
  C   C384      1.0  0.37468  0.84767  0.77294  1.0000
  H   H684      1.0  0.58084  0.53217  0.94882  1.0000
  H   H685      1.0  0.66179  0.67292  0.79833  1.0000
  H   H686      1.0  0.61564  0.97451  0.81595  1.0000
  H   H687      1.0  0.38619  0.86871  0.78067  1.0000
  C   C385      1.0  0.39227  0.82001  0.78284  1.0000
  H   H688      1.0  0.60147  0.76797  0.67103  1.0000
  H   H689      1.0  0.61975  0.92097  0.82981  1.0000
  C   C386      1.0  0.64429  0.77468  0.65120  1.0000
  H   H690      1.0  0.36552  0.61128  0.74467  1.0000
  H   H691      1.0  0.36949  0.84786  0.74106  1.0000
  H   H692      1.0  0.35426  0.91719  0.69420  1.0000
  H   H693      1.0  0.51850  0.55587  0.94287  1.0000
  C   C387      1.0  0.34734  0.73492  0.63494  1.0000
  H   H694      1.0  0.61343  0.54208  0.92499  1.0000
  C   C388      1.0  0.59044  0.54520  0.92457  1.0000
  H   H695      1.0  0.58335  0.00197  0.90974  1.0000
  C   C389      1.0  0.62151  0.77696  0.68283  1.0000
  C   C390      1.0  0.49423  0.51733  0.92498  1.0000
  H   H696      1.0  0.39603  0.82067  0.81507  1.0000
  H   H697      1.0  0.43810  0.77516  0.62665  1.0000
  H   H698      1.0  0.64534  0.85952  0.69372  1.0000
  S   S82       1.0  0.35943  0.86671  0.63798  1.0000
  C   C391      1.0  0.35176  0.62147  0.76762  1.0000
  C   C392      1.0  0.66007  0.93559  0.58559  1.0000
  H   H699      1.0  0.42083  0.56218  0.84800  1.0000
  H   H700      1.0  0.56198  0.58324  0.93343  1.0000
  C   C393      1.0  0.37469  0.52705  0.54713  1.0000
  H   H701      1.0  0.66922  0.00213  0.46907  1.0000
  Fe  Fe40      1.0  0.77176  0.42482  0.35089  1.0000
  S   S83       1.0  0.77575  0.44488  0.29003  1.0000
  S   S84       1.0  0.77483  0.44299  0.41484  1.0000
  Fe  Fe41      1.0  0.75583  0.36203  0.31618  1.0000
  S   S85       1.0  0.75796  0.37796  0.25384  1.0000
  S   S86       1.0  0.73801  0.31681  0.33540  1.0000
  Fe  Fe42      1.0  0.79796  0.40159  0.27245  1.0000
  S   S87       1.0  0.83394  0.39050  0.22968  1.0000
  Fe  Fe43      1.0  0.73580  0.41947  0.27555  1.0000
  H   H702      1.0  0.84085  0.27347  0.43067  1.0000
  S   S88       1.0  0.79666  0.38321  0.33409  1.0000
  S   S89       1.0  0.73083  0.40206  0.33688  1.0000
  Fe  Fe44      1.0  0.77388  0.07734  0.33429  1.0000
  S   S90       1.0  0.75635  0.06974  0.27295  1.0000
  S   S91       1.0  0.78182  0.03329  0.36843  1.0000
  Fe  Fe45      1.0  0.78129  0.14561  0.31848  1.0000
  S   S92       1.0  0.76433  0.14170  0.25730  1.0000
  S   S93       1.0  0.80102  0.19075  0.33482  1.0000
  Fe  Fe46      1.0  0.73110  0.11192  0.28347  1.0000
  C   C394      1.0  0.99810  0.26059  0.11142  1.0000
  Fe  Fe47      1.0  0.79125  0.10026  0.25225  1.0000
  S   S94       1.0  0.81789  0.09325  0.19682  1.0000
  S   S95       1.0  0.74669  0.11824  0.34607  1.0000
  S   S96       1.0  0.81002  0.10552  0.31217  1.0000
  C   C395      1.0  0.00394  0.20255  0.07672  1.0000
  C   C396      1.0  0.70921  0.17183  0.16080  1.0000
  H   H703      1.0  0.92765  0.11951  0.09615  1.0000
  H   H704      1.0  0.93548  0.18812  0.10322  1.0000
  Fe  Fe48      1.0  0.98378  0.07893  0.14404  1.0000
  S   S97       1.0  0.95024  0.07237  0.19182  1.0000
  S   S98       1.0  0.98197  0.08251  0.07771  1.0000
  H   H705      1.0  0.94645  0.14348  0.06275  1.0000
  H   H706      1.0  0.85403  0.20810  0.18399  1.0000
  C   C397      1.0  0.75579  0.34351  0.44984  1.0000
  H   H707      1.0  0.78821  0.36778  0.41820  1.0000
  Fe  Fe49      1.0  0.98967  0.40595  0.15329  1.0000
  S   S99       1.0  0.95980  0.43223  0.19365  1.0000
  S   S100      1.0  0.97216  0.38000  0.10226  1.0000
  H   H708      1.0  0.90285  0.29364  0.19823  1.0000
  C   C398      1.0  0.77889  0.01935  0.41760  1.0000
  H   H709      1.0  0.69237  0.26856  0.28255  1.0000
  H   H710      1.0  0.88645  0.24252  0.21332  1.0000
  H   H711      1.0  0.85555  0.02046  0.37662  1.0000
  H   H712      1.0  0.84900  0.31270  0.31002  1.0000
  C   C399      1.0  0.85496  0.08952  0.19550  1.0000
  C   C400      1.0  0.87125  0.09209  0.22956  1.0000
  C   C401      1.0  0.90041  0.08733  0.22768  1.0000
  C   C402      1.0  0.91380  0.08057  0.19167  1.0000
  C   C403      1.0  0.89764  0.07891  0.15738  1.0000
  C   C404      1.0  0.86838  0.08330  0.15935  1.0000
  H   H713      1.0  0.86133  0.09758  0.25736  1.0000
  H   H714      1.0  0.91273  0.08884  0.25435  1.0000
  H   H715      1.0  0.90754  0.07335  0.12954  1.0000
  H   H716      1.0  0.85599  0.08132  0.13278  1.0000
  C   C405      1.0  0.92514  0.41989  0.20461  1.0000
  C   C406      1.0  0.90830  0.43702  0.23061  1.0000
  C   C407      1.0  0.88053  0.42821  0.23932  1.0000
  C   C408      1.0  0.86917  0.40227  0.22170  1.0000
  C   C409      1.0  0.88601  0.38525  0.19561  1.0000
  C   C410      1.0  0.91383  0.39382  0.18734  1.0000
  H   H717      1.0  0.91680  0.45723  0.24415  1.0000
  H   H718      1.0  0.86785  0.44163  0.25928  1.0000
  H   H719      1.0  0.87748  0.36516  0.18179  1.0000
  H   H720      1.0  0.92650  0.38024  0.16757  1.0000
  C   C411      1.0  0.75532  0.28164  0.33235  1.0000
  C   C412      1.0  0.77949  0.27715  0.30967  1.0000
  C   C413      1.0  0.79294  0.24885  0.30939  1.0000
  C   C414      1.0  0.78180  0.22463  0.33068  1.0000
  C   C415      1.0  0.75740  0.22909  0.35275  1.0000
  C   C416      1.0  0.74433  0.25747  0.35370  1.0000
  H   H721      1.0  0.78807  0.29557  0.29287  1.0000
  H   H722      1.0  0.81216  0.24578  0.29291  1.0000
  H   H723      1.0  0.74943  0.21102  0.37066  1.0000
  H   H724      1.0  0.72597  0.26092  0.37192  1.0000
  H   H725      1.0  0.93123  0.14414  0.23733  1.0000
  H   H726      1.0  0.88694  0.27675  0.15520  1.0000
  H   H727      1.0  0.87417  0.40902  0.07628  1.0000
  C   C417      1.0  0.77537  0.47860  0.44039  1.0000
  N   N21       1.0  0.68925  0.49141  0.37401  1.0000
  H   H728      1.0  0.87113  0.06925  0.40503  1.0000
  H   H729      1.0  0.88609  0.35839  0.05291  1.0000
  H   H730      1.0  0.83832  0.15575  0.23863  1.0000
  H   H731      1.0  0.81470  0.18182  0.21588  1.0000
  H   H732      1.0  0.69017  0.23710  0.33259  1.0000
  H   H733      1.0  0.90635  0.36762  0.09611  1.0000
  H   H734      1.0  0.83141  0.45204  0.12573  1.0000
  C   C418      1.0  0.85261  0.03545  0.31498  1.0000
  H   H735      1.0  0.93247  0.46085  0.01835  1.0000
  H   H736      1.0  0.72626  0.35805  0.40505  1.0000
  H   H737      1.0  0.86190  0.05370  0.29705  1.0000
  H   H738      1.0  0.76816  0.06158  0.44541  1.0000
  H   H739      1.0  0.97089  0.45378  0.08210  1.0000
  H   H740      1.0  0.93696  0.42215  0.06173  1.0000
  H   H741      1.0  0.84148  0.48921  0.14357  1.0000
  H   H742      1.0  0.86592  0.45903  0.07083  1.0000
  H   H743      1.0  0.92111  0.42117  0.10880  1.0000
  C   C419      1.0  0.90647  0.01735  0.27430  1.0000
  H   H744      1.0  0.83358  0.35485  0.40253  1.0000
  H   H745      1.0  0.71484  0.36445  0.45502  1.0000
  H   H746      1.0  0.73385  0.48442  0.36682  1.0000
  S   S101      1.0  0.99402  0.42393  0.00662  1.0000
  H   H747      1.0  0.70464  0.32111  0.26110  1.0000
  H   H748      1.0  0.85083  0.32270  0.42059  1.0000
  H   H749      1.0  0.92241  0.36852  0.04765  1.0000
  H   H750      1.0  0.70900  0.14686  0.15768  1.0000
  C   C420      1.0  0.68058  0.46761  0.34398  1.0000
  H   H751      1.0  0.73788  0.30634  0.24382  1.0000
  H   H752      1.0  0.77486  0.33595  0.39333  1.0000
  H   H753      1.0  0.92402  0.24513  0.21610  1.0000
  H   H754      1.0  0.83712  0.37742  0.46165  1.0000
  C   C421      1.0  0.86545  0.03717  0.35693  1.0000
  C   C422      1.0  0.97510  0.15332  0.23722  1.0000
  H   H755      1.0  0.95378  0.16013  0.13106  1.0000
  H   H756      1.0  0.83911  0.19529  0.25247  1.0000
  Fe  Fe50      1.0  0.00590  0.40281  0.06639  1.0000
  C   C423      1.0  0.98238  0.49566  0.11020  1.0000
  H   H757      1.0  0.80800  0.32159  0.35224  1.0000
  H   H758      1.0  0.85307  0.16870  0.17055  1.0000
  H   H759      1.0  0.89097  0.41040  0.02883  1.0000
  H   H760      1.0  0.99606  0.03290  0.97456  1.0000
  C   C424      1.0  0.91278  0.46957  0.03208  1.0000
  C   C425      1.0  0.69396  0.20712  0.28066  1.0000
  H   H761      1.0  0.90909  0.14755  0.06793  1.0000
  N   N22       1.0  0.91110  0.18743  0.18110  1.0000
  C   C426      1.0  0.90914  0.16511  0.14733  1.0000
  C   C427      1.0  0.88794  0.18082  0.21010  1.0000
  C   C428      1.0  0.90864  0.21884  0.16483  1.0000
  C   C429      1.0  0.93879  0.18494  0.20214  1.0000
  C   C430      1.0  0.94685  0.15299  0.21626  1.0000
  C   C431      1.0  0.93354  0.16570  0.11705  1.0000
  C   C432      1.0  0.90591  0.24478  0.19571  1.0000
  C   C433      1.0  0.85759  0.18496  0.19482  1.0000
  C   C434      1.0  0.83626  0.17912  0.22754  1.0000
  C   C435      1.0  0.92876  0.14261  0.08401  1.0000
  C   C436      1.0  0.90504  0.27545  0.17564  1.0000
  H   H762      1.0  0.88963  0.16894  0.13024  1.0000
  H   H763      1.0  0.90718  0.14174  0.15852  1.0000
  H   H764      1.0  0.88915  0.15699  0.21977  1.0000
  H   H765      1.0  0.89052  0.19457  0.23752  1.0000
  H   H766      1.0  0.89062  0.22038  0.14417  1.0000
  H   H767      1.0  0.92741  0.22426  0.14669  1.0000
  H   H768      1.0  0.95614  0.19343  0.18331  1.0000
  H   H769      1.0  0.93897  0.19968  0.22886  1.0000
  C   C437      1.0  0.70006  0.18066  0.20252  1.0000
  H   H770      1.0  0.69929  0.45558  0.33224  1.0000
  C   C438      1.0  0.82779  0.31497  0.36656  1.0000
  C   C439      1.0  0.99638  0.23451  0.13445  1.0000
  H   H771      1.0  0.73082  0.17992  0.15492  1.0000
  H   H772      1.0  0.85639  0.02666  0.23686  1.0000
  C   C440      1.0  0.71574  0.31067  0.23559  1.0000
  H   H773      1.0  0.70765  0.45955  0.41410  1.0000
  H   H774      1.0  0.96452  0.48688  0.05358  1.0000
  H   H775      1.0  0.87900  0.49328  0.09029  1.0000
  C   C441      1.0  0.69168  0.47794  0.41458  1.0000
  C   C442      1.0  0.89440  0.40620  0.06059  1.0000
  N   N23       1.0  0.80664  0.32535  0.43604  1.0000
  C   C443      1.0  0.00331  0.25757  0.07102  1.0000
  H   H776      1.0  0.87225  0.31623  0.35164  1.0000
  C   C444      1.0  0.81334  0.01785  0.24840  1.0000
  C   C445      1.0  0.00110  0.45865  0.98167  1.0000
  H   H777      1.0  0.89009  0.47051  0.15463  1.0000
  H   H778      1.0  0.71473  0.16961  0.22313  1.0000
  C   C446      1.0  0.86084  0.06824  0.37573  1.0000
  C   C447      1.0  0.91718  0.42765  0.07768  1.0000
  H   H779      1.0  0.85248  0.34848  0.33498  1.0000
  S   S102      1.0  0.69933  0.44298  0.24499  1.0000
  C   C448      1.0  0.85191  0.32371  0.33931  1.0000
  H   H780      1.0  0.71704  0.20476  0.28487  1.0000
  H   H781      1.0  0.68660  0.18402  0.27433  1.0000
  H   H782      1.0  0.69462  0.18130  0.13872  1.0000
  H   H783      1.0  0.74129  0.38844  0.43417  1.0000
  H   H784      1.0  0.99876  0.18587  0.13550  1.0000
  H   H785      1.0  0.88833  0.03300  0.35610  1.0000
  N   N24       1.0  0.91118  0.46094  0.07490  1.0000
  H   H786      1.0  0.94857  0.13706  0.19106  1.0000
  H   H787      1.0  0.72364  0.22125  0.20782  1.0000
  H   H788      1.0  0.71552  0.32697  0.21100  1.0000
  C   C449      1.0  0.87639  0.45830  0.13340  1.0000
  H   H789      1.0  0.86985  0.08618  0.35699  1.0000
  H   H790      1.0  0.92474  0.27946  0.15895  1.0000
  C   C450      1.0  0.99971  0.20566  0.11734  1.0000
  H   H791      1.0  0.97423  0.16773  0.26417  1.0000
  H   H792      1.0  0.68415  0.37924  0.23603  1.0000
  C   C451      1.0  0.88241  0.46848  0.09054  1.0000
  C   C452      1.0  0.83065  0.33031  0.40773  1.0000
  C   C453      1.0  0.70129  0.28145  0.22281  1.0000
  H   H793      1.0  0.98290  0.48596  0.14025  1.0000
  H   H794      1.0  0.71226  0.27303  0.19602  1.0000
  H   H795      1.0  0.67949  0.28739  0.21487  1.0000
  H   H796      1.0  0.81086  0.04191  0.25695  1.0000
  H   H797      1.0  0.89571  0.45848  0.01504  1.0000
  S   S103      1.0  0.00724  0.16667  0.05359  1.0000
  H   H798      1.0  0.78174  0.02312  0.20316  1.0000
  C   C454      1.0  0.84606  0.46472  0.14518  1.0000
  H   H799      1.0  0.83810  0.07247  0.38009  1.0000
  H   H800      1.0  0.83018  0.04174  0.31821  1.0000
  H   H801      1.0  0.87990  0.43383  0.13699  1.0000
  C   C455      1.0  0.93253  0.47783  0.09935  1.0000
  H   H802      1.0  0.84249  0.45732  0.17597  1.0000
  C   C456      1.0  0.70093  0.21537  0.20911  1.0000
  S   S104      1.0  0.68446  0.12225  0.27421  1.0000
  H   H803      1.0  0.82795  0.29005  0.36872  1.0000
  H   H804      1.0  0.70786  0.18545  0.35350  1.0000
  H   H805      1.0  0.98072  0.12999  0.24581  1.0000
  N   N25       1.0  0.68799  0.22784  0.24671  1.0000
  H   H806      1.0  0.68772  0.07870  0.20824  1.0000
  H   H807      1.0  0.74634  0.32068  0.45041  1.0000
  C   C457      1.0  0.78200  0.34387  0.42269  1.0000
  H   H808      1.0  0.93343  0.46848  0.12964  1.0000
  H   H809      1.0  0.71757  0.49589  0.29805  1.0000
  C   C458      1.0  0.90295  0.37321  0.06464  1.0000
  C   C459      1.0  0.70200  0.25767  0.25610  1.0000
  C   C460      1.0  0.96298  0.47723  0.08347  1.0000
  H   H810      1.0  0.90670  0.03906  0.29077  1.0000
  H   H811      1.0  0.69121  0.22607  0.18297  1.0000
  H   H812      1.0  0.92619  0.50178  0.10371  1.0000
  H   H813      1.0  0.99160  0.16182  0.21723  1.0000
  H   H814      1.0  0.00392  0.49533  0.09787  1.0000
  H   H815      1.0  0.72444  0.25401  0.26393  1.0000
  C   C461      1.0  0.69935  0.50011  0.44861  1.0000
  H   H816      1.0  0.99255  0.23670  0.16578  1.0000
  C   C462      1.0  0.73324  0.36497  0.43500  1.0000
  H   H817      1.0  0.68564  0.29402  0.13553  1.0000
  Fe  Fe51      1.0  0.00371  0.34425  0.11736  1.0000
  H   H818      1.0  0.90152  0.02188  0.24301  1.0000
  C   C463      1.0  0.91041  0.50375  0.02342  1.0000
  C   C464      1.0  0.79803  0.29265  0.43673  1.0000
  C   C465      1.0  0.68074  0.21604  0.32090  1.0000
  C   C466      1.0  0.77201  0.03785  0.44990  1.0000
  H   H819      1.0  0.81712  0.02679  0.18546  1.0000
  H   H820      1.0  0.78872  0.28573  0.40790  1.0000
  C   C467      1.0  0.68533  0.19128  0.35119  1.0000
  H   H821      1.0  0.95084  0.02113  0.26181  1.0000
  S   S105      1.0  0.99230  0.29606  0.13455  1.0000
  H   H822      1.0  0.00460  0.27745  0.05297  1.0000
  C   C468      1.0  0.80335  0.01413  0.20586  1.0000
  C   C469      1.0  0.00595  0.22864  0.05373  1.0000
  C   C470      1.0  0.71804  0.50266  0.36277  1.0000
  H   H823      1.0  0.68377  0.29863  0.08261  1.0000
  H   H824      1.0  0.80789  0.23357  0.40867  1.0000
  H   H825      1.0  0.68811  0.33103  0.11462  1.0000
  Fe  Fe52      1.0  0.01114  0.12234  0.08628  1.0000
  S   S106      1.0  0.01033  0.12036  0.15189  1.0000
  C   C471      1.0  0.84454  0.00878  0.25241  1.0000
  H   H826      1.0  0.00942  0.22645  0.02231  1.0000
  H   H827      1.0  0.93834  0.50326  0.97242  1.0000
  H   H828      1.0  0.78120  0.50620  0.38941  1.0000
  C   C472      1.0  0.77826  0.50609  0.42097  1.0000
  C   C473      1.0  0.82140  0.27001  0.44786  1.0000
  C   C474      1.0  0.81184  0.23754  0.44056  1.0000
  H   H829      1.0  0.78102  0.28914  0.45858  1.0000
  H   H830      1.0  0.82844  0.22167  0.45001  1.0000
  H   H831      1.0  0.79241  0.23264  0.45735  1.0000
  H   H832      1.0  0.71610  0.00953  0.43937  1.0000
  H   H833      1.0  0.89944  0.01299  0.76266  1.0000
  C   C475      1.0  0.77035  0.02568  0.48820  1.0000
  H   H834      1.0  0.81653  0.36873  0.54680  1.0000
  H   H835      1.0  0.85227  0.36423  0.52955  1.0000
  H   H836      1.0  0.76527  0.04037  0.51284  1.0000
  H   H837      1.0  0.83549  0.40058  0.52793  1.0000
  C   C476      1.0  0.97286  0.03752  0.82411  1.0000
  H   H838      1.0  0.80043  0.32750  0.49933  1.0000
  H   H839      1.0  0.82661  0.27246  0.47962  1.0000
  H   H840      1.0  0.77054  0.45815  0.49732  1.0000
  C   C477      1.0  0.99637  0.48918  0.92173  1.0000
  H   H841      1.0  0.76098  0.35055  0.48040  1.0000
  C   C478      1.0  0.83206  0.37592  0.52438  1.0000
  C   C479      1.0  0.77253  0.47917  0.48176  1.0000
  C   C480      1.0  0.94910  0.47807  0.70890  1.0000
  C   C481      1.0  0.94760  0.01931  0.80974  1.0000
  H   H842      1.0  0.96037  0.45712  0.71686  1.0000
  C   C482      1.0  0.81589  0.33484  0.47680  1.0000
  H   H843      1.0  0.93086  0.03549  0.80196  1.0000
  C   C483      1.0  0.99475  0.50366  0.69054  1.0000
  H   H844      1.0  0.73806  0.04199  0.63300  1.0000
  H   H845      1.0  0.85501  0.01775  0.72454  1.0000
  H   H846      1.0  0.70661  0.49998  0.51169  1.0000
  H   H847      1.0  0.99277  0.47328  0.56316  1.0000
  H   H848      1.0  0.96686  0.05137  0.85027  1.0000
  H   H849      1.0  0.99017  0.02223  0.83281  1.0000
  C   C484      1.0  0.82128  0.36912  0.48286  1.0000
  H   H850      1.0  0.92786  0.47194  0.69819  1.0000
  H   H851      1.0  0.71409  0.46457  0.48736  1.0000
  C   C485      1.0  0.72996  0.01872  0.62878  1.0000
  H   H852      1.0  0.90174  0.49733  0.96068  1.0000
  H   H853      1.0  0.69665  0.03366  0.59148  1.0000
  H   H854      1.0  0.87554  0.02262  0.68001  1.0000
  C   C486      1.0  0.69950  0.48407  0.48821  1.0000
  H   H855      1.0  0.98046  0.05280  0.80072  1.0000
  H   H856      1.0  0.83568  0.32311  0.48465  1.0000
  H   H857      1.0  0.96361  0.01477  0.75086  1.0000
  C   C487      1.0  0.96488  0.49499  0.67674  1.0000
  H   H858      1.0  0.94664  0.49255  0.73564  1.0000
  C   C488      1.0  0.71361  0.01660  0.59017  1.0000
  H   H859      1.0  0.80178  0.38236  0.47895  1.0000
  H   H860      1.0  0.92019  0.01715  0.71999  1.0000
  C   C489      1.0  0.00683  0.01272  0.96470  1.0000
  H   H861      1.0  0.00552  0.48175  0.69442  1.0000
  H   H862      1.0  0.72836  0.02291  0.56644  1.0000
  H   H863      1.0  0.71637  0.01309  0.65426  1.0000
  H   H864      1.0  0.97983  0.44416  0.92877  1.0000
  H   H865      1.0  0.98878  0.49137  0.89189  1.0000
  C   C490      1.0  0.99554  0.49740  0.55565  1.0000
  H   H866      1.0  0.96613  0.47969  0.65068  1.0000
  H   H867      1.0  0.97938  0.50347  0.53361  1.0000
  H   H868      1.0  0.98660  0.01149  0.90783  1.0000
  C   C491      1.0  0.99131  0.46234  0.94283  1.0000
  H   H869      1.0  0.70865  0.00936  0.51278  1.0000
  C   C492      1.0  0.99113  0.81034  0.03734  1.0000
  H   H870      1.0  0.84848  0.97740  0.34494  1.0000
  C   C493      1.0  0.70552  0.98725  0.43764  1.0000
  H   H871      1.0  0.81290  0.90887  0.30595  1.0000
  H   H872      1.0  0.80324  0.98995  0.19702  1.0000
  C   C494      1.0  0.75113  0.52597  0.31299  1.0000
  H   H873      1.0  0.77982  0.55466  0.42704  1.0000
  C   C495      1.0  0.83301  0.95193  0.29527  1.0000
  H   H874      1.0  0.79587  0.94055  0.32956  1.0000
  C   C496      1.0  0.78206  0.97629  0.46261  1.0000
  C   C497      1.0  0.83815  0.98258  0.31646  1.0000
  C   C498      1.0  0.98566  0.85129  0.98650  1.0000
  H   H875      1.0  0.81738  0.99198  0.32506  1.0000
  C   C499      1.0  0.77761  0.53361  0.44250  1.0000
  H   H876      1.0  0.70693  0.53300  0.31386  1.0000
  H   H877      1.0  0.82833  0.92600  0.34919  1.0000
  H   H878      1.0  0.75564  0.54544  0.33289  1.0000
  H   H879      1.0  0.85309  0.94081  0.28744  1.0000
  C   C500      1.0  0.81654  0.93060  0.32171  1.0000
  H   H880      1.0  0.82061  0.95488  0.26797  1.0000
  H   H881      1.0  0.95188  0.90280  0.98879  1.0000
  H   H882      1.0  0.92539  0.51736  0.04105  1.0000
  H   H883      1.0  0.97054  0.95337  0.97205  1.0000
  H   H884      1.0  0.97527  0.51946  0.11217  1.0000
  H   H885      1.0  0.72043  0.50986  0.44430  1.0000
  H   H886      1.0  0.72162  0.96919  0.43822  1.0000
  N   N26       1.0  0.85511  0.00544  0.29399  1.0000
  H   H887      1.0  0.01135  0.80984  0.98106  1.0000
  H   H888      1.0  0.84846  0.98785  0.23486  1.0000
  H   H889      1.0  0.97087  0.81683  0.05119  1.0000
  H   H890      1.0  0.88675  0.97380  0.27435  1.0000
  H   H891      1.0  0.78925  0.97389  0.39974  1.0000
  H   H892      1.0  0.99927  0.86465  0.00682  1.0000
  H   H893      1.0  0.69426  0.98572  0.40908  1.0000
  C   C501      1.0  0.99098  0.81736  0.99335  1.0000
  H   H894      1.0  0.91418  0.53440  0.97424  1.0000
  H   H895      1.0  0.99431  0.78577  0.04145  1.0000
  H   H896      1.0  0.89266  0.98868  0.32211  1.0000
  C   C502      1.0  0.78393  0.98851  0.42434  1.0000
  H   H897      1.0  0.75327  0.53344  0.28201  1.0000
  H   H898      1.0  0.96399  0.85558  0.99719  1.0000
  H   H899      1.0  0.76681  0.50802  0.31824  1.0000
  C   C503      1.0  0.91652  0.50994  0.98002  1.0000
  H   H900      1.0  0.72461  0.52158  0.38247  1.0000
  H   H901      1.0  0.68405  0.51883  0.45100  1.0000
  C   C504      1.0  0.88513  0.99489  0.29226  1.0000
  H   H902      1.0  0.93749  0.98326  0.25813  1.0000
  H   H903      1.0  0.97389  0.80385  0.97982  1.0000
  H   H904      1.0  0.00845  0.82258  0.05242  1.0000
  H   H905      1.0  0.88891  0.51191  0.03005  1.0000
  C   C505      1.0  0.72147  0.51418  0.31995  1.0000
  H   H906      1.0  0.94291  0.00075  0.30612  1.0000
  H   H907      1.0  0.79930  0.00430  0.26721  1.0000
  C   C506      1.0  0.93620  0.00469  0.27529  1.0000
  H   H908      1.0  0.78599  0.95257  0.46710  1.0000
  Fe  Fe53      1.0  0.77456  0.93538  0.57638  1.0000
  S   S107      1.0  0.76651  0.93830  0.64231  1.0000
  S   S108      1.0  0.77263  0.98098  0.54420  1.0000
  Fe  Fe54      1.0  0.77988  0.86646  0.57991  1.0000
  S   S109      1.0  0.77284  0.86541  0.64491  1.0000
  S   S110      1.0  0.78227  0.82256  0.54460  1.0000
  Fe  Fe55      1.0  0.73788  0.89834  0.63455  1.0000
  N   N27       1.0  0.68263  0.97998  0.54825  1.0000
  Fe  Fe56      1.0  0.80213  0.90503  0.64770  1.0000
  S   S111      1.0  0.83227  0.90894  0.70001  1.0000
  S   S112      1.0  0.74346  0.89753  0.56866  1.0000
  S   S113      1.0  0.81178  0.90422  0.58261  1.0000
  Fe  Fe57      1.0  0.76760  0.58810  0.57291  1.0000
  S   S114      1.0  0.75023  0.56446  0.62640  1.0000
  S   S115      1.0  0.77299  0.56994  0.50907  1.0000
  Fe  Fe58      1.0  0.77361  0.64904  0.61840  1.0000
  S   S116      1.0  0.75641  0.62882  0.67361  1.0000
  S   S117      1.0  0.78832  0.69681  0.63304  1.0000
  Fe  Fe59      1.0  0.78459  0.58946  0.65990  1.0000
  S   S118      1.0  0.81051  0.57526  0.71329  1.0000
  Fe  Fe60      1.0  0.72383  0.60638  0.63619  1.0000
  H   H909      1.0  0.70935  0.66538  0.77154  1.0000
  S   S119      1.0  0.80332  0.61058  0.60627  1.0000
  S   S120      1.0  0.73949  0.62890  0.58106  1.0000
  Fe  Fe61      1.0  0.97544  0.57510  0.77805  1.0000
  S   S121      1.0  0.97087  0.59578  0.83859  1.0000
  S   S122      1.0  0.94322  0.56126  0.73113  1.0000
  H   H910      1.0  0.79996  0.80594  0.62348  1.0000
  C   C507      1.0  0.95446  0.94212  0.95336  1.0000
  H   H911      1.0  0.80168  0.75660  0.65697  1.0000
  N   N28       1.0  0.93240  0.97981  0.75694  1.0000
  C   C508      1.0  0.78568  0.73121  0.60745  1.0000
  C   C509      1.0  0.77610  0.73290  0.56862  1.0000
  Fe  Fe62      1.0  0.99540  0.88304  0.75608  1.0000
  S   S123      1.0  0.99312  0.87718  0.82177  1.0000
  S   S124      1.0  0.96236  0.87636  0.70800  1.0000
  C   C510      1.0  0.93867  0.94183  0.81383  1.0000
  C   C511      1.0  0.77530  0.76098  0.54954  1.0000
  H   H912      1.0  0.76975  0.71258  0.55312  1.0000
  H   H913      1.0  0.74814  0.00310  0.62789  1.0000
  C   C512      1.0  0.91038  0.99987  0.73911  1.0000
  C   C513      1.0  0.78366  0.78757  0.56926  1.0000
  H   H914      1.0  0.84930  0.99347  0.68240  1.0000
  C   C514      1.0  0.70918  0.69915  0.62983  1.0000
  H   H915      1.0  0.76818  0.76213  0.51935  1.0000
  C   C515      1.0  0.79307  0.78578  0.60814  1.0000
  C   C516      1.0  0.69992  0.98618  0.51190  1.0000
  H   H916      1.0  0.00715  0.62438  0.61809  1.0000
  C   C517      1.0  0.79409  0.75775  0.62703  1.0000
  H   H917      1.0  0.95316  0.78440  0.85999  1.0000
  H   H918      1.0  0.94678  0.84529  0.93530  1.0000
  H   H919      1.0  0.97642  0.74135  0.78429  1.0000
  H   H920      1.0  0.71158  0.80446  0.72074  1.0000
  C   C518      1.0  0.84770  0.57398  0.71725  1.0000
  C   C519      1.0  0.86016  0.57626  0.75475  1.0000
  C   C520      1.0  0.88944  0.57362  0.75947  1.0000
  C   C521      1.0  0.90658  0.56791  0.72675  1.0000
  C   C522      1.0  0.89415  0.56590  0.68920  1.0000
  C   C523      1.0  0.86496  0.56929  0.68439  1.0000
  H   H921      1.0  0.84702  0.57973  0.78040  1.0000
  H   H922      1.0  0.89861  0.57503  0.78856  1.0000
  H   H923      1.0  0.90712  0.56131  0.66369  1.0000
  H   H924      1.0  0.85565  0.56708  0.65547  1.0000
  H   H925      1.0  0.96099  0.86452  0.89450  1.0000
  H   H926      1.0  0.69353  0.85525  0.55366  1.0000
  H   H927      1.0  0.71951  0.96825  0.58202  1.0000
  H   H928      1.0  0.97646  0.98779  0.69847  1.0000
  C   C524      1.0  0.98552  0.89592  0.94493  1.0000
  C   C525      1.0  0.86777  0.89695  0.70159  1.0000
  C   C526      1.0  0.88340  0.89145  0.66737  1.0000
  C   C527      1.0  0.91212  0.88428  0.66998  1.0000
  C   C528      1.0  0.92558  0.88252  0.70674  1.0000
  C   C529      1.0  0.90972  0.88690  0.74100  1.0000
  C   C530      1.0  0.88104  0.89431  0.73840  1.0000
  H   H929      1.0  0.87350  0.89335  0.63885  1.0000
  H   H930      1.0  0.92412  0.88070  0.64326  1.0000
  H   H931      1.0  0.91961  0.88478  0.76941  1.0000
  H   H932      1.0  0.86905  0.89818  0.76504  1.0000
  N   N29       1.0  0.01151  0.52407  0.66404  1.0000
  H   H933      1.0  0.97628  0.55319  0.65062  1.0000
  N   N30       1.0  0.86637  0.68374  0.68499  1.0000
  C   C531      1.0  0.86294  0.65859  0.65493  1.0000
  C   C532      1.0  0.84123  0.68509  0.71230  1.0000
  C   C533      1.0  0.86760  0.71303  0.66263  1.0000
  C   C534      1.0  0.89320  0.68081  0.70810  1.0000
  C   C535      1.0  0.89773  0.65079  0.72992  1.0000
  C   C536      1.0  0.88721  0.65452  0.62488  1.0000
  C   C537      1.0  0.86668  0.74249  0.68793  1.0000
  C   C538      1.0  0.82659  0.65489  0.72230  1.0000
  C   C539      1.0  0.80395  0.65933  0.75368  1.0000
  C   C540      1.0  0.92731  0.64904  0.74696  1.0000
  C   C541      1.0  0.88158  0.62798  0.59688  1.0000
  C   C542      1.0  0.86976  0.77030  0.66205  1.0000
  H   H934      1.0  0.84324  0.66206  0.63795  1.0000
  H   H935      1.0  0.86024  0.63643  0.66925  1.0000
  H   H936      1.0  0.84680  0.69672  0.74048  1.0000
  H   H937      1.0  0.82429  0.69899  0.69919  1.0000
  H   H938      1.0  0.84989  0.71420  0.64124  1.0000
  H   H939      1.0  0.88709  0.71429  0.64477  1.0000
  H   H940      1.0  0.91164  0.68471  0.68872  1.0000
  H   H941      1.0  0.89454  0.69871  0.73120  1.0000
  H   H942      1.0  0.89499  0.63104  0.71011  1.0000
  H   H943      1.0  0.88296  0.64918  0.75504  1.0000
  H   H944      1.0  0.88972  0.67478  0.60639  1.0000
  H   H945      1.0  0.90725  0.64995  0.64019  1.0000
  H   H946      1.0  0.88390  0.74323  0.70974  1.0000
  H   H947      1.0  0.84649  0.74463  0.70398  1.0000
  H   H948      1.0  0.81617  0.64549  0.69561  1.0000
  H   H949      1.0  0.84149  0.63787  0.73305  1.0000
  H   H950      1.0  0.81326  0.66790  0.78160  1.0000
  H   H951      1.0  0.78776  0.67535  0.74327  1.0000
  H   H952      1.0  0.79367  0.63735  0.75951  1.0000
  H   H953      1.0  0.94322  0.64899  0.72304  1.0000
  H   H954      1.0  0.93136  0.66832  0.76737  1.0000
  H   H955      1.0  0.92970  0.62787  0.76379  1.0000
  H   H956      1.0  0.86219  0.63194  0.57964  1.0000
  H   H957      1.0  0.89931  0.62534  0.57592  1.0000
  H   H958      1.0  0.87932  0.60673  0.61353  1.0000
  H   H959      1.0  0.86792  0.79108  0.68049  1.0000
  H   H960      1.0  0.89055  0.77044  0.64734  1.0000
  H   H961      1.0  0.85315  0.77079  0.63921  1.0000
  Fe  Fe63      1.0  0.01042  0.56968  0.85338  1.0000
  N   N31       1.0  0.69693  0.78626  0.63861  1.0000
  C   C543      1.0  0.91870  0.96121  0.78856  1.0000
  C   C544      1.0  0.99416  0.74291  0.80400  1.0000
  C   C545      1.0  0.94478  0.95883  0.72630  1.0000
  C   C546      1.0  0.71287  0.81432  0.57547  1.0000
  C   C547      1.0  0.75620  0.80252  0.71659  1.0000
  H   H962      1.0  0.72986  0.82715  0.59028  1.0000
  H   H963      1.0  0.94280  0.98866  0.67456  1.0000
  H   H964      1.0  0.97884  0.59825  0.60928  1.0000
  H   H965      1.0  0.72536  0.76786  0.70887  1.0000
  H   H966      1.0  0.74187  0.79209  0.64174  1.0000
  H   H967      1.0  0.90337  0.94531  0.77529  1.0000
  H   H968      1.0  0.71555  0.68134  0.65065  1.0000
  S   S125      1.0  0.98743  0.68190  0.81146  1.0000
  H   H969      1.0  0.92879  0.94254  0.71574  1.0000
  H   H970      1.0  0.98368  0.61477  0.65780  1.0000
  H   H971      1.0  0.93351  0.95020  0.96301  1.0000
  H   H972      1.0  0.97076  0.51408  0.60384  1.0000
  H   H973      1.0  0.71679  0.67537  0.72142  1.0000
  H   H974      1.0  0.72193  0.79371  0.56190  1.0000
  C   C548      1.0  0.95803  0.97402  0.68979  1.0000
  C   C549      1.0  0.72282  0.79912  0.65828  1.0000
  H   H975      1.0  0.75823  0.82734  0.71388  1.0000
  H   H976      1.0  0.72427  0.69886  0.60485  1.0000
  H   H977      1.0  0.96152  0.94475  0.73933  1.0000
  H   H978      1.0  0.98432  0.93565  0.67329  1.0000
  S   S126      1.0  0.00236  0.61263  0.75680  1.0000
  C   C550      1.0  0.70198  0.83367  0.54189  1.0000
  C   C551      1.0  0.88719  0.98353  0.71477  1.0000
  C   C552      1.0  0.00156  0.00051  0.92671  1.0000
  H   H979      1.0  0.69700  0.64180  0.73125  1.0000
  C   C553      1.0  0.68481  0.98372  0.47170  1.0000
  H   H980      1.0  0.99840  0.79116  0.79750  1.0000
  C   C554      1.0  0.96818  0.95038  0.65992  1.0000
  C   C555      1.0  0.70159  0.98434  0.58356  1.0000
  H   H981      1.0  0.95044  0.93617  0.64954  1.0000
  C   C556      1.0  0.99467  0.60589  0.63117  1.0000
  H   H982      1.0  0.93095  0.80010  0.89799  1.0000
  H   H983      1.0  0.89607  0.97163  0.68867  1.0000
  C   C557      1.0  0.70079  0.66541  0.74114  1.0000
  H   H984      1.0  0.95458  0.95595  0.82870  1.0000
  H   H985      1.0  0.93742  0.91104  0.86282  1.0000
  H   H986      1.0  0.95211  0.51494  0.66928  1.0000
  H   H987      1.0  0.95762  0.94868  0.92219  1.0000
  C   C558      1.0  0.77536  0.99484  0.49494  1.0000
  H   H988      1.0  0.98181  0.80113  0.91615  1.0000
  C   C559      1.0  0.00454  0.71665  0.82160  1.0000
  C   C560      1.0  0.92263  0.92523  0.84597  1.0000
  C   C561      1.0  0.99221  0.51733  0.59241  1.0000
  H   H989      1.0  0.71949  0.83880  0.52141  1.0000
  C   C562      1.0  0.99759  0.55457  0.66339  1.0000
  C   C563      1.0  0.70931  0.72991  0.65069  1.0000
  C   C564      1.0  0.86552  0.00587  0.69960  1.0000
  H   H990      1.0  0.00438  0.67786  0.71633  1.0000
  H   H991      1.0  0.93924  0.89797  0.93916  1.0000
  H   H992      1.0  0.99432  0.56293  0.69409  1.0000
  C   C565      1.0  0.95618  0.90792  0.95745  1.0000
  H   H993      1.0  0.75903  0.79668  0.74806  1.0000
  C   C566      1.0  0.94741  0.80550  0.87602  1.0000
  H   H994      1.0  0.93898  0.82171  0.85433  1.0000
  H   H995      1.0  0.72254  0.82421  0.65715  1.0000
  H   H996      1.0  0.90627  0.91042  0.83286  1.0000
  H   H997      1.0  0.90609  0.97576  0.80880  1.0000
  C   C567      1.0  0.95556  0.99920  0.77369  1.0000
  H   H998      1.0  0.97760  0.96167  0.63406  1.0000
  H   H999      1.0  0.94963  0.92473  0.79544  1.0000
  H   H1000     1.0  0.99375  0.54108  0.58287  1.0000
  H   H1001     1.0  0.71832  0.97072  0.51085  1.0000
  C   C568      1.0  0.00653  0.77123  0.81155  1.0000
  C   C569      1.0  0.96653  0.84857  0.91838  1.0000
  H   H1002     1.0  0.87583  0.96680  0.73281  1.0000
  H   H1003     1.0  0.73068  0.73326  0.66283  1.0000
  C   C570      1.0  0.72734  0.79213  0.70257  1.0000
  H   H1004     1.0  0.77301  0.79136  0.69914  1.0000
  Fe  Fe64      1.0  0.00002  0.63243  0.81744  1.0000
  C   C571      1.0  0.77422  0.53422  0.48382  1.0000
  H   H1005     1.0  0.99032  0.90500  0.91513  1.0000
  C   C572      1.0  0.97332  0.81852  0.89639  1.0000
  C   C573      1.0  0.77180  0.50669  0.50330  1.0000
  H   H1006     1.0  0.72087  0.75595  0.60115  1.0000
  H   H1007     1.0  0.99301  0.51403  0.72055  1.0000
  H   H1008     1.0  0.91267  0.94158  0.86670  1.0000
  S   S127      1.0  0.69583  0.88307  0.66075  1.0000
  N   N32       1.0  0.98904  0.86201  0.94477  1.0000
  H   H1009     1.0  0.69202  0.93253  0.54080  1.0000
  H   H1010     1.0  0.68542  0.82156  0.52508  1.0000
  H   H1011     1.0  0.98911  0.82264  0.87308  1.0000
  C   C574      1.0  0.70256  0.75531  0.62140  1.0000
  H   H1012     1.0  0.68244  0.58330  0.72188  1.0000
  S   S128      1.0  0.00680  0.95924  0.86540  1.0000
  H   H1013     1.0  0.68081  0.82855  0.61662  1.0000
  C   C575      1.0  0.68909  0.80668  0.60497  1.0000
  H   H1014     1.0  0.00065  0.90694  0.96537  1.0000
  C   C576      1.0  0.01125  0.51305  0.93919  1.0000
  H   H1015     1.0  0.97393  0.98510  0.78192  1.0000
  H   H1016     1.0  0.68312  0.94663  0.68057  1.0000
  H   H1017     1.0  0.68794  0.69354  0.61864  1.0000
  H   H1018     1.0  0.68474  0.74785  0.60258  1.0000
  H   H1019     1.0  0.69026  0.97901  0.61126  1.0000
  H   H1020     1.0  0.69394  0.72892  0.67507  1.0000
  H   H1021     1.0  0.00952  0.68029  0.66380  1.0000
  H   H1022     1.0  0.67930  0.70750  0.74610  1.0000
  H   H1023     1.0  0.94024  0.00567  0.83487  1.0000
  H   H1024     1.0  0.76932  0.50662  0.53499  1.0000
