data_image0
_chemical_formula_structural       FeS2FeS2FeHCHFeCH2C3HCH3NHC6H2SHC2H2CH3C3H3FeHNCH2SH2CH3SHC3H5C3H2C2H3CH2CH7SHCH2SH5CH4SHC2H2CHCHCSFeS2FeS2FeHFeS3C2H3NHCHCHCH2CFeS2FeS2FeS2FeSFeHS2CHFeC3H3S2CH2C6H4C6H4C6H2CH2CH2CH6C2H5CHC2H3CHC2HNC5H2C4H5CH3CH12CH3CH3FeCH3CSH3FeH2NC12H18CH2CHS2HNHC2HCH5CHC2H2CHSH16CH4C2H2CHCSCH2CH3NCHC2HCHCH2C3H2CH3CNCH3CHC4H2CFeH8CH6CH7SH3FeS2FeS2FeCFeS3FeS2FeS2FeCFeS3H3SCSH4C6H4C6H4C2H2CH3C6H7CH2C2HC2HCH3CH5C3H7C2H2NH2CFeC2HCH7C2H2FeH3CSH3CH3CHCSH6CHCH4CNH2CHCH3CSH2CHC3HCH3CSH7CH3CHNH4CHCNCH2C4HC2HFeC2HCH11C2HC2HC3HNCH2CHCH2CHCH2CH5CH7CH2CH3CH4CHC2HCH2C2H5CHSHCHCH7CHCH3SH3CH2C2FeH3CH3C3HCH2NH6C2H2CSH2NCFeS2FeS2HCFeSFeC2H3C4HCH2CHCH3CHCHCH4CH3CHSHCH2CH2CHC2H3SHCHNH2CH2CHCH3CHCHCHSH2C4HFeS2FeSHC6H4CHFeS2HC3H2C2HCH4C3SCH3C2HNCH3FeCH3CSH10C2H7CH4CH2CH5CSC2H4CNCH3FeS2FeS2CH2C3H2C2H3CSH2CH4C2H3CH2SFeS2FeS2FeS2FeS2FeS2FeS2CHC4H2C4H2C6H4C4H2C2H2NC4HC3HNHCH3CH2C2H6CHCHCHCH9CHCH3SH6NC5HCH8CH3CH2CH8CH2C4H3CNHCH3C2H3CH2CHCHSH4C2H5C3HNC12H27CH9CHCH3C3SH5C4HFeC2HC2H9CHCHCH6FeCH4CH4C2H2CHCHCH3CH7NH3CH2CFeS2FeS3FeS2FeS3C4H4C2HC2H2CHC3H2C4H3CFeS2FeS2FeSFeS2C2H2C7H4C3H2CH3C2H2NC8HCHCHCH6CH12C2H7CH3CHCH3C2H3CNC4HC6H9CH10CH7C4H2CNH8CHCH5CHCHC2H7C3H2NH3C2H2CH4CH10C2H3CH3CH3CHCHCHNC2H5CH2CH5CH3C2H2C2H2CH2CH2CHC2H3C6H2SCH7CH7CHC2H2CH2CN2H2CH4CH8C2H2CH9FeHCH2SHCH4FeS2H2FeHC7H2SCSHC2H2C2H3C3H2CH3CH4C5H2NCHSH8C3HCH2SHFeS2HCFeHFeSC3H2C3H2C7H2NC2H4NHCHCHCHSH5SCHCH3CH2CH2CH3SHCH4CH5CSH4FeHCNH4C2SCHSFeS2FeCNFeSH2SHFeS2HSCFeS2FeS2FeSFeS3CNHC3H4CHC6H4C6H3C8H5CHCH2C3HCHFeHC2H3SH3SH2C2HCH4CH4CH3CHC2HCH2SH2CHCHCFeHSH2NC9HC2H21CH6NC12H8CH12CH6CH2CH2C2H2CHCHCHC2HCHNHCHNH2SCH2C2HNFeHCH2CHCHCH2C2H6CS2H3CH4CH3SC2HCH3CHC2H5CH3SH7CH3FeHSCH2C2HCH5C2FeCH16CHC4HSH2CH2C2HFeH5C2H3SCHCH4CFeS2HCSFeS2FeS2FeSFeCS2FeS2FeS2FeSHCSC2HSHFeS2HSHFeHC2HC6H4C6H4CH3CH3C6H6C2HC5H6NC7HS2C2H15CSH2SHCHCH4NC9H22CH2CHCHC2HC2H3NH4CH3CH3C2SHCH3NH3CH3CHCHCSHCHCH5CHC2H2FeSCH2CH5CH2C2H4SCHC2H2CH11CH3FeH3CH2FeNC3HC2H2C2FeH3C2HC3H8CH4CH5FeHC2HCH5C2HCH4C2H2FeS2HCHFeH5SCH3CHSH2SCHCNHC2HFeH3CHFeC2H2CHC3HC2HCHC2H2SCH6S2CH4C
_chemical_formula_sum              "Fe96 S192 H1536 C864 N48"
_cell_length_a       48.2557
_cell_length_b       53.2394
_cell_length_c       34.3328
_cell_angle_alpha    89.9707
_cell_angle_beta     90.1275
_cell_angle_gamma    90.0362

_space_group_name_H-M_alt    "P 1"
_space_group_IT_number       1

loop_
  _space_group_symop_operation_xyz
  'x, y, z'

loop_
  _atom_site_type_symbol
  _atom_site_label
  _atom_site_symmetry_multiplicity
  _atom_site_fract_x
  _atom_site_fract_y
  _atom_site_fract_z
  _atom_site_occupancy
  Fe  Fe1       1.0  0.07438  0.39530  0.21890  1.0000
  S   S1        1.0  0.11320  0.37241  0.23267  1.0000
  S   S2        1.0  0.07269  0.42070  0.16658  1.0000
  Fe  Fe2       1.0  0.30607  0.39428  0.36068  1.0000
  S   S3        1.0  0.29417  0.38146  0.30021  1.0000
  S   S4        1.0  0.31046  0.36513  0.40839  1.0000
  Fe  Fe3       1.0  0.26875  0.41700  0.29822  1.0000
  H   H1        1.0  0.28263  0.95215  0.46817  1.0000
  C   C1        1.0  0.03305  0.98577  0.05790  1.0000
  H   H2        1.0  0.07659  0.35385  0.04576  1.0000
  Fe  Fe4       1.0  0.33074  0.40489  0.28107  1.0000
  C   C2        1.0  0.20122  0.33586  0.48450  1.0000
  H   H3        1.0  0.12618  0.42436  0.25089  1.0000
  H   H4        1.0  0.06801  0.36809  0.11404  1.0000
  C   C3        1.0  0.29345  0.36723  0.45361  1.0000
  C   C4        1.0  0.29712  0.34781  0.48079  1.0000
  C   C5        1.0  0.07895  0.27143  0.05492  1.0000
  H   H5        1.0  0.11482  0.29567  0.04744  1.0000
  C   C6        1.0  0.27669  0.38773  0.46316  1.0000
  H   H6        1.0  0.31002  0.33188  0.47349  1.0000
  H   H7        1.0  0.26809  0.24141  0.49062  1.0000
  H   H8        1.0  0.27389  0.40284  0.44249  1.0000
  N   N1        1.0  0.08010  0.31614  0.02312  1.0000
  H   H9        1.0  0.06128  0.41363  0.07246  1.0000
  C   C7        1.0  0.14445  0.38767  0.24621  1.0000
  C   C8        1.0  0.16909  0.37374  0.25037  1.0000
  C   C9        1.0  0.19425  0.38566  0.26060  1.0000
  C   C10       1.0  0.19477  0.41157  0.26734  1.0000
  C   C11       1.0  0.07958  0.35119  0.12378  1.0000
  C   C12       1.0  0.14504  0.41347  0.25343  1.0000
  H   H10       1.0  0.16879  0.35373  0.24490  1.0000
  H   H11       1.0  0.21323  0.37492  0.26245  1.0000
  S   S5        1.0  0.03268  0.37751  0.20705  1.0000
  H   H12       1.0  0.09907  0.39848  0.36194  1.0000
  C   C13       1.0  0.18572  0.36097  0.42530  1.0000
  C   C14       1.0  0.34804  0.17448  0.46576  1.0000
  H   H13       1.0  0.11690  0.37641  0.33108  1.0000
  H   H14       1.0  0.25054  0.40447  0.50703  1.0000
  C   C15       1.0  0.20087  0.42649  0.38093  1.0000
  H   H15       1.0  0.13201  0.37536  0.40184  1.0000
  H   H16       1.0  0.07226  0.34611  0.15340  1.0000
  H   H17       1.0  0.10775  0.24109  0.04137  1.0000
  C   C16       1.0  0.09806  0.24995  0.06728  1.0000
  C   C17       1.0  0.24469  0.33671  0.33454  1.0000
  C   C18       1.0  0.07458  0.32923  0.09590  1.0000
  H   H18       1.0  0.03993  0.30366  0.04444  1.0000
  H   H19       1.0  0.16753  0.36790  0.44199  1.0000
  H   H20       1.0  0.31841  0.95471  0.45407  1.0000
  Fe  Fe5       1.0  0.02980  0.40503  0.15725  1.0000
  H   H21       1.0  0.19875  0.31770  0.46896  1.0000
  N   N2        1.0  0.19273  0.37898  0.39285  1.0000
  C   C19       1.0  0.28414  0.34878  0.51734  1.0000
  H   H22       1.0  0.29375  0.97847  0.51975  1.0000
  H   H23       1.0  0.02534  0.00371  0.07024  1.0000
  S   S6        1.0  0.05600  0.42333  0.25991  1.0000
  H   H24       1.0  0.28207  0.27193  0.50225  1.0000
  H   H25       1.0  0.10200  0.35581  0.12573  1.0000
  C   C20       1.0  0.20891  0.35676  0.45600  1.0000
  H   H26       1.0  0.31805  0.23903  0.50843  1.0000
  H   H27       1.0  0.22894  0.35163  0.44243  1.0000
  H   H28       1.0  0.24497  0.31645  0.32686  1.0000
  S   S7        1.0  0.34402  0.41543  0.34133  1.0000
  H   H29       1.0  0.18235  0.40952  0.43217  1.0000
  C   C21       1.0  0.14078  0.38946  0.38146  1.0000
  C   C22       1.0  0.19562  0.42582  0.15957  1.0000
  C   C23       1.0  0.03641  0.96724  0.09159  1.0000
  H   H30       1.0  0.17907  0.34249  0.41332  1.0000
  H   H31       1.0  0.23741  0.37420  0.38813  1.0000
  H   H32       1.0  0.20055  0.33804  0.33946  1.0000
  H   H33       1.0  0.24490  0.34776  0.30711  1.0000
  H   H34       1.0  0.17402  0.39149  0.33877  1.0000
  C   C24       1.0  0.05146  0.40356  0.04879  1.0000
  C   C25       1.0  0.08549  0.33538  0.05462  1.0000
  C   C26       1.0  0.19843  0.40448  0.41033  1.0000
  H   H35       1.0  0.20089  0.41514  0.13283  1.0000
  H   H36       1.0  0.30871  0.18800  0.48507  1.0000
  C   C27       1.0  0.11947  0.39362  0.34909  1.0000
  C   C28       1.0  0.21822  0.37062  0.37086  1.0000
  H   H37       1.0  0.26363  0.34098  0.35182  1.0000
  H   H38       1.0  0.16433  0.36094  0.35262  1.0000
  H   H39       1.0  0.32025  0.15907  0.50776  1.0000
  C   C29       1.0  0.21868  0.34265  0.35801  1.0000
  H   H40       1.0  0.05200  0.32540  0.09583  1.0000
  H   H41       1.0  0.22085  0.38206  0.34394  1.0000
  C   C30       1.0  0.16869  0.37991  0.36466  1.0000
  H   H42       1.0  0.21821  0.40407  0.42711  1.0000
  H   H43       1.0  0.33942  0.97440  0.50284  1.0000
  H   H44       1.0  0.21869  0.32992  0.38359  1.0000
  H   H45       1.0  0.11455  0.25695  0.08715  1.0000
  H   H46       1.0  0.06228  0.26319  0.03662  1.0000
  H   H47       1.0  0.08591  0.31291  0.10809  1.0000
  H   H48       1.0  0.10810  0.33853  0.05850  1.0000
  S   S8        1.0  0.27852  0.42824  0.36001  1.0000
  H   H49       1.0  0.14320  0.40748  0.39723  1.0000
  C   C31       1.0  0.02639  0.39104  0.05511  1.0000
  H   H50       1.0  0.18091  0.42992  0.36571  1.0000
  H   H51       1.0  0.12601  0.40939  0.33006  1.0000
  S   S9        1.0  0.30417  0.43899  0.27291  1.0000
  H   H52       1.0  0.08587  0.23542  0.08295  1.0000
  H   H53       1.0  0.21684  0.42239  0.35882  1.0000
  H   H54       1.0  0.21194  0.37413  0.47331  1.0000
  H   H55       1.0  0.06910  0.27904  0.08144  1.0000
  H   H56       1.0  0.34335  0.41579  0.47469  1.0000
  C   C32       1.0  0.27668  0.25322  0.51443  1.0000
  H   H57       1.0  0.18170  0.34051  0.50001  1.0000
  H   H58       1.0  0.34980  0.20979  0.52112  1.0000
  H   H59       1.0  0.21796  0.33375  0.50656  1.0000
  H   H60       1.0  0.33870  0.16347  0.44158  1.0000
  S   S10       1.0  0.22571  0.42848  0.27699  1.0000
  H   H61       1.0  0.20687  0.41720  0.18449  1.0000
  C   C33       1.0  0.26355  0.38862  0.49969  1.0000
  C   C34       1.0  0.16993  0.42518  0.26457  1.0000
  H   H62       1.0  0.05389  0.98909  0.04544  1.0000
  H   H63       1.0  0.05004  0.97546  0.11436  1.0000
  C   C35       1.0  0.32666  0.17807  0.49808  1.0000
  H   H64       1.0  0.04609  0.94956  0.08122  1.0000
  C   C36       1.0  0.09507  0.29178  0.03168  1.0000
  H   H65       1.0  0.17294  0.42417  0.16470  1.0000
  C   C37       1.0  0.04920  0.31279  0.01853  1.0000
  S   S11       1.0  0.28416  0.99795  0.64682  1.0000
  Fe  Fe6       1.0  0.18953  0.10624  0.69346  1.0000
  S   S12       1.0  0.19154  0.11623  0.75664  1.0000
  S   S13       1.0  0.17965  0.06608  0.67966  1.0000
  Fe  Fe7       1.0  0.19893  0.15973  0.66802  1.0000
  S   S14       1.0  0.20208  0.17423  0.72920  1.0000
  S   S15       1.0  0.20090  0.18788  0.61949  1.0000
  Fe  Fe8       1.0  0.22781  0.13990  0.73954  1.0000
  H   H66       1.0  0.24298  0.98547  0.52786  1.0000
  Fe  Fe9       1.0  0.16548  0.14937  0.74059  1.0000
  S   S16       1.0  0.13150  0.16163  0.78143  1.0000
  S   S17       1.0  0.22808  0.12728  0.67721  1.0000
  S   S18       1.0  0.16026  0.13742  0.67839  1.0000
  C   C38       1.0  0.33925  0.19276  0.53270  1.0000
  C   C39       1.0  0.32398  0.15787  0.70148  1.0000
  H   H67       1.0  0.30434  0.04675  0.68463  1.0000
  H   H68       1.0  0.26122  0.04875  0.72239  1.0000
  H   H69       1.0  0.19055  0.29156  0.67775  1.0000
  N   N3        1.0  0.31969  0.19977  0.56507  1.0000
  H   H70       1.0  0.08904  0.23862  0.68904  1.0000
  C   C40       1.0  0.29990  0.42292  0.59618  1.0000
  H   H71       1.0  0.07743  0.02571  0.80295  1.0000
  C   C41       1.0  0.34632  0.15009  0.76324  1.0000
  H   H72       1.0  0.04286  0.95606  0.94694  1.0000
  C   C42       1.0  0.33696  0.01418  0.74943  1.0000
  H   H73       1.0  0.09338  0.95761  0.93851  1.0000
  H   H74       1.0  0.16591  0.27187  0.70306  1.0000
  C   C43       1.0  0.32047  0.14559  0.78032  1.0000
  Fe  Fe10      1.0  0.07278  0.34057  0.80826  1.0000
  S   S19       1.0  0.10243  0.33502  0.75760  1.0000
  S   S20       1.0  0.08052  0.32923  0.87014  1.0000
  Fe  Fe11      1.0  0.26857  0.35006  0.62402  1.0000
  S   S21       1.0  0.28047  0.37311  0.67641  1.0000
  S   S22       1.0  0.25030  0.37071  0.57217  1.0000
  Fe  Fe12      1.0  0.28817  0.30181  0.66215  1.0000
  S   S23       1.0  0.30134  0.32105  0.71701  1.0000
  S   S24       1.0  0.29919  0.26111  0.65974  1.0000
  Fe  Fe13      1.0  0.26078  0.34174  0.71095  1.0000
  S   S25       1.0  0.23395  0.34615  0.76502  1.0000
  Fe  Fe14      1.0  0.31968  0.35006  0.67731  1.0000
  H   H75       1.0  0.26397  0.17748  0.57854  1.0000
  S   S26       1.0  0.24641  0.32012  0.65853  1.0000
  S   S27       1.0  0.30875  0.32920  0.62256  1.0000
  C   C44       1.0  0.13892  0.33825  0.76066  1.0000
  H   H76       1.0  0.05267  0.28113  0.97697  1.0000
  Fe  Fe15      1.0  0.05428  0.36242  0.88704  1.0000
  C   C45       1.0  0.19733  0.34343  0.76259  1.0000
  C   C46       1.0  0.18146  0.34677  0.79652  1.0000
  C   C47       1.0  0.15238  0.34414  0.79564  1.0000
  H   H77       1.0  0.19168  0.35161  0.82355  1.0000
  H   H78       1.0  0.14037  0.34695  0.82184  1.0000
  H   H79       1.0  0.13500  0.27478  0.84605  1.0000
  S   S28       1.0  0.06797  0.38907  0.93496  1.0000
  S   S29       1.0  0.26452  0.13957  0.77971  1.0000
  C   C48       1.0  0.02628  0.37751  0.98710  1.0000
  H   H80       1.0  0.18229  0.21559  0.84993  1.0000
  H   H81       1.0  0.18362  0.19637  0.80652  1.0000
  C   C49       1.0  0.04333  0.14380  0.74139  1.0000
  C   C50       1.0  0.06513  0.14366  0.71465  1.0000
  C   C51       1.0  0.09223  0.14878  0.72692  1.0000
  C   C52       1.0  0.09771  0.15431  0.76595  1.0000
  C   C53       1.0  0.07589  0.15454  0.79278  1.0000
  C   C54       1.0  0.04877  0.14899  0.78061  1.0000
  H   H82       1.0  0.06100  0.13980  0.68424  1.0000
  H   H83       1.0  0.10866  0.14924  0.70584  1.0000
  H   H84       1.0  0.07999  0.15886  0.82305  1.0000
  H   H85       1.0  0.03211  0.14904  0.80149  1.0000
  C   C55       1.0  0.22810  0.20851  0.62977  1.0000
  C   C56       1.0  0.24972  0.20054  0.65383  1.0000
  C   C57       1.0  0.27173  0.21672  0.66219  1.0000
  C   C58       1.0  0.27161  0.24130  0.64787  1.0000
  C   C59       1.0  0.25003  0.24940  0.62365  1.0000
  C   C60       1.0  0.22838  0.23283  0.61419  1.0000
  H   H86       1.0  0.24965  0.18171  0.66552  1.0000
  H   H87       1.0  0.28876  0.21021  0.68005  1.0000
  H   H88       1.0  0.25007  0.26833  0.61218  1.0000
  H   H89       1.0  0.21161  0.23898  0.59551  1.0000
  C   C61       1.0  0.25512  0.01710  0.65493  1.0000
  C   C62       1.0  0.23273  0.00777  0.67627  1.0000
  C   C63       1.0  0.20982  0.02305  0.68396  1.0000
  C   C64       1.0  0.20910  0.04778  0.67040  1.0000
  C   C65       1.0  0.23151  0.05730  0.64911  1.0000
  C   C66       1.0  0.25444  0.04186  0.64106  1.0000
  H   H90       1.0  0.23290  0.98876  0.68709  1.0000
  H   H91       1.0  0.19268  0.01566  0.70076  1.0000
  C   C67       1.0  0.27586  0.13989  0.59252  1.0000
  H   H92       1.0  0.27165  0.04915  0.62439  1.0000
  H   H93       1.0  0.18212  0.26097  0.65884  1.0000
  C   C68       1.0  0.30254  0.24105  0.53199  1.0000
  H   H94       1.0  0.25519  0.13263  0.58367  1.0000
  H   H95       1.0  0.15435  0.34711  0.94598  1.0000
  C   C69       1.0  0.30924  0.17662  0.58620  1.0000
  H   H96       1.0  0.07808  0.97971  0.79489  1.0000
  H   H97       1.0  0.03930  0.03886  0.76934  1.0000
  H   H98       1.0  0.34739  0.09049  0.75197  1.0000
  H   H99       1.0  0.06034  0.96100  0.99252  1.0000
  H   H100      1.0  0.07782  0.28555  0.73984  1.0000
  H   H101      1.0  0.28125  0.21911  0.57534  1.0000
  C   C70       1.0  0.12187  0.33542  0.98575  1.0000
  C   C71       1.0  0.03751  0.99415  0.97046  1.0000
  H   H102      1.0  0.30526  0.18108  0.61740  1.0000
  H   H103      1.0  0.29896  0.01723  0.78023  1.0000
  H   H104      1.0  0.23962  0.30036  0.88440  1.0000
  H   H105      1.0  0.15947  0.08867  0.82946  1.0000
  H   H106      1.0  0.03357  0.42697  0.86669  1.0000
  C   C72       1.0  0.11661  0.26267  0.84085  1.0000
  H   H107      1.0  0.13717  0.06005  0.77701  1.0000
  C   C73       1.0  0.32241  0.40286  0.59263  1.0000
  C   C74       1.0  0.05231  0.22480  0.74340  1.0000
  H   H108      1.0  0.30448  0.08368  0.78673  1.0000
  H   H109      1.0  0.09917  0.27007  0.85851  1.0000
  H   H110      1.0  0.32065  0.22234  0.78171  1.0000
  C   C75       1.0  0.34665  0.07487  0.77337  1.0000
  H   H111      1.0  0.04964  0.31462  0.69739  1.0000
  C   C76       1.0  0.12083  0.09535  0.79805  1.0000
  C   C77       1.0  0.18382  0.33750  0.72774  1.0000
  H   H112      1.0  0.22343  0.96485  0.55913  1.0000
  N   N4        1.0  0.09516  0.06274  0.75472  1.0000
  C   C78       1.0  0.09599  0.03502  0.74560  1.0000
  C   C79       1.0  0.10400  0.07722  0.71904  1.0000
  C   C80       1.0  0.11655  0.06753  0.78612  1.0000
  C   C81       1.0  0.06707  0.07161  0.76869  1.0000
  C   C82       1.0  0.04126  0.05698  0.75360  1.0000
  H   H113      1.0  0.22865  0.07800  0.79403  1.0000
  H   H114      1.0  0.26056  0.25589  0.53713  1.0000
  C   C83       1.0  0.08508  0.07512  0.68276  1.0000
  C   C84       1.0  0.09757  0.08942  0.64835  1.0000
  C   C85       1.0  0.03454  0.29913  0.69246  1.0000
  C   C86       1.0  0.13654  0.21208  0.69671  1.0000
  H   H115      1.0  0.16797  0.00009  0.64213  1.0000
  H   H116      1.0  0.11641  0.02994  0.73255  1.0000
  H   H117      1.0  0.08076  0.02997  0.72277  1.0000
  H   H118      1.0  0.10502  0.09762  0.72536  1.0000
  H   H119      1.0  0.12536  0.07160  0.71046  1.0000
  C   C87       1.0  0.16784  0.98499  0.61989  1.0000
  H   H120      1.0  0.34418  0.09724  0.66922  1.0000
  H   H121      1.0  0.06579  0.07080  0.80106  1.0000
  H   H122      1.0  0.06419  0.09190  0.76162  1.0000
  C   C88       1.0  0.28158  0.16477  0.57185  1.0000
  H   H123      1.0  0.04242  0.05280  0.72209  1.0000
  H   H124      1.0  0.13181  0.32313  0.92672  1.0000
  H   H125      1.0  0.11179  0.01399  0.79582  1.0000
  H   H126      1.0  0.25350  0.02552  0.78167  1.0000
  H   H127      1.0  0.13157  0.10576  0.77456  1.0000
  H   H128      1.0  0.08233  0.05537  0.67343  1.0000
  H   H129      1.0  0.06453  0.08361  0.68888  1.0000
  H   H130      1.0  0.11811  0.08144  0.64048  1.0000
  H   H131      1.0  0.08362  0.08792  0.62270  1.0000
  H   H132      1.0  0.10017  0.10962  0.65562  1.0000
  H   H133      1.0  0.13540  0.32100  0.99931  1.0000
  H   H134      1.0  0.28243  0.08729  0.68554  1.0000
  C   C89       1.0  0.26725  0.36916  0.52687  1.0000
  H   H135      1.0  0.10150  0.28237  0.00413  1.0000
  H   H136      1.0  0.21586  0.04851  0.81249  1.0000
  H   H137      1.0  0.11098  0.05732  0.81328  1.0000
  C   C90       1.0  0.30452  0.08676  0.69477  1.0000
  H   H138      1.0  0.21510  0.05452  0.76080  1.0000
  H   H139      1.0  0.26755  0.05025  0.81188  1.0000
  H   H140      1.0  0.29179  0.12572  0.58474  1.0000
  Fe  Fe16      1.0  0.27548  0.96063  0.67480  1.0000
  C   C91       1.0  0.10909  0.26311  0.79759  1.0000
  H   H141      1.0  0.07713  0.98333  0.91332  1.0000
  H   H142      1.0  0.12763  0.25713  0.78103  1.0000
  H   H143      1.0  0.04586  0.27582  0.75968  1.0000
  C   C92       1.0  0.06171  0.27069  0.73775  1.0000
  S   S30       1.0  0.26545  0.95730  0.73806  1.0000
  H   H144      1.0  0.33906  0.35233  0.54819  1.0000
  H   H145      1.0  0.05855  0.99430  0.75649  1.0000
  H   H146      1.0  0.19567  0.33530  0.70133  1.0000
  Fe  Fe17      1.0  0.03991  0.30917  0.86530  1.0000
  H   H147      1.0  0.11992  0.35534  0.93030  1.0000
  H   H148      1.0  0.12321  0.21557  0.75602  1.0000
  N   N5        1.0  0.23170  0.26058  0.77771  1.0000
  C   C93       1.0  0.21405  0.27434  0.74827  1.0000
  C   C94       1.0  0.23880  0.27850  0.81034  1.0000
  C   C95       1.0  0.25856  0.25334  0.75792  1.0000
  C   C96       1.0  0.21808  0.23698  0.79321  1.0000
  C   C97       1.0  0.18592  0.23679  0.79575  1.0000
  C   C98       1.0  0.20915  0.26032  0.70937  1.0000
  C   C99       1.0  0.28142  0.24222  0.78488  1.0000
  C   C100      1.0  0.21429  0.28835  0.83500  1.0000
  C   C101      1.0  0.22401  0.30829  0.86400  1.0000
  C   C102      1.0  0.17560  0.21417  0.81904  1.0000
  C   C103      1.0  0.18542  0.27194  0.68597  1.0000
  C   C104      1.0  0.30372  0.22832  0.76183  1.0000
  H   H149      1.0  0.22382  0.29269  0.74066  1.0000
  H   H150      1.0  0.19359  0.27949  0.76044  1.0000
  H   H151      1.0  0.25299  0.26952  0.83171  1.0000
  H   H152      1.0  0.25023  0.29505  0.79841  1.0000
  H   H153      1.0  0.26774  0.26985  0.74258  1.0000
  H   H154      1.0  0.25455  0.23912  0.73481  1.0000
  H   H155      1.0  0.22358  0.22039  0.77497  1.0000
  H   H156      1.0  0.22643  0.23243  0.82265  1.0000
  H   H157      1.0  0.17668  0.23546  0.76622  1.0000
  H   H158      1.0  0.17761  0.25393  0.80957  1.0000
  H   H159      1.0  0.22809  0.26189  0.69151  1.0000
  H   H160      1.0  0.20481  0.24007  0.71389  1.0000
  H   H161      1.0  0.27262  0.22879  0.80626  1.0000
  H   H162      1.0  0.29188  0.25764  0.80105  1.0000
  H   H163      1.0  0.19797  0.29702  0.81673  1.0000
  H   H164      1.0  0.20517  0.27277  0.85222  1.0000
  H   H165      1.0  0.23325  0.32455  0.84838  1.0000
  H   H166      1.0  0.20605  0.31518  0.88111  1.0000
  C   C105      1.0  0.02395  0.23005  0.76315  1.0000
  H   H167      1.0  0.15262  0.21338  0.81811  1.0000
  H   H168      1.0  0.18921  0.98285  0.60843  1.0000
  C   C106      1.0  0.27161  0.05674  0.74854  1.0000
  H   H169      1.0  0.01790  0.95584  0.02007  1.0000
  S   S31       1.0  0.05009  0.37577  0.82508  1.0000
  S   S32       1.0  0.04006  0.26946  0.88673  1.0000
  H   H170      1.0  0.31058  0.25431  0.55428  1.0000
  N   N6        1.0  0.31813  0.94590  0.53631  1.0000
  H   H171      1.0  0.13501  0.94696  0.58855  1.0000
  C   C107      1.0  0.05134  0.38999  0.98075  1.0000
  C   C108      1.0  0.15480  0.33480  0.72684  1.0000
  H   H172      1.0  0.29431  0.01363  0.72915  1.0000
  C   C109      1.0  0.25610  0.04619  0.78455  1.0000
  H   H173      1.0  0.12397  0.35326  0.00228  1.0000
  H   H174      1.0  0.32736  0.97798  0.72281  1.0000
  H   H175      1.0  0.14457  0.33039  0.69962  1.0000
  H   H176      1.0  0.12800  0.21208  0.66664  1.0000
  H   H177      1.0  0.28687  0.33360  0.53794  1.0000
  C   C110      1.0  0.33783  0.98547  0.74922  1.0000
  H   H178      1.0  0.09951  0.19940  0.72419  1.0000
  C   C111      1.0  0.34827  0.15595  0.72367  1.0000
  C   C112      1.0  0.13254  0.34050  0.94461  1.0000
  H   H179      1.0  0.10076  0.10468  0.80415  1.0000
  H   H180      1.0  0.09469  0.98872  0.95926  1.0000
  C   C113      1.0  0.26594  0.95320  0.55018  1.0000
  H   H181      1.0  0.33880  0.40706  0.61440  1.0000
  S   S33       1.0  0.03471  0.99854  0.85343  1.0000
  H   H182      1.0  0.31560  0.05491  0.80718  1.0000
  H   H183      1.0  0.24865  0.98582  0.57999  1.0000
  H   H184      1.0  0.29974  0.97575  0.57039  1.0000
  H   H185      1.0  0.06703  0.25191  0.80873  1.0000
  H   H186      1.0  0.03761  0.05215  0.85386  1.0000
  H   H187      1.0  0.02582  0.30111  0.66267  1.0000
  H   H188      1.0  0.29484  0.21118  0.74821  1.0000
  H   H189      1.0  0.15239  0.22704  0.69945  1.0000
  H   H190      1.0  0.29083  0.42230  0.62587  1.0000
  H   H191      1.0  0.10451  0.28289  0.79003  1.0000
  H   H192      1.0  0.06520  0.27277  0.67396  1.0000
  H   H193      1.0  0.09323  0.98279  0.74702  1.0000
  H   H194      1.0  0.08910  0.31277  0.96141  1.0000
  H   H195      1.0  0.12144  0.24327  0.85057  1.0000
  H   H196      1.0  0.31265  0.24063  0.73894  1.0000
  H   H197      1.0  0.23090  0.07634  0.63819  1.0000
  C   C114      1.0  0.29552  0.21528  0.55070  1.0000
  H   H198      1.0  0.32758  0.97769  0.77556  1.0000
  H   H199      1.0  0.02662  0.23540  0.79409  1.0000
  H   H200      1.0  0.14677  0.19371  0.70175  1.0000
  H   H201      1.0  0.30716  0.10016  0.71916  1.0000
  C   C115      1.0  0.34400  0.96044  0.52611  1.0000
  C   C116      1.0  0.30674  0.02385  0.75155  1.0000
  H   H202      1.0  0.31275  0.38457  0.60019  1.0000
  H   H203      1.0  0.13570  0.96021  0.76584  1.0000
  C   C117      1.0  0.24401  0.97369  0.55452  1.0000
  H   H204      1.0  0.26736  0.07732  0.74763  1.0000
  C   C118      1.0  0.08160  0.97534  0.94257  1.0000
  S   S34       1.0  0.03335  0.31837  0.80243  1.0000
  C   C119      1.0  0.09157  0.01736  0.78108  1.0000
  H   H205      1.0  0.03332  0.25881  0.69030  1.0000
  H   H206      1.0  0.27943  0.15436  0.70108  1.0000
  C   C120      1.0  0.22714  0.05754  0.78805  1.0000
  H   H207      1.0  0.31920  0.14090  0.81093  1.0000
  H   H208      1.0  0.15374  0.99091  0.59598  1.0000
  H   H209      1.0  0.32530  0.16233  0.67096  1.0000
  N   N7        1.0  0.07381  0.24533  0.74724  1.0000
  C   C121      1.0  0.31625  0.06618  0.77986  1.0000
  H   H210      1.0  0.08320  0.41285  0.00692  1.0000
  C   C122      1.0  0.09112  0.32679  0.98532  1.0000
  C   C123      1.0  0.31256  0.05974  0.70732  1.0000
  H   H211      1.0  0.27580  0.14262  0.62459  1.0000
  C   C124      1.0  0.04883  0.27363  0.69657  1.0000
  H   H212      1.0  0.11201  0.25625  0.71853  1.0000
  C   C125      1.0  0.13893  0.09752  0.83447  1.0000
  H   H213      1.0  0.14227  0.11768  0.84144  1.0000
  H   H214      1.0  0.12870  0.08842  0.85976  1.0000
  C   C126      1.0  0.29631  0.14689  0.75791  1.0000
  C   C127      1.0  0.11356  0.21570  0.72671  1.0000
  C   C128      1.0  0.07968  0.99198  0.76886  1.0000
  H   H215      1.0  0.04163  0.31025  0.95562  1.0000
  H   H216      1.0  0.28144  0.16129  0.54012  1.0000
  C   C129      1.0  0.09719  0.24021  0.71927  1.0000
  H   H217      1.0  0.04825  0.22034  0.71222  1.0000
  H   H218      1.0  0.28304  0.41945  0.57476  1.0000
  H   H219      1.0  0.32537  0.16165  0.58646  1.0000
  C   C130      1.0  0.29801  0.15330  0.71850  1.0000
  N   N8        1.0  0.30246  0.05183  0.74706  1.0000
  C   C131      1.0  0.08394  0.24573  0.78893  1.0000
  H   H220      1.0  0.05074  0.00781  0.98653  1.0000
  H   H221      1.0  0.08935  0.22644  0.79899  1.0000
  H   H222      1.0  0.06025  0.20693  0.75615  1.0000
  C   C132      1.0  0.03976  0.29808  0.98180  1.0000
  H   H223      1.0  0.31789  0.39346  0.53175  1.0000
  C   C133      1.0  0.33425  0.40173  0.55066  1.0000
  C   C134      1.0  0.29516  0.96452  0.54384  1.0000
  C   C135      1.0  0.05468  0.96985  0.96435  1.0000
  C   C136      1.0  0.33562  0.21555  0.59406  1.0000
  H   H224      1.0  0.07845  0.34318  0.97598  1.0000
  H   H225      1.0  0.32137  0.22220  0.61713  1.0000
  C   C137      1.0  0.32204  0.09577  0.66050  1.0000
  Fe  Fe18      1.0  0.02042  0.95876  0.84354  1.0000
  H   H226      1.0  0.33661  0.42151  0.54070  1.0000
  H   H227      1.0  0.01670  0.36714  0.96369  1.0000
  H   H228      1.0  0.31492  0.11464  0.65120  1.0000
  H   H229      1.0  0.17399  0.95419  0.65946  1.0000
  H   H230      1.0  0.28278  0.20474  0.52936  1.0000
  H   H231      1.0  0.03465  0.00264  0.94107  1.0000
  H   H232      1.0  0.31998  0.08266  0.63550  1.0000
  H   H233      1.0  0.01741  0.30095  0.71382  1.0000
  C   C138      1.0  0.15796  0.96047  0.63844  1.0000
  H   H234      1.0  0.34727  0.10033  0.82318  1.0000
  H   H235      1.0  0.33536  0.05795  0.70491  1.0000
  H   H236      1.0  0.34869  0.02049  0.77549  1.0000
  H   H237      1.0  0.34768  0.02062  0.72275  1.0000
  H   H238      1.0  0.02965  0.21677  0.87995  1.0000
  H   H239      1.0  0.13866  0.96488  0.65460  1.0000
  C   C139      1.0  0.06380  0.40313  0.01164  1.0000
  H   H240      1.0  0.34426  0.23268  0.58013  1.0000
  H   H241      1.0  0.30873  0.44192  0.59129  1.0000
  H   H242      1.0  0.03888  0.33141  0.01717  1.0000
  H   H243      1.0  0.34288  0.98855  0.57356  1.0000
  H   H244      1.0  0.34971  0.28402  0.73016  1.0000
  H   H245      1.0  0.24619  0.58472  0.41305  1.0000
  H   H246      1.0  0.28162  0.90304  0.20806  1.0000
  S   S35       1.0  0.06528  0.81794  0.26028  1.0000
  H   H247      1.0  0.17938  0.79099  0.43224  1.0000
  H   H248      1.0  0.22681  0.45386  0.15043  1.0000
  H   H249      1.0  0.19974  0.45838  0.21707  1.0000
  Fe  Fe19      1.0  0.24373  0.85412  0.39334  1.0000
  S   S36       1.0  0.24714  0.86428  0.32973  1.0000
  S   S37       1.0  0.22868  0.88136  0.43974  1.0000
  Fe  Fe20      1.0  0.26327  0.80130  0.37876  1.0000
  S   S38       1.0  0.26827  0.80637  0.31434  1.0000
  S   S39       1.0  0.27580  0.76894  0.41657  1.0000
  Fe  Fe21      1.0  0.28763  0.84323  0.33040  1.0000
  C   C140      1.0  0.33832  0.59091  0.34862  1.0000
  Fe  Fe22      1.0  0.22717  0.82678  0.31761  1.0000
  S   S40       1.0  0.19773  0.82232  0.26557  1.0000
  S   S41       1.0  0.28584  0.83660  0.39476  1.0000
  S   S42       1.0  0.22067  0.81822  0.38112  1.0000
  Fe  Fe23      1.0  0.24664  0.64591  0.30948  1.0000
  S   S43       1.0  0.24530  0.67045  0.25631  1.0000
  S   S44       1.0  0.25062  0.65653  0.37223  1.0000
  Fe  Fe24      1.0  0.24157  0.59752  0.26411  1.0000
  S   S45       1.0  0.24025  0.61737  0.20666  1.0000
  S   S46       1.0  0.23359  0.55637  0.27163  1.0000
  Fe  Fe25      1.0  0.27424  0.64149  0.23156  1.0000
  C   C141      1.0  0.03100  0.90635  0.02664  1.0000
  Fe  Fe26      1.0  0.21139  0.64425  0.23647  1.0000
  S   S47       1.0  0.17230  0.65573  0.20479  1.0000
  S   S48       1.0  0.27804  0.61901  0.28628  1.0000
  S   S49       1.0  0.21023  0.62244  0.29209  1.0000
  H   H250      1.0  0.10442  0.81067  0.32216  1.0000
  H   H251      1.0  0.28151  0.90833  0.44120  1.0000
  H   H252      1.0  0.13166  0.60672  0.17882  1.0000
  S   S50       1.0  0.05951  0.64875  0.29803  1.0000
  C   C142      1.0  0.08382  0.61239  0.13663  1.0000
  S   S51       1.0  0.32816  0.48837  0.34305  1.0000
  H   H253      1.0  0.06081  0.76913  0.16465  1.0000
  H   H254      1.0  0.11923  0.69533  0.37734  1.0000
  H   H255      1.0  0.29125  0.61089  0.41719  1.0000
  H   H256      1.0  0.16868  0.71289  0.19374  1.0000
  C   C143      1.0  0.14120  0.65407  0.23129  1.0000
  C   C144      1.0  0.14122  0.65196  0.27184  1.0000
  C   C145      1.0  0.11604  0.65077  0.29224  1.0000
  C   C146      1.0  0.09075  0.65176  0.27215  1.0000
  C   C147      1.0  0.09075  0.65437  0.23164  1.0000
  C   C148      1.0  0.11593  0.65521  0.21129  1.0000
  H   H257      1.0  0.16060  0.65118  0.28742  1.0000
  H   H258      1.0  0.11609  0.64861  0.32358  1.0000
  H   H259      1.0  0.07136  0.65547  0.21599  1.0000
  H   H260      1.0  0.11591  0.65634  0.17991  1.0000
  C   C149      1.0  0.26019  0.53856  0.29301  1.0000
  C   C150      1.0  0.28783  0.54652  0.29206  1.0000
  C   C151      1.0  0.30876  0.53112  0.30768  1.0000
  C   C152      1.0  0.30203  0.50788  0.32433  1.0000
  C   C153      1.0  0.27441  0.49997  0.32511  1.0000
  C   C154      1.0  0.25356  0.51532  0.30962  1.0000
  H   H261      1.0  0.29313  0.56418  0.27845  1.0000
  H   H262      1.0  0.33019  0.53689  0.30606  1.0000
  H   H263      1.0  0.26906  0.48199  0.33765  1.0000
  H   H264      1.0  0.23224  0.50906  0.31039  1.0000
  C   C155      1.0  0.24111  0.87898  0.48823  1.0000
  C   C156      1.0  0.32116  0.88522  0.20033  1.0000
  H   H265      1.0  0.24044  0.53626  0.16719  1.0000
  H   H266      1.0  0.13192  0.87740  0.51274  1.0000
  C   C157      1.0  0.26108  0.86120  0.49883  1.0000
  H   H267      1.0  0.32570  0.69014  0.42531  1.0000
  H   H268      1.0  0.05594  0.53401  0.25695  1.0000
  H   H269      1.0  0.26893  0.84823  0.47734  1.0000
  C   C158      1.0  0.26869  0.73808  0.40253  1.0000
  C   C159      1.0  0.26838  0.73084  0.36341  1.0000
  C   C160      1.0  0.26300  0.70566  0.35348  1.0000
  C   C161      1.0  0.25796  0.68796  0.38281  1.0000
  C   C162      1.0  0.25885  0.69526  0.42185  1.0000
  C   C163      1.0  0.26441  0.72021  0.43168  1.0000
  H   H270      1.0  0.27264  0.74456  0.34102  1.0000
  H   H271      1.0  0.26274  0.70001  0.32329  1.0000
  H   H272      1.0  0.25519  0.68158  0.44460  1.0000
  H   H273      1.0  0.26506  0.72575  0.46201  1.0000
  H   H274      1.0  0.15589  0.81259  0.32569  1.0000
  H   H275      1.0  0.06180  0.63966  0.10098  1.0000
  H   H276      1.0  0.15582  0.67451  0.34690  1.0000
  C   C164      1.0  0.11619  0.81529  0.29634  1.0000
  H   H277      1.0  0.24479  0.85424  0.24563  1.0000
  H   H278      1.0  0.11581  0.49689  0.10496  1.0000
  C   C165      1.0  0.10206  0.82052  0.26133  1.0000
  C   C166      1.0  0.08489  0.68738  0.12552  1.0000
  H   H279      1.0  0.08630  0.73420  0.32987  1.0000
  C   C167      1.0  0.16086  0.82219  0.26524  1.0000
  C   C168      1.0  0.14539  0.81639  0.29846  1.0000
  H   H280      1.0  0.25222  0.87157  0.07915  1.0000
  C   C169      1.0  0.34213  0.74931  0.45171  1.0000
  H   H281      1.0  0.29170  0.86002  0.14168  1.0000
  H   H282      1.0  0.32237  0.68358  0.37408  1.0000
  H   H283      1.0  0.08536  0.75293  0.10881  1.0000
  C   C170      1.0  0.29748  0.92215  0.43224  1.0000
  H   H284      1.0  0.08870  0.76698  0.24737  1.0000
  H   H285      1.0  0.32409  0.59525  0.32399  1.0000
  H   H286      1.0  0.30341  0.48141  0.20093  1.0000
  H   H287      1.0  0.09947  0.67612  0.10765  1.0000
  H   H288      1.0  0.07427  0.67467  0.14637  1.0000
  C   C171      1.0  0.19271  0.72872  0.33703  1.0000
  C   C172      1.0  0.19189  0.75324  0.31259  1.0000
  C   C173      1.0  0.21686  0.75461  0.28531  1.0000
  H   H289      1.0  0.19335  0.71295  0.31580  1.0000
  H   H290      1.0  0.21285  0.72797  0.35250  1.0000
  H   H291      1.0  0.17299  0.75404  0.29429  1.0000
  H   H292      1.0  0.19227  0.77021  0.33132  1.0000
  H   H293      1.0  0.21446  0.77063  0.26492  1.0000
  H   H294      1.0  0.23610  0.75753  0.30232  1.0000
  H   H295      1.0  0.21891  0.73715  0.26785  1.0000
  C   C174      1.0  0.34312  0.65156  0.22747  1.0000
  C   C175      1.0  0.21952  0.53514  0.15380  1.0000
  H   H296      1.0  0.27376  0.77402  0.20766  1.0000
  H   H297      1.0  0.22980  0.56470  0.11281  1.0000
  N   N9        1.0  0.10490  0.57424  0.17363  1.0000
  H   H298      1.0  0.33641  0.90698  0.24976  1.0000
  H   H299      1.0  0.15357  0.50875  0.30875  1.0000
  C   C176      1.0  0.34189  0.66078  0.26560  1.0000
  Fe  Fe27      1.0  0.03365  0.83061  0.21434  1.0000
  C   C177      1.0  0.03822  0.50981  0.21345  1.0000
  C   C178      1.0  0.16175  0.51820  0.28232  1.0000
  H   H300      1.0  0.19484  0.65470  0.41064  1.0000
  C   C179      1.0  0.25963  0.88841  0.13625  1.0000
  H   H301      1.0  0.20939  0.78015  0.45869  1.0000
  H   H302      1.0  0.13677  0.50335  0.14725  1.0000
  H   H303      1.0  0.08865  0.53726  0.18737  1.0000
  H   H304      1.0  0.33778  0.78293  0.41603  1.0000
  H   H305      1.0  0.32214  0.88675  0.16815  1.0000
  H   H306      1.0  0.30643  0.83626  0.19405  1.0000
  H   H307      1.0  0.32972  0.74922  0.20992  1.0000
  C   C180      1.0  0.17477  0.67650  0.36468  1.0000
  C   C181      1.0  0.07955  0.75010  0.23300  1.0000
  H   H308      1.0  0.33378  0.80634  0.28921  1.0000
  H   H309      1.0  0.26005  0.48816  0.16358  1.0000
  Fe  Fe28      1.0  0.02165  0.64364  0.26026  1.0000
  H   H310      1.0  0.31525  0.71162  0.31819  1.0000
  H   H311      1.0  0.10078  0.49472  0.15259  1.0000
  H   H312      1.0  0.17355  0.71004  0.24547  1.0000
  C   C182      1.0  0.28795  0.57366  0.39549  1.0000
  S   S52       1.0  0.04018  0.83114  0.14980  1.0000
  H   H313      1.0  0.08985  0.78627  0.18232  1.0000
  H   H314      1.0  0.29105  0.88337  0.24701  1.0000
  H   H315      1.0  0.13029  0.76574  0.20747  1.0000
  C   C183      1.0  0.09128  0.58167  0.21161  1.0000
  H   H316      1.0  0.16735  0.51558  0.20000  1.0000
  H   H317      1.0  0.17582  0.76689  0.46910  1.0000
  H   H318      1.0  0.17755  0.74033  0.22219  1.0000
  C   C184      1.0  0.10415  0.57032  0.24928  1.0000
  H   H319      1.0  0.19320  0.45637  0.42300  1.0000
  C   C185      1.0  0.08916  0.57973  0.28562  1.0000
  S   S53       1.0  0.03018  0.89639  0.10553  1.0000
  H   H320      1.0  0.15737  0.65249  0.40997  1.0000
  H   H321      1.0  0.07273  0.70792  0.35694  1.0000
  H   H322      1.0  0.19545  0.70212  0.40261  1.0000
  H   H323      1.0  0.06893  0.57637  0.21126  1.0000
  H   H324      1.0  0.09171  0.60236  0.21557  1.0000
  H   H325      1.0  0.17704  0.53263  0.29163  1.0000
  C   C186      1.0  0.18607  0.51099  0.21753  1.0000
  H   H326      1.0  0.19536  0.52940  0.22546  1.0000
  C   C187      1.0  0.12326  0.74664  0.19830  1.0000
  H   H327      1.0  0.04016  0.73296  0.28877  1.0000
  H   H328      1.0  0.12626  0.57557  0.25250  1.0000
  H   H329      1.0  0.08453  0.73391  0.25230  1.0000
  H   H330      1.0  0.19947  0.87739  0.26563  1.0000
  C   C188      1.0  0.19458  0.75399  0.41492  1.0000
  N   N10       1.0  0.09219  0.74631  0.19317  1.0000
  H   H331      1.0  0.09257  0.60017  0.28936  1.0000
  H   H332      1.0  0.06654  0.57611  0.28370  1.0000
  C   C189      1.0  0.17572  0.59971  0.13496  1.0000
  H   H333      1.0  0.20546  0.54796  0.16981  1.0000
  C   C190      1.0  0.07494  0.85187  0.04696  1.0000
  H   H334      1.0  0.14428  0.52745  0.26698  1.0000
  H   H335      1.0  0.21012  0.76146  0.39415  1.0000
  H   H336      1.0  0.06517  0.79385  0.09949  1.0000
  C   C191      1.0  0.28690  0.79107  0.21049  1.0000
  S   S54       1.0  0.31321  0.65001  0.19819  1.0000
  H   H337      1.0  0.23671  0.53350  0.09513  1.0000
  H   H338      1.0  0.19404  0.46054  0.12788  1.0000
  C   C192      1.0  0.22193  0.54508  0.11218  1.0000
  H   H339      1.0  0.12353  0.70958  0.22790  1.0000
  C   C193      1.0  0.26932  0.81453  0.20341  1.0000
  C   C194      1.0  0.11754  0.82641  0.22814  1.0000
  C   C195      1.0  0.14677  0.82693  0.23003  1.0000
  H   H340      1.0  0.06912  0.69583  0.10587  1.0000
  C   C196      1.0  0.13324  0.58622  0.17275  1.0000
  H   H341      1.0  0.10701  0.83048  0.20102  1.0000
  H   H342      1.0  0.15853  0.83135  0.20413  1.0000
  H   H343      1.0  0.04132  0.77143  0.22211  1.0000
  C   C197      1.0  0.27110  0.86405  0.15480  1.0000
  S   S55       1.0  0.06518  0.48786  0.21690  1.0000
  H   H344      1.0  0.04204  0.61199  0.11207  1.0000
  H   H345      1.0  0.13721  0.74196  0.33014  1.0000
  H   H346      1.0  0.28906  0.51220  0.20922  1.0000
  H   H347      1.0  0.33493  0.64532  0.43901  1.0000
  H   H348      1.0  0.06524  0.57545  0.14441  1.0000
  H   H349      1.0  0.10257  0.54954  0.24922  1.0000
  H   H350      1.0  0.19303  0.90744  0.24356  1.0000
  C   C198      1.0  0.03423  0.47522  0.32253  1.0000
  H   H351      1.0  0.32220  0.66652  0.27768  1.0000
  H   H352      1.0  0.11272  0.72741  0.39099  1.0000
  H   H353      1.0  0.25148  0.81378  0.22370  1.0000
  C   C199      1.0  0.34137  0.73465  0.19365  1.0000
  H   H354      1.0  0.14484  0.71054  0.31724  1.0000
  N   N11       1.0  0.27295  0.86335  0.19868  1.0000
  H   H355      1.0  0.10407  0.62085  0.12869  1.0000
  H   H356      1.0  0.27039  0.90539  0.14715  1.0000
  H   H357      1.0  0.23953  0.51510  0.22291  1.0000
  H   H358      1.0  0.20140  0.54495  0.09748  1.0000
  C   C200      1.0  0.08647  0.58351  0.14102  1.0000
  H   H359      1.0  0.15789  0.56295  0.13361  1.0000
  C   C201      1.0  0.28576  0.49175  0.21379  1.0000
  N   N12       1.0  0.16930  0.72499  0.36539  1.0000
  C   C202      1.0  0.14252  0.72330  0.34275  1.0000
  H   H360      1.0  0.15948  0.76389  0.37852  1.0000
  H   H361      1.0  0.19299  0.67575  0.34502  1.0000
  C   C203      1.0  0.26307  0.88803  0.09199  1.0000
  C   C204      1.0  0.10689  0.54583  0.17253  1.0000
  C   C205      1.0  0.17546  0.49881  0.25585  1.0000
  C   C206      1.0  0.11577  0.50535  0.13453  1.0000
  H   H362      1.0  0.14647  0.57878  0.19663  1.0000
  C   C207      1.0  0.16733  0.74672  0.39349  1.0000
  C   C208      1.0  0.16556  0.72253  0.22209  1.0000
  H   H363      1.0  0.06135  0.72514  0.16153  1.0000
  Fe  Fe29      1.0  0.31522  0.44814  0.33435  1.0000
  C   C209      1.0  0.17475  0.70130  0.38836  1.0000
  C   C210      1.0  0.18934  0.77424  0.44556  1.0000
  H   H364      1.0  0.15967  0.69946  0.41271  1.0000
  C   C211      1.0  0.20841  0.50775  0.15419  1.0000
  H   H365      1.0  0.29606  0.79132  0.24018  1.0000
  H   H366      1.0  0.04780  0.76616  0.29455  1.0000
  H   H367      1.0  0.12179  0.54224  0.11138  1.0000
  H   H368      1.0  0.07687  0.70808  0.19980  1.0000
  H   H369      1.0  0.20391  0.73773  0.43021  1.0000
  H   H370      1.0  0.17765  0.63627  0.37383  1.0000
  H   H371      1.0  0.09369  0.70231  0.31459  1.0000
  H   H372      1.0  0.30389  0.78995  0.18878  1.0000
  H   H373      1.0  0.18772  0.50772  0.13975  1.0000
  H   H374      1.0  0.19228  0.48969  0.27267  1.0000
  H   H375      1.0  0.21106  0.46614  0.37938  1.0000
  C   C212      1.0  0.20914  0.45088  0.40132  1.0000
  C   C213      1.0  0.06306  0.61899  0.10449  1.0000
  H   H376      1.0  0.09743  0.57000  0.31179  1.0000
  C   C214      1.0  0.10075  0.70792  0.14719  1.0000
  C   C215      1.0  0.32488  0.65044  0.41102  1.0000
  H   H377      1.0  0.18897  0.59603  0.16085  1.0000
  C   C216      1.0  0.11668  0.71471  0.36602  1.0000
  C   C217      1.0  0.17624  0.65366  0.39158  1.0000
  C   C218      1.0  0.09085  0.71484  0.34015  1.0000
  H   H378      1.0  0.15174  0.74255  0.41643  1.0000
  N   N13       1.0  0.20625  0.49557  0.19379  1.0000
  C   C219      1.0  0.23359  0.49561  0.21524  1.0000
  H   H379      1.0  0.22187  0.49681  0.13439  1.0000
  H   H380      1.0  0.23331  0.90344  0.20157  1.0000
  C   C220      1.0  0.10740  0.53298  0.13184  1.0000
  H   H381      1.0  0.06190  0.85095  0.07352  1.0000
  C   C221      1.0  0.08155  0.72191  0.17629  1.0000
  H   H382      1.0  0.11004  0.72041  0.12513  1.0000
  H   H383      1.0  0.33671  0.57033  0.35245  1.0000
  C   C222      1.0  0.25863  0.48326  0.19480  1.0000
  H   H384      1.0  0.33720  0.55568  0.41696  1.0000
  C   C223      1.0  0.33231  0.76177  0.48936  1.0000
  H   H385      1.0  0.32319  0.63847  0.35059  1.0000
  H   H386      1.0  0.29227  0.83911  0.24157  1.0000
  C   C224      1.0  0.08790  0.79264  0.10439  1.0000
  H   H387      1.0  0.26116  0.81331  0.17332  1.0000
  H   H388      1.0  0.32397  0.73963  0.43899  1.0000
  H   H389      1.0  0.15956  0.48441  0.24892  1.0000
  H   H390      1.0  0.12527  0.53940  0.18943  1.0000
  H   H391      1.0  0.05428  0.75318  0.03129  1.0000
  C   C225      1.0  0.28662  0.83883  0.21009  1.0000
  H   H392      1.0  0.03776  0.48546  0.35027  1.0000
  H   H393      1.0  0.04147  0.48698  0.29784  1.0000
  H   H394      1.0  0.11823  0.69903  0.16297  1.0000
  H   H395      1.0  0.13803  0.58694  0.10864  1.0000
  H   H396      1.0  0.06952  0.61077  0.07620  1.0000
  H   H397      1.0  0.23173  0.48585  0.24375  1.0000
  H   H398      1.0  0.25723  0.46251  0.19790  1.0000
  C   C226      1.0  0.33271  0.67757  0.40147  1.0000
  H   H399      1.0  0.17175  0.46960  0.18829  1.0000
  H   H400      1.0  0.29659  0.56070  0.37359  1.0000
  C   C227      1.0  0.03921  0.53154  0.23637  1.0000
  H   H401      1.0  0.09368  0.57684  0.11223  1.0000
  H   H402      1.0  0.09517  0.80929  0.12105  1.0000
  H   H403      1.0  0.33638  0.45830  0.16692  1.0000
  C   C228      1.0  0.19482  0.46921  0.19027  1.0000
  H   H404      1.0  0.04680  0.45780  0.32337  1.0000
  H   H405      1.0  0.31396  0.74167  0.29326  1.0000
  H   H406      1.0  0.07652  0.62133  0.16375  1.0000
  H   H407      1.0  0.29453  0.91504  0.51147  1.0000
  C   C229      1.0  0.29067  0.88439  0.21460  1.0000
  H   H408      1.0  0.13406  0.74319  0.17039  1.0000
  C   C230      1.0  0.09504  0.76838  0.12575  1.0000
  C   C231      1.0  0.15027  0.58259  0.13512  1.0000
  H   H409      1.0  0.11788  0.76657  0.12499  1.0000
  C   C232      1.0  0.24443  0.86407  0.21700  1.0000
  H   H410      1.0  0.08630  0.53365  0.11875  1.0000
  H   H411      1.0  0.32666  0.92566  0.20777  1.0000
  C   C233      1.0  0.08373  0.76830  0.16795  1.0000
  C   C234      1.0  0.13482  0.72773  0.22866  1.0000
  H   H412      1.0  0.13240  0.73574  0.25828  1.0000
  H   H413      1.0  0.09835  0.79271  0.07564  1.0000
  H   H414      1.0  0.31699  0.91199  0.42549  1.0000
  H   H415      1.0  0.33269  0.86824  0.20966  1.0000
  H   H416      1.0  0.24335  0.89892  0.25123  1.0000
  C   C235      1.0  0.03699  0.75199  0.27622  1.0000
  H   H417      1.0  0.18814  0.59631  0.10830  1.0000
  S   S56       1.0  0.32600  0.86013  0.30239  1.0000
  H   H418      1.0  0.16934  0.61977  0.13515  1.0000
  C   C236      1.0  0.33647  0.90784  0.21740  1.0000
  H   H419      1.0  0.25401  0.90538  0.07926  1.0000
  C   C237      1.0  0.20154  0.88837  0.23828  1.0000
  H   H420      1.0  0.22928  0.85342  0.19884  1.0000
  H   H421      1.0  0.33410  0.71606  0.27393  1.0000
  H   H422      1.0  0.21558  0.90936  0.50869  1.0000
  H   H423      1.0  0.28538  0.48796  0.24553  1.0000
  H   H424      1.0  0.09681  0.84846  0.05552  1.0000
  H   H425      1.0  0.18906  0.87923  0.21503  1.0000
  H   H426      1.0  0.29015  0.93167  0.40533  1.0000
  C   C238      1.0  0.04760  0.75300  0.23433  1.0000
  H   H427      1.0  0.23709  0.88994  0.14210  1.0000
  C   C239      1.0  0.23197  0.89032  0.22639  1.0000
  H   H428      1.0  0.25002  0.57837  0.36151  1.0000
  H   H429      1.0  0.25738  0.84881  0.14400  1.0000
  H   H430      1.0  0.33842  0.73792  0.16195  1.0000
  S   S57       1.0  0.02367  0.62287  0.20355  1.0000
  H   H431      1.0  0.03720  0.73788  0.21769  1.0000
  H   H432      1.0  0.02367  0.83049  0.03623  1.0000
  H   H433      1.0  0.28697  0.60969  0.36611  1.0000
  C   C240      1.0  0.20414  0.45332  0.15478  1.0000
  H   H434      1.0  0.33280  0.71589  0.20134  1.0000
  H   H435      1.0  0.28538  0.88730  0.08406  1.0000
  C   C241      1.0  0.31109  0.92857  0.50294  1.0000
  C   C242      1.0  0.33397  0.63244  0.37785  1.0000
  Fe  Fe30      1.0  0.05162  0.44779  0.20720  1.0000
  H   H436      1.0  0.16809  0.87801  0.49950  1.0000
  H   H437      1.0  0.32772  0.76093  0.35650  1.0000
  H   H438      1.0  0.33397  0.73180  0.37983  1.0000
  C   C243      1.0  0.32734  0.72545  0.30110  1.0000
  H   H439      1.0  0.24927  0.55279  0.39574  1.0000
  H   H440      1.0  0.30213  0.65011  0.41511  1.0000
  H   H441      1.0  0.01896  0.56635  0.25149  1.0000
  C   C244      1.0  0.25642  0.57242  0.39125  1.0000
  C   C245      1.0  0.29853  0.60096  0.39067  1.0000
  C   C246      1.0  0.34427  0.74684  0.36286  1.0000
  H   H442      1.0  0.32271  0.74746  0.50863  1.0000
  C   C247      1.0  0.23097  0.89553  0.51670  1.0000
  H   H443      1.0  0.22948  0.44872  0.41619  1.0000
  H   H444      1.0  0.31651  0.77640  0.48296  1.0000
  N   N14       1.0  0.32931  0.60469  0.38488  1.0000
  H   H445      1.0  0.29325  0.56666  0.42504  1.0000
  H   H446      1.0  0.07011  0.81365  0.03003  1.0000
  H   H447      1.0  0.05160  0.91368  0.03170  1.0000
  H   H448      1.0  0.32924  0.91656  0.49573  1.0000
  H   H449      1.0  0.33330  0.60123  0.44739  1.0000
  H   H450      1.0  0.07352  0.87099  0.03429  1.0000
  C   C248      1.0  0.34539  0.59677  0.42066  1.0000
  C   C249      1.0  0.01831  0.54974  0.23338  1.0000
  H   H451      1.0  0.34977  0.56492  0.48599  1.0000
  H   H452      1.0  0.16994  0.44496  0.27106  1.0000
  C   C250      1.0  0.30222  0.94154  0.46441  1.0000
  S   S58       1.0  0.32328  0.91880  0.78790  1.0000
  H   H453      1.0  0.06059  0.81621  0.94053  1.0000
  H   H454      1.0  0.15803  0.86488  0.65419  1.0000
  N   N15       1.0  0.14647  0.91387  0.62179  1.0000
  C   C251      1.0  0.12247  0.91577  0.64983  1.0000
  Fe  Fe31      1.0  0.04277  0.90831  0.81697  1.0000
  S   S59       1.0  0.08031  0.88553  0.79792  1.0000
  S   S60       1.0  0.04118  0.92711  0.87552  1.0000
  Fe  Fe32      1.0  0.26862  0.90497  0.66012  1.0000
  S   S61       1.0  0.25771  0.89693  0.72302  1.0000
  S   S62       1.0  0.27412  0.87475  0.61394  1.0000
  H   H455      1.0  0.12603  0.88375  0.68937  1.0000
  C   C252      1.0  0.17208  0.90383  0.64192  1.0000
  Fe  Fe33      1.0  0.29304  0.92336  0.73732  1.0000
  S   S63       1.0  0.23948  0.93749  0.65482  1.0000
  Fe  Fe34      1.0  0.23101  0.93163  0.71865  1.0000
  C   C253      1.0  0.15858  0.89846  0.55245  1.0000
  C   C254      1.0  0.34658  0.91092  0.57044  1.0000
  H   H456      1.0  0.02242  0.78849  0.02114  1.0000
  H   H457      1.0  0.05465  0.86998  0.87365  1.0000
  H   H458      1.0  0.04920  0.83743  0.86203  1.0000
  C   C255      1.0  0.11084  0.90143  0.78339  1.0000
  C   C256      1.0  0.13462  0.88770  0.77309  1.0000
  C   C257      1.0  0.15878  0.90011  0.76017  1.0000
  C   C258      1.0  0.15916  0.92632  0.75717  1.0000
  H   H459      1.0  0.02967  0.80838  0.91579  1.0000
  C   C259      1.0  0.11145  0.92758  0.78088  1.0000
  H   H460      1.0  0.13434  0.86743  0.77511  1.0000
  H   H461      1.0  0.17706  0.88945  0.75284  1.0000
  C   C260      1.0  0.06575  0.83225  0.01717  1.0000
  H   H462      1.0  0.07794  0.84678  0.89296  1.0000
  C   C261      1.0  0.26089  0.87674  0.56588  1.0000
  H   H463      1.0  0.23250  0.90694  0.57718  1.0000
  H   H464      1.0  0.22042  0.87651  0.65440  1.0000
  H   H465      1.0  0.33642  0.85914  0.78963  1.0000
  C   C262      1.0  0.03444  0.83432  0.00820  1.0000
  H   H466      1.0  0.07221  0.73977  0.99026  1.0000
  C   C263      1.0  0.13790  0.89825  0.58708  1.0000
  H   H467      1.0  0.02954  0.85423  0.00166  1.0000
  C   C264      1.0  0.08356  0.89529  0.68783  1.0000
  H   H468      1.0  0.10763  0.87629  0.64500  1.0000
  H   H469      1.0  0.17981  0.86774  0.61232  1.0000
  H   H470      1.0  0.13432  0.87840  0.59541  1.0000
  H   H471      1.0  0.17292  0.91055  0.67263  1.0000
  C   C265      1.0  0.17618  0.87488  0.64222  1.0000
  H   H472      1.0  0.11754  0.90484  0.57557  1.0000
  H   H473      1.0  0.19893  0.87331  0.69714  1.0000
  H   H474      1.0  0.08529  0.91072  0.70944  1.0000
  C   C266      1.0  0.24068  0.89433  0.55543  1.0000
  H   H475      1.0  0.07724  0.87795  0.70353  1.0000
  S   S64       1.0  0.30569  0.92879  0.67516  1.0000
  H   H476      1.0  0.06714  0.90014  0.66641  1.0000
  C   C267      1.0  0.20151  0.86752  0.66635  1.0000
  H   H477      1.0  0.03222  0.91295  0.96439  1.0000
  H   H478      1.0  0.07857  0.83503  0.99079  1.0000
  C   C268      1.0  0.05175  0.77520  0.97776  1.0000
  H   H479      1.0  0.20441  0.84684  0.66543  1.0000
  H   H480      1.0  0.19109  0.91153  0.62808  1.0000
  C   C269      1.0  0.11123  0.89095  0.66725  1.0000
  H   H481      1.0  0.12833  0.92720  0.67574  1.0000
  C   C270      1.0  0.01998  0.90619  0.98854  1.0000
  C   C271      1.0  0.05328  0.75009  0.99929  1.0000
  H   H482      1.0  0.33641  0.83933  0.83218  1.0000
  H   H483      1.0  0.17113  0.94007  0.58794  1.0000
  H   H484      1.0  0.04444  0.86245  0.94250  1.0000
  S   S65       1.0  0.02543  0.94134  0.78456  1.0000
  H   H485      1.0  0.09329  0.93820  0.78889  1.0000
  C   C272      1.0  0.02522  0.79005  0.98902  1.0000
  H   H486      1.0  0.18028  0.89723  0.56287  1.0000
  N   N16       1.0  0.02351  0.81733  0.97652  1.0000
  H   H487      1.0  0.33358  0.88941  0.62133  1.0000
  H   H488      1.0  0.34116  0.89543  0.55014  1.0000
  C   C273      1.0  0.03736  0.84825  0.92108  1.0000
  H   H489      1.0  0.15689  0.85842  0.53921  1.0000
  H   H490      1.0  0.03494  0.73830  0.99227  1.0000
  C   C274      1.0  0.27090  0.86012  0.53746  1.0000
  H   H491      1.0  0.10487  0.92580  0.63558  1.0000
  C   C275      1.0  0.05596  0.85057  0.88531  1.0000
  H   H492      1.0  0.15638  0.91621  0.53567  1.0000
  H   H493      1.0  0.05150  0.77115  0.94599  1.0000
  H   H494      1.0  0.28635  0.84629  0.54535  1.0000
  C   C276      1.0  0.13543  0.93994  0.76771  1.0000
  H   H495      1.0  0.30355  0.91898  0.57890  1.0000
  C   C277      1.0  0.03839  0.82128  0.93828  1.0000
  H   H496      1.0  0.07100  0.78564  0.98426  1.0000
  C   C278      1.0  0.32243  0.93019  0.57239  1.0000
  H   H497      1.0  0.26565  0.94177  0.57711  1.0000
  S   S66       1.0  0.18816  0.94324  0.73963  1.0000
  H   H498      1.0  0.32533  0.94245  0.59831  1.0000
  H   H499      1.0  0.25957  0.94133  0.52531  1.0000
  C   C279      1.0  0.15249  0.94011  0.60703  1.0000
  C   C280      1.0  0.34941  0.84656  0.80798  1.0000
  C   C281      1.0  0.15341  0.87670  0.52435  1.0000
  C   C282      1.0  0.58321  0.37418  0.33273  1.0000
  H   H500      1.0  0.45704  0.34584  0.10431  1.0000
  Fe  Fe35      1.0  0.54390  0.38903  0.13703  1.0000
  S   S67       1.0  0.54770  0.37176  0.19646  1.0000
  S   S68       1.0  0.53089  0.36235  0.08889  1.0000
  Fe  Fe36      1.0  0.52334  0.40481  0.21773  1.0000
  S   S69       1.0  0.49170  0.40223  0.26633  1.0000
  H   H501      1.0  0.53686  0.40347  0.36233  1.0000
  C   C283      1.0  0.39796  0.39713  0.24260  1.0000
  C   C284      1.0  0.40841  0.39582  0.28056  1.0000
  C   C285      1.0  0.43716  0.39717  0.28729  1.0000
  C   C286      1.0  0.45578  0.39979  0.25618  1.0000
  C   C287      1.0  0.44541  0.40078  0.21809  1.0000
  C   C288      1.0  0.41660  0.39941  0.21135  1.0000
  H   H502      1.0  0.39436  0.39368  0.30480  1.0000
  H   H503      1.0  0.64210  0.44210  0.14509  1.0000
  H   H504      1.0  0.45957  0.40258  0.19390  1.0000
  H   H505      1.0  0.44606  0.36297  0.14675  1.0000
  C   C289      1.0  0.55841  0.38654  0.02916  1.0000
  H   H506      1.0  0.66371  0.41842  0.12311  1.0000
  Fe  Fe37      1.0  0.58545  0.39607  0.20333  1.0000
  S   S70       1.0  0.62315  0.37828  0.23163  1.0000
  S   S71       1.0  0.58350  0.41108  0.14208  1.0000
  H   H507      1.0  0.44499  0.39624  0.31680  1.0000
  C   C290      1.0  0.66800  0.43624  0.27602  1.0000
  C   C291      1.0  0.64897  0.39631  0.25485  1.0000
  C   C292      1.0  0.67193  0.38409  0.27144  1.0000
  H   H508      1.0  0.56563  0.39979  0.05080  1.0000
  H   H509      1.0  0.40401  0.44050  0.35557  1.0000
  C   C293      1.0  0.56120  0.34197  0.28774  1.0000
  C   C294      1.0  0.64706  0.42246  0.25712  1.0000
  H   H510      1.0  0.67348  0.36383  0.26976  1.0000
  C   C295      1.0  0.52557  0.41282  0.43623  1.0000
  H   H511      1.0  0.47539  0.37111  0.04640  1.0000
  H   H512      1.0  0.38684  0.37623  0.49677  1.0000
  H   H513      1.0  0.65909  0.38908  0.41190  1.0000
  H   H514      1.0  0.63911  0.38240  0.34557  1.0000
  C   C296      1.0  0.37843  0.40739  0.43894  1.0000
  C   C297      1.0  0.44564  0.36276  0.11439  1.0000
  C   C298      1.0  0.54182  0.36626  0.04033  1.0000
  S   S72       1.0  0.56156  0.42779  0.22941  1.0000
  C   C299      1.0  0.46046  0.38646  0.05342  1.0000
  H   H515      1.0  0.57970  0.34189  0.26852  1.0000
  H   H516      1.0  0.63579  0.41592  0.33953  1.0000
  H   H517      1.0  0.60588  0.41639  0.40095  1.0000
  C   C300      1.0  0.60653  0.39964  0.38184  1.0000
  C   C301      1.0  0.55769  0.36766  0.30694  1.0000
  H   H518      1.0  0.56341  0.32702  0.31010  1.0000
  N   N17       1.0  0.58129  0.39832  0.35580  1.0000
  C   C302      1.0  0.58006  0.41980  0.32716  1.0000
  H   H519      1.0  0.48067  0.38711  0.11077  1.0000
  H   H520      1.0  0.58694  0.35800  0.35270  1.0000
  H   H521      1.0  0.36640  0.16408  0.47686  1.0000
  Fe  Fe38      1.0  0.55627  0.44111  0.16811  1.0000
  C   C303      1.0  0.63498  0.40035  0.36089  1.0000
  H   H522      1.0  0.42370  0.36162  0.10467  1.0000
  H   H523      1.0  0.56001  0.41941  0.31114  1.0000
  H   H524      1.0  0.56229  0.96298  0.04298  1.0000
  C   C304      1.0  0.45935  0.38657  0.09874  1.0000
  S   S73       1.0  0.51640  0.42040  0.15793  1.0000
  H   H525      1.0  0.50878  0.40993  0.06235  1.0000
  H   H526      1.0  0.54265  0.33768  0.26970  1.0000
  H   H527      1.0  0.55029  0.37738  0.38826  1.0000
  H   H528      1.0  0.40871  0.40021  0.18187  1.0000
  H   H529      1.0  0.55516  0.38173  0.28340  1.0000
  H   H530      1.0  0.53820  0.36707  0.32398  1.0000
  H   H531      1.0  0.56831  0.40211  0.44064  1.0000
  H   H532      1.0  0.44822  0.40287  0.11085  1.0000
  H   H533      1.0  0.47641  0.16145  0.05028  1.0000
  H   H534      1.0  0.67290  0.96106  0.49556  1.0000
  C   C305      1.0  0.55504  0.39719  0.37996  1.0000
  C   C306      1.0  0.65857  0.42800  0.15090  1.0000
  H   H535      1.0  0.60121  0.37465  0.31253  1.0000
  H   H536      1.0  0.62954  0.43204  0.24420  1.0000
  H   H537      1.0  0.60674  0.38321  0.40201  1.0000
  H   H538      1.0  0.51737  0.39355  0.44099  1.0000
  H   H539      1.0  0.41748  0.42268  0.07650  1.0000
  H   H540      1.0  0.67877  0.40440  0.37423  1.0000
  H   H541      1.0  0.65645  0.42279  0.40484  1.0000
  C   C307      1.0  0.65865  0.40439  0.38991  1.0000
  H   H542      1.0  0.65029  0.41393  0.17173  1.0000
  H   H543      1.0  0.36788  0.39223  0.42228  1.0000
  H   H544      1.0  0.35999  0.94789  0.51326  1.0000
  H   H545      1.0  0.35784  0.43057  0.16928  1.0000
  C   C308      1.0  0.36535  0.41022  0.47919  1.0000
  H   H546      1.0  0.59622  0.41749  0.30431  1.0000
  H   H547      1.0  0.40083  0.40294  0.44152  1.0000
  C   C309      1.0  0.36660  0.38529  0.50256  1.0000
  H   H548      1.0  0.37601  0.42567  0.49488  1.0000
  H   H549      1.0  0.48409  0.42883  0.08591  1.0000
  H   H550      1.0  0.37617  0.42524  0.42246  1.0000
  H   H551      1.0  0.50981  0.14797  0.03967  1.0000
  H   H552      1.0  0.51138  0.42317  0.41638  1.0000
  C   C310      1.0  0.55477  0.41178  0.41910  1.0000
  S   S74       1.0  0.36183  0.39627  0.23316  1.0000
  C   C311      1.0  0.49159  0.42338  0.05669  1.0000
  C   C312      1.0  0.49174  0.15794  0.02682  1.0000
  H   H553      1.0  0.67663  0.04095  0.43917  1.0000
  H   H554      1.0  0.68067  0.00444  0.48328  1.0000
  H   H555      1.0  0.35481  0.19294  0.45402  1.0000
  H   H556      1.0  0.43997  0.38008  0.04213  1.0000
  C   C313      1.0  0.44466  0.42754  0.02614  1.0000
  N   N18       1.0  0.46917  0.41052  0.03331  1.0000
  C   C314      1.0  0.42954  0.43794  0.06245  1.0000
  H   H557      1.0  0.52608  0.42274  0.46468  1.0000
  H   H558      1.0  0.56230  0.43128  0.41599  1.0000
  H   H559      1.0  0.35110  0.37243  0.48893  1.0000
  Fe  Fe39      1.0  0.41852  0.14968  0.73607  1.0000
  S   S75       1.0  0.38065  0.16091  0.70125  1.0000
  S   S76       1.0  0.41653  0.13666  0.79801  1.0000
  Fe  Fe40      1.0  0.49878  0.34080  0.80956  1.0000
  S   S77       1.0  0.45164  0.34332  0.81034  1.0000
  S   S78       1.0  0.51456  0.32412  0.86597  1.0000
  C   C315      1.0  0.39082  0.26824  0.72050  1.0000
  H   H560      1.0  0.51750  0.02561  0.76203  1.0000
  H   H561      1.0  0.65938  0.04062  0.78181  1.0000
  C   C316      1.0  0.42802  0.34873  0.77167  1.0000
  C   C317      1.0  0.39947  0.34762  0.77959  1.0000
  C   C318      1.0  0.37977  0.35154  0.74993  1.0000
  H   H562      1.0  0.39248  0.34397  0.80896  1.0000
  H   H563      1.0  0.40620  0.26878  0.69657  1.0000
  C   C319      1.0  0.52775  0.21754  0.82061  1.0000
  C   C320      1.0  0.50552  0.20101  0.82624  1.0000
  H   H564      1.0  0.54405  0.21263  0.80052  1.0000
  H   H565      1.0  0.50475  0.18353  0.81028  1.0000
  H   H566      1.0  0.51588  0.07100  0.75362  1.0000
  C   C321      1.0  0.64040  0.36917  0.92686  1.0000
  S   S79       1.0  0.52304  0.95507  0.80917  1.0000
  H   H567      1.0  0.51959  0.33352  0.02047  1.0000
  H   H568      1.0  0.47114  0.12434  0.00794  1.0000
  C   C322      1.0  0.66978  0.41192  0.62662  1.0000
  H   H569      1.0  0.65111  0.28362  0.96145  1.0000
  H   H570      1.0  0.36456  0.14924  0.78098  1.0000
  H   H571      1.0  0.41338  0.30100  0.89950  1.0000
  H   H572      1.0  0.45414  0.08191  0.89753  1.0000
  C   C323      1.0  0.48797  0.06063  0.83179  1.0000
  C   C324      1.0  0.50710  0.04643  0.85349  1.0000
  H   H573      1.0  0.49252  0.07983  0.82432  1.0000
  H   H574      1.0  0.52635  0.05483  0.86309  1.0000
  H   H575      1.0  0.37593  0.00450  0.52360  1.0000
  C   C325      1.0  0.53945  0.35254  0.97256  1.0000
  H   H576      1.0  0.58407  0.96008  0.70220  1.0000
  H   H577      1.0  0.53191  0.33948  0.95088  1.0000
  S   S80       1.0  0.52490  0.00342  0.88991  1.0000
  Fe  Fe41      1.0  0.44677  0.10727  0.77954  1.0000
  S   S81       1.0  0.44631  0.11833  0.71659  1.0000
  S   S82       1.0  0.43745  0.06728  0.79534  1.0000
  Fe  Fe42      1.0  0.45349  0.16117  0.80711  1.0000
  S   S83       1.0  0.45373  0.17653  0.74636  1.0000
  S   S84       1.0  0.45642  0.18664  0.85895  1.0000
  Fe  Fe43      1.0  0.48149  0.14372  0.73335  1.0000
  S   S85       1.0  0.51971  0.14829  0.69631  1.0000
  S   S86       1.0  0.48381  0.13051  0.79524  1.0000
  Fe  Fe44      1.0  0.54685  0.35438  0.86334  1.0000
  S   S87       1.0  0.52967  0.37272  0.80936  1.0000
  S   S88       1.0  0.56409  0.37846  0.91207  1.0000
  Fe  Fe45      1.0  0.54307  0.30188  0.82783  1.0000
  S   S89       1.0  0.52516  0.31596  0.77174  1.0000
  S   S90       1.0  0.55596  0.26135  0.83138  1.0000
  Fe  Fe46      1.0  0.55777  0.34621  0.77661  1.0000
  S   S91       1.0  0.58847  0.35298  0.72761  1.0000
  S   S92       1.0  0.57685  0.33052  0.83038  1.0000
  C   C326      1.0  0.62385  0.35406  0.74151  1.0000
  H   H578      1.0  0.61701  0.27619  0.91978  1.0000
  C   C327      1.0  0.42883  0.29132  0.88089  1.0000
  C   C328      1.0  0.57164  0.00858  0.77154  1.0000
  C   C329      1.0  0.66001  0.36609  0.78728  1.0000
  C   C330      1.0  0.63179  0.36418  0.77742  1.0000
  H   H579      1.0  0.63414  0.40900  0.93706  1.0000
  H   H580      1.0  0.61617  0.37123  0.79713  1.0000
  C   C331      1.0  0.48447  0.20711  0.85248  1.0000
  C   C332      1.0  0.48553  0.22989  0.87279  1.0000
  C   C333      1.0  0.50720  0.24694  0.86592  1.0000
  C   C334      1.0  0.52841  0.24066  0.83998  1.0000
  H   H581      1.0  0.46926  0.23461  0.89315  1.0000
  H   H582      1.0  0.50774  0.26474  0.88110  1.0000
  C   C335      1.0  0.54900  0.13118  0.71154  1.0000
  C   C336      1.0  0.57380  0.13315  0.69067  1.0000
  C   C337      1.0  0.59770  0.12067  0.70380  1.0000
  C   C338      1.0  0.59692  0.10632  0.73793  1.0000
  C   C339      1.0  0.57190  0.10359  0.75788  1.0000
  C   C340      1.0  0.54807  0.11597  0.74465  1.0000
  H   H583      1.0  0.57459  0.14441  0.66447  1.0000
  H   H584      1.0  0.38084  0.09128  0.80519  1.0000
  H   H585      1.0  0.57102  0.09231  0.78405  1.0000
  H   H586      1.0  0.52904  0.11366  0.76016  1.0000
  C   C341      1.0  0.50147  0.02123  0.86224  1.0000
  C   C342      1.0  0.47695  0.01024  0.84884  1.0000
  C   C343      1.0  0.45761  0.02455  0.82805  1.0000
  C   C344      1.0  0.46292  0.04980  0.81979  1.0000
  H   H587      1.0  0.47252  0.99079  0.85513  1.0000
  H   H588      1.0  0.43842  0.01599  0.81844  1.0000
  C   C345      1.0  0.55573  0.37301  0.96130  1.0000
  C   C346      1.0  0.55055  0.98729  0.71502  1.0000
  H   H589      1.0  0.36907  0.31844  0.60694  1.0000
  H   H590      1.0  0.57686  0.01514  0.85089  1.0000
  N   N19       1.0  0.49043  0.11877  0.92974  1.0000
  C   C347      1.0  0.45954  0.11995  0.92259  1.0000
  C   C348      1.0  0.49885  0.13760  0.96061  1.0000
  C   C349      1.0  0.50454  0.12622  0.89222  1.0000
  C   C350      1.0  0.50626  0.05913  0.73080  1.0000
  H   H591      1.0  0.57035  0.95594  0.99287  1.0000
  C   C351      1.0  0.44788  0.10157  0.89155  1.0000
  C   C352      1.0  0.53658  0.12913  0.89399  1.0000
  C   C353      1.0  0.63846  0.03209  0.68708  1.0000
  H   H592      1.0  0.59905  0.28922  0.87876  1.0000
  N   N20       1.0  0.64478  0.32312  0.90219  1.0000
  H   H593      1.0  0.39260  0.30464  0.57250  1.0000
  C   C354      1.0  0.54827  0.13659  0.85428  1.0000
  H   H594      1.0  0.45353  0.13936  0.91361  1.0000
  H   H595      1.0  0.44774  0.11630  0.94965  1.0000
  H   H596      1.0  0.62013  0.03363  0.74322  1.0000
  C   C355      1.0  0.67613  0.04607  0.80228  1.0000
  H   H597      1.0  0.49586  0.14431  0.88115  1.0000
  H   H598      1.0  0.50043  0.11202  0.86933  1.0000
  C   C356      1.0  0.64518  0.96499  0.77723  1.0000
  C   C357      1.0  0.50008  0.09263  0.94013  1.0000
  H   H599      1.0  0.63532  0.17012  0.79766  1.0000
  H   H600      1.0  0.67128  0.27691  0.91842  1.0000
  H   H601      1.0  0.45514  0.10682  0.86207  1.0000
  H   H602      1.0  0.49812  0.37778  0.92775  1.0000
  H   H603      1.0  0.54663  0.11120  0.90240  1.0000
  H   H604      1.0  0.54284  0.14386  0.91511  1.0000
  C   C358      1.0  0.47841  0.14209  0.99474  1.0000
  H   H605      1.0  0.61011  0.02328  0.83012  1.0000
  C   C359      1.0  0.66452  0.95363  0.75215  1.0000
  H   H606      1.0  0.49885  0.08017  0.91419  1.0000
  C   C360      1.0  0.67278  0.34706  0.72600  1.0000
  H   H607      1.0  0.47401  0.40172  0.91217  1.0000
  C   C361      1.0  0.57551  0.28858  0.93142  1.0000
  H   H608      1.0  0.46535  0.36584  0.98145  1.0000
  H   H609      1.0  0.39007  0.21019  0.66105  1.0000
  H   H610      1.0  0.45995  0.15254  0.98399  1.0000
  H   H611      1.0  0.54333  0.12202  0.83220  1.0000
  H   H612      1.0  0.53961  0.15490  0.84464  1.0000
  H   H613      1.0  0.57116  0.13838  0.85619  1.0000
  H   H614      1.0  0.37684  0.23805  0.63765  1.0000
  H   H615      1.0  0.40764  0.09582  0.91908  1.0000
  H   H616      1.0  0.37794  0.20014  0.59368  1.0000
  C   C362      1.0  0.35954  0.08450  0.81117  1.0000
  H   H617      1.0  0.58703  0.04789  0.77875  1.0000
  C   C363      1.0  0.38373  0.40151  0.56756  1.0000
  H   H618      1.0  0.45866  0.35497  0.72729  1.0000
  H   H619      1.0  0.55386  0.04201  0.79930  1.0000
  H   H620      1.0  0.42387  0.36313  0.67507  1.0000
  S   S93       1.0  0.67118  0.13795  0.68997  1.0000
  H   H621      1.0  0.51585  0.04928  0.97905  1.0000
  H   H622      1.0  0.50915  0.06808  0.70184  1.0000
  H   H623      1.0  0.58941  0.00917  0.67417  1.0000
  H   H624      1.0  0.36434  0.19926  0.82049  1.0000
  H   H625      1.0  0.59041  0.99702  0.77723  1.0000
  H   H626      1.0  0.54484  0.98899  0.68364  1.0000
  N   N21       1.0  0.42691  0.26192  0.77586  1.0000
  C   C364      1.0  0.40370  0.27771  0.75929  1.0000
  C   C365      1.0  0.43740  0.27307  0.81368  1.0000
  C   C366      1.0  0.45046  0.26265  0.74688  1.0000
  C   C367      1.0  0.41853  0.23481  0.78131  1.0000
  C   C368      1.0  0.39241  0.22983  0.80619  1.0000
  H   H627      1.0  0.39953  0.18962  0.81161  1.0000
  C   C369      1.0  0.60320  0.29162  0.91036  1.0000
  H   H628      1.0  0.36006  0.05967  0.76223  1.0000
  H   H629      1.0  0.37726  0.19846  0.77132  1.0000
  H   H630      1.0  0.44904  0.25867  0.83051  1.0000
  H   H631      1.0  0.45262  0.28837  0.80771  1.0000
  H   H632      1.0  0.45500  0.28248  0.73835  1.0000
  H   H633      1.0  0.44466  0.25265  0.71962  1.0000
  H   H634      1.0  0.41573  0.22548  0.75254  1.0000
  H   H635      1.0  0.43543  0.22405  0.79572  1.0000
  C   C370      1.0  0.56535  0.38987  0.98972  1.0000
  H   H636      1.0  0.49135  0.08783  0.00218  1.0000
  H   H637      1.0  0.47555  0.23092  0.76896  1.0000
  H   H638      1.0  0.42851  0.41761  0.00895  1.0000
  C   C371      1.0  0.41586  0.28520  0.84134  1.0000
  H   H639      1.0  0.56068  0.30327  0.92174  1.0000
  H   H640      1.0  0.46223  0.08007  0.97110  1.0000
  C   C372      1.0  0.56528  0.96161  0.72057  1.0000
  H   H641      1.0  0.65451  0.17918  0.62986  1.0000
  H   H642      1.0  0.36542  0.96236  0.58307  1.0000
  H   H643      1.0  0.38636  0.27966  0.78017  1.0000
  H   H644      1.0  0.38290  0.24877  0.72355  1.0000
  H   H645      1.0  0.41118  0.29727  0.75443  1.0000
  H   H646      1.0  0.63251  0.03221  0.65584  1.0000
  H   H647      1.0  0.58832  0.04739  0.85064  1.0000
  H   H648      1.0  0.39923  0.35054  0.57906  1.0000
  C   C373      1.0  0.58832  0.02953  0.83394  1.0000
  H   H649      1.0  0.67803  0.37377  0.58151  1.0000
  H   H650      1.0  0.43023  0.42960  0.58771  1.0000
  C   C374      1.0  0.66941  0.28939  0.94409  1.0000
  C   C375      1.0  0.37458  0.31744  0.57555  1.0000
  C   C376      1.0  0.37131  0.21895  0.64809  1.0000
  C   C377      1.0  0.64896  0.19779  0.64215  1.0000
  H   H651      1.0  0.51964  0.24362  0.73956  1.0000
  H   H652      1.0  0.48277  0.04233  0.00094  1.0000
  H   H653      1.0  0.64581  0.28857  0.86806  1.0000
  C   C378      1.0  0.59350  0.01065  0.70606  1.0000
  N   N22       1.0  0.56645  0.01032  0.72817  1.0000
  H   H654      1.0  0.65666  0.41125  0.59996  1.0000
  C   C379      1.0  0.36061  0.20271  0.61452  1.0000
  H   H655      1.0  0.37472  0.24187  0.79762  1.0000
  H   H656      1.0  0.64845  0.98414  0.78669  1.0000
  H   H657      1.0  0.38401  0.39548  0.59872  1.0000
  C   C380      1.0  0.47597  0.38337  0.92731  1.0000
  C   C381      1.0  0.41370  0.39938  0.55148  1.0000
  H   H658      1.0  0.62876  0.43013  0.67697  1.0000
  H   H659      1.0  0.36086  0.06918  0.83306  1.0000
  H   H660      1.0  0.40834  0.30310  0.82861  1.0000
  C   C382      1.0  0.41700  0.35855  0.70418  1.0000
  H   H661      1.0  0.45083  0.44370  0.00749  1.0000
  H   H662      1.0  0.35625  0.18073  0.54421  1.0000
  C   C383      1.0  0.49306  0.05148  0.97575  1.0000
  H   H663      1.0  0.66813  0.20658  0.65389  1.0000
  C   C384      1.0  0.48132  0.40381  0.99402  1.0000
  H   H664      1.0  0.52242  0.09273  0.94814  1.0000
  S   S94       1.0  0.62679  0.09177  0.75652  1.0000
  H   H665      1.0  0.37922  0.42203  0.56874  1.0000
  H   H666      1.0  0.46426  0.36909  0.91032  1.0000
  H   H667      1.0  0.57838  0.28994  0.96345  1.0000
  H   H668      1.0  0.57798  0.40573  0.98113  1.0000
  C   C385      1.0  0.64971  0.30896  0.86460  1.0000
  C   C386      1.0  0.53250  0.34921  0.01197  1.0000
  H   H669      1.0  0.67628  0.27675  0.81186  1.0000
  H   H670      1.0  0.63466  0.31532  0.84203  1.0000
  H   H671      1.0  0.51580  0.44240  0.01096  1.0000
  H   H672      1.0  0.63157  0.35537  0.86863  1.0000
  H   H673      1.0  0.61251  0.41088  0.63976  1.0000
  C   C387      1.0  0.48506  0.07927  0.97408  1.0000
  C   C388      1.0  0.38287  0.20261  0.80206  1.0000
  C   C389      1.0  0.43675  0.35398  0.73370  1.0000
  H   H674      1.0  0.41576  0.41045  0.52424  1.0000
  N   N23       1.0  0.59623  0.22010  0.72168  1.0000
  C   C390      1.0  0.57020  0.20840  0.70515  1.0000
  C   C391      1.0  0.60451  0.20715  0.75925  1.0000
  C   C392      1.0  0.58967  0.24718  0.73106  1.0000
  C   C393      1.0  0.61977  0.22002  0.69273  1.0000
  C   C394      1.0  0.62746  0.19446  0.67441  1.0000
  C   C395      1.0  0.55844  0.22091  0.66775  1.0000
  C   C396      1.0  0.61208  0.26181  0.75445  1.0000
  C   C397      1.0  0.59890  0.17849  0.76238  1.0000
  C   C398      1.0  0.61251  0.16733  0.79866  1.0000
  C   C399      1.0  0.35714  0.36161  0.56243  1.0000
  C   C400      1.0  0.53439  0.20574  0.65088  1.0000
  C   C401      1.0  0.60477  0.28967  0.75621  1.0000
  H   H675      1.0  0.55348  0.20859  0.72751  1.0000
  H   H676      1.0  0.57326  0.18823  0.69846  1.0000
  H   H677      1.0  0.62688  0.21053  0.76558  1.0000
  H   H678      1.0  0.59312  0.21542  0.78439  1.0000
  H   H679      1.0  0.57010  0.24837  0.74819  1.0000
  H   H680      1.0  0.58593  0.25808  0.70389  1.0000
  H   H681      1.0  0.61566  0.23352  0.66867  1.0000
  H   H682      1.0  0.63914  0.22701  0.70653  1.0000
  H   H683      1.0  0.60934  0.18486  0.66134  1.0000
  H   H684      1.0  0.63697  0.18230  0.69685  1.0000
  H   H685      1.0  0.55043  0.23998  0.67426  1.0000
  H   H686      1.0  0.57448  0.22237  0.64480  1.0000
  H   H687      1.0  0.63289  0.26031  0.74112  1.0000
  H   H688      1.0  0.61341  0.25473  0.78483  1.0000
  H   H689      1.0  0.57624  0.17488  0.76449  1.0000
  H   H690      1.0  0.60679  0.16815  0.73694  1.0000
  H   H691      1.0  0.50618  0.02063  0.71278  1.0000
  H   H692      1.0  0.60410  0.17623  0.82538  1.0000
  H   H693      1.0  0.60068  0.33150  0.90631  1.0000
  H   H694      1.0  0.57124  0.95897  0.75146  1.0000
  H   H695      1.0  0.54170  0.18699  0.64114  1.0000
  H   H696      1.0  0.51780  0.20320  0.67294  1.0000
  H   H697      1.0  0.52548  0.21570  0.62535  1.0000
  H   H698      1.0  0.58343  0.29228  0.76741  1.0000
  H   H699      1.0  0.61927  0.29968  0.77585  1.0000
  H   H700      1.0  0.60620  0.29822  0.72677  1.0000
  H   H701      1.0  0.61555  0.32118  0.95028  1.0000
  C   C402      1.0  0.41622  0.10218  0.89076  1.0000
  H   H702      1.0  0.55452  0.99835  0.78628  1.0000
  H   H703      1.0  0.53067  0.98567  0.73122  1.0000
  H   H704      1.0  0.65058  0.01483  0.69366  1.0000
  H   H705      1.0  0.60644  0.99415  0.71409  1.0000
  H   H706      1.0  0.56643  0.26993  0.92440  1.0000
  H   H707      1.0  0.64886  0.37828  0.64926  1.0000
  H   H708      1.0  0.61416  0.40007  0.68940  1.0000
  H   H709      1.0  0.61659  0.12203  0.68729  1.0000
  H   H710      1.0  0.45596  0.40852  0.56823  1.0000
  C   C403      1.0  0.61605  0.31789  0.91824  1.0000
  H   H711      1.0  0.50232  0.39549  0.99768  1.0000
  C   C404      1.0  0.36644  0.28468  0.70800  1.0000
  H   H712      1.0  0.50399  0.27144  0.71934  1.0000
  H   H713      1.0  0.44699  0.30396  0.87722  1.0000
  H   H714      1.0  0.62064  0.36475  0.94178  1.0000
  C   C405      1.0  0.47826  0.25087  0.76068  1.0000
  C   C406      1.0  0.64447  0.34550  0.71584  1.0000
  C   C407      1.0  0.63856  0.39625  0.91224  1.0000
  S   S95       1.0  0.36424  0.36419  0.67483  1.0000
  H   H715      1.0  0.48689  0.26120  0.78601  1.0000
  H   H716      1.0  0.44233  0.39049  0.96631  1.0000
  H   H717      1.0  0.35207  0.36272  0.59386  1.0000
  H   H718      1.0  0.51939  0.13248  0.97318  1.0000
  H   H719      1.0  0.63848  0.33750  0.68813  1.0000
  C   C408      1.0  0.68113  0.29701  0.80814  1.0000
  C   C409      1.0  0.62180  0.95159  0.79055  1.0000
  C   C410      1.0  0.54946  0.03305  0.71704  1.0000
  C   C411      1.0  0.38845  0.35734  0.71219  1.0000
  H   H720      1.0  0.54859  0.03495  0.68472  1.0000
  Fe  Fe47      1.0  0.51970  0.96288  0.87304  1.0000
  C   C412      1.0  0.38254  0.99048  0.54573  1.0000
  C   C413      1.0  0.65327  0.39782  0.65862  1.0000
  H   H721      1.0  0.49303  0.24061  0.70290  1.0000
  C   C414      1.0  0.64636  0.35082  0.89268  1.0000
  C   C415      1.0  0.49999  0.25175  0.72846  1.0000
  H   H722      1.0  0.67891  0.06675  0.80052  1.0000
  H   H723      1.0  0.65189  0.04866  0.69284  1.0000
  H   H724      1.0  0.40865  0.12144  0.88430  1.0000
  H   H725      1.0  0.35970  0.97896  0.74905  1.0000
  H   H726      1.0  0.64057  0.20965  0.61827  1.0000
  H   H727      1.0  0.39735  0.23279  0.83742  1.0000
  H   H728      1.0  0.60203  0.05144  0.70595  1.0000
  H   H729      1.0  0.55934  0.05072  0.72702  1.0000
  H   H730      1.0  0.35528  0.22050  0.67119  1.0000
  C   C416      1.0  0.57462  0.03368  0.79431  1.0000
  H   H731      1.0  0.39762  0.27312  0.84636  1.0000
  C   C417      1.0  0.38218  0.34352  0.56025  1.0000
  H   H732      1.0  0.40855  0.08931  0.86769  1.0000
  C   C418      1.0  0.61267  0.03352  0.71274  1.0000
  H   H733      1.0  0.65684  0.03351  0.59155  1.0000
  H   H734      1.0  0.35787  0.35080  0.75653  1.0000
  H   H735      1.0  0.65735  0.36843  0.94872  1.0000
  H   H736      1.0  0.66475  0.39716  0.68661  1.0000
  H   H737      1.0  0.50172  0.15658  0.94729  1.0000
  H   H738      1.0  0.48371  0.05787  0.73683  1.0000
  Fe  Fe48      1.0  0.66644  0.11103  0.73972  1.0000
  C   C419      1.0  0.51902  0.03290  0.73180  1.0000
  H   H739      1.0  0.60829  0.14683  0.79987  1.0000
  H   H740      1.0  0.37318  0.30444  0.70380  1.0000
  H   H741      1.0  0.43557  0.27384  0.89581  1.0000
  H   H742      1.0  0.66668  0.30536  0.78658  1.0000
  C   C420      1.0  0.67930  0.31092  0.84699  1.0000
  H   H743      1.0  0.35686  0.30946  0.55891  1.0000
  H   H744      1.0  0.48446  0.42100  0.97607  1.0000
  H   H745      1.0  0.48634  0.04164  0.94875  1.0000
  H   H746      1.0  0.60735  0.96027  0.81045  1.0000
  C   C421      1.0  0.35771  0.97526  0.56007  1.0000
  C   C422      1.0  0.62551  0.41061  0.66649  1.0000
  H   H747      1.0  0.66961  0.04091  0.83224  1.0000
  H   H748      1.0  0.62148  0.39821  0.89067  1.0000
  C   C423      1.0  0.46439  0.38500  0.96869  1.0000
  H   H749      1.0  0.66229  0.32762  0.95981  1.0000
  C   C424      1.0  0.66662  0.31733  0.93230  1.0000
  H   H750      1.0  0.66723  0.35605  0.88184  1.0000
  C   C425      1.0  0.43479  0.40965  0.58073  1.0000
  H   H751      1.0  0.43436  0.39843  0.60805  1.0000
  H   H752      1.0  0.39846  0.97791  0.53292  1.0000
  H   H753      1.0  0.67527  0.99800  0.55021  1.0000
  C   C426      1.0  0.68063  0.35749  0.76180  1.0000
  H   H754      1.0  0.39204  0.00070  0.57062  1.0000
  H   H755      1.0  0.38964  0.34123  0.52997  1.0000
  H   H756      1.0  0.35512  0.18409  0.62664  1.0000
  H   H757      1.0  0.67848  0.43215  0.55131  1.0000
  H   H758      1.0  0.67097  0.43218  0.63453  1.0000
  H   H759      1.0  0.41961  0.37982  0.54468  1.0000
  H   H760      1.0  0.65836  0.40208  0.89847  1.0000
  N   N24       1.0  0.36118  0.38759  0.54574  1.0000
  H   H761      1.0  0.67339  0.95696  0.54781  1.0000
  H   H762      1.0  0.67900  0.06030  0.59979  1.0000
  H   H763      1.0  0.66592  0.37453  0.81470  1.0000
  C   C427      1.0  0.67868  0.03960  0.59542  1.0000
  H   H764      1.0  0.49864  0.17636  0.01503  1.0000
  H   H765      1.0  0.35785  0.27773  0.67998  1.0000
  C   C428      1.0  0.56329  0.94775  0.02093  1.0000
  Fe  Fe49      1.0  0.46716  0.81276  0.20917  1.0000
  S   S96       1.0  0.46847  0.81713  0.14411  1.0000
  S   S97       1.0  0.42782  0.79700  0.23712  1.0000
  Fe  Fe50      1.0  0.50595  0.79249  0.14664  1.0000
  S   S98       1.0  0.51094  0.76265  0.10108  1.0000
  S   S99       1.0  0.50310  0.78589  0.21063  1.0000
  S   S100      1.0  0.49873  0.66564  0.26238  1.0000
  Fe  Fe51      1.0  0.49302  0.59279  0.26247  1.0000
  S   S101      1.0  0.48660  0.61595  0.31627  1.0000
  S   S102      1.0  0.48965  0.55074  0.26842  1.0000
  Fe  Fe52      1.0  0.46189  0.64168  0.27763  1.0000
  S   S103      1.0  0.42221  0.65921  0.30041  1.0000
  S   S104      1.0  0.46538  0.61670  0.22511  1.0000
  S   S105      1.0  0.56031  0.48240  0.15486  1.0000
  C   C429      1.0  0.51023  0.53235  0.23728  1.0000
  C   C430      1.0  0.54147  0.50160  0.18713  1.0000
  C   C431      1.0  0.54116  0.52774  0.18196  1.0000
  C   C432      1.0  0.52558  0.54312  0.20702  1.0000
  H   H766      1.0  0.55267  0.53607  0.15821  1.0000
  H   H767      1.0  0.52501  0.56319  0.20238  1.0000
  H   H768      1.0  0.55610  0.85065  0.06394  1.0000
  H   H769      1.0  0.42649  0.64263  0.15156  1.0000
  C   C433      1.0  0.39290  0.64577  0.23461  1.0000
  C   C434      1.0  0.39189  0.65570  0.27224  1.0000
  H   H770      1.0  0.64677  0.74358  0.42687  1.0000
  C   C435      1.0  0.66947  0.91464  0.08894  1.0000
  C   C436      1.0  0.35444  0.56879  0.42309  1.0000
  H   H771      1.0  0.41237  0.63965  0.22263  1.0000
  H   H772      1.0  0.42148  0.70882  0.24687  1.0000
  C   C437      1.0  0.56542  0.72157  0.36962  1.0000
  H   H773      1.0  0.35835  0.90770  0.20743  1.0000
  C   C438      1.0  0.51159  0.73125  0.11652  1.0000
  C   C439      1.0  0.51404  0.69949  0.16728  1.0000
  C   C440      1.0  0.51287  0.72484  0.15602  1.0000
  H   H774      1.0  0.51579  0.69467  0.19767  1.0000
  H   H775      1.0  0.51367  0.73930  0.17785  1.0000
  C   C441      1.0  0.39912  0.81507  0.25268  1.0000
  C   C442      1.0  0.37486  0.80262  0.26464  1.0000
  C   C443      1.0  0.40880  0.45840  0.05117  1.0000
  C   C444      1.0  0.43123  0.47446  0.22554  1.0000
  H   H776      1.0  0.53896  0.87863  0.18475  1.0000
  H   H777      1.0  0.55499  0.87618  0.11400  1.0000
  H   H778      1.0  0.37377  0.78240  0.26261  1.0000
  C   C445      1.0  0.52587  0.45900  0.06588  1.0000
  Fe  Fe53      1.0  0.53117  0.81935  0.21642  1.0000
  S   S106      1.0  0.53659  0.82398  0.15191  1.0000
  S   S107      1.0  0.56590  0.81453  0.26118  1.0000
  Fe  Fe54      1.0  0.49865  0.84838  0.15483  1.0000
  S   S108      1.0  0.49712  0.88467  0.12013  1.0000
  S   S109      1.0  0.49488  0.84618  0.22058  1.0000
  Fe  Fe55      1.0  0.50413  0.63870  0.21280  1.0000
  S   S110      1.0  0.51620  0.64877  0.15173  1.0000
  Fe  Fe56      1.0  0.52370  0.63760  0.29599  1.0000
  S   S111      1.0  0.55872  0.64754  0.33642  1.0000
  S   S112      1.0  0.53203  0.61244  0.24523  1.0000
  C   C446      1.0  0.51085  0.50629  0.24270  1.0000
  C   C447      1.0  0.52650  0.49099  0.21783  1.0000
  H   H779      1.0  0.49904  0.49785  0.26605  1.0000
  H   H780      1.0  0.52657  0.47092  0.22210  1.0000
  C   C448      1.0  0.63992  0.66243  0.27238  1.0000
  C   C449      1.0  0.64002  0.65540  0.31160  1.0000
  C   C450      1.0  0.61498  0.65093  0.33111  1.0000
  C   C451      1.0  0.58974  0.65295  0.31126  1.0000
  C   C452      1.0  0.58957  0.65948  0.27178  1.0000
  C   C453      1.0  0.61463  0.66442  0.25251  1.0000
  C   C454      1.0  0.61722  0.72245  0.35516  1.0000
  H   H781      1.0  0.61516  0.64578  0.36161  1.0000
  H   H782      1.0  0.57010  0.66108  0.25625  1.0000
  H   H783      1.0  0.61444  0.66961  0.22209  1.0000
  H   H784      1.0  0.38515  0.46971  0.35510  1.0000
  C   C455      1.0  0.51186  0.71231  0.08837  1.0000
  C   C456      1.0  0.51315  0.68705  0.09957  1.0000
  C   C457      1.0  0.51405  0.68058  0.13900  1.0000
  H   H785      1.0  0.51114  0.71716  0.05777  1.0000
  H   H786      1.0  0.51340  0.67248  0.07760  1.0000
  C   C458      1.0  0.60188  0.82143  0.25803  1.0000
  H   H787      1.0  0.41965  0.47465  0.03776  1.0000
  H   H788      1.0  0.59218  0.90828  0.16786  1.0000
  H   H789      1.0  0.64951  0.88170  0.06650  1.0000
  C   C459      1.0  0.64693  0.82424  0.29095  1.0000
  C   C460      1.0  0.61842  0.81845  0.29150  1.0000
  H   H790      1.0  0.36096  0.79330  0.35365  1.0000
  H   H791      1.0  0.60897  0.81210  0.31831  1.0000
  N   N25       1.0  0.60973  0.56671  0.28093  1.0000
  C   C461      1.0  0.62391  0.54373  0.26481  1.0000
  C   C462      1.0  0.63053  0.58149  0.30444  1.0000
  C   C463      1.0  0.58554  0.55835  0.30562  1.0000
  C   C464      1.0  0.59875  0.58335  0.24884  1.0000
  C   C465      1.0  0.61992  0.59166  0.21744  1.0000
  C   C466      1.0  0.60662  0.52770  0.23585  1.0000
  C   C467      1.0  0.57171  0.57906  0.33076  1.0000
  C   C468      1.0  0.64234  0.56808  0.34103  1.0000
  H   H792      1.0  0.42750  0.80331  0.33628  1.0000
  C   C469      1.0  0.60563  0.60701  0.18553  1.0000
  H   H793      1.0  0.49530  0.84175  0.06772  1.0000
  C   C470      1.0  0.54668  0.56876  0.35277  1.0000
  H   H794      1.0  0.62992  0.53088  0.28896  1.0000
  C   C471      1.0  0.50468  0.44716  0.03825  1.0000
  H   H795      1.0  0.64883  0.58643  0.28628  1.0000
  H   H796      1.0  0.62162  0.59986  0.31340  1.0000
  H   H797      1.0  0.59163  0.54267  0.32531  1.0000
  H   H798      1.0  0.56882  0.55041  0.28684  1.0000
  H   H799      1.0  0.58082  0.57429  0.23387  1.0000
  H   H800      1.0  0.59043  0.60106  0.26135  1.0000
  C   C472      1.0  0.62314  0.50486  0.22212  1.0000
  H   H801      1.0  0.63629  0.60371  0.23044  1.0000
  H   H802      1.0  0.58739  0.52064  0.24973  1.0000
  H   H803      1.0  0.60076  0.53871  0.20966  1.0000
  H   H804      1.0  0.56428  0.59471  0.31235  1.0000
  H   H805      1.0  0.58631  0.58684  0.35264  1.0000
  H   H806      1.0  0.39983  0.45607  0.16313  1.0000
  H   H807      1.0  0.43034  0.48739  0.16340  1.0000
  H   H808      1.0  0.66893  0.57592  0.39065  1.0000
  H   H809      1.0  0.58866  0.81471  0.08938  1.0000
  H   H810      1.0  0.47135  0.70828  0.22792  1.0000
  H   H811      1.0  0.38314  0.59727  0.35887  1.0000
  H   H812      1.0  0.64210  0.51090  0.20639  1.0000
  C   C473      1.0  0.58335  0.92713  0.03385  1.0000
  C   C474      1.0  0.49611  0.85872  0.05041  1.0000
  H   H813      1.0  0.53551  0.47565  0.05187  1.0000
  H   H814      1.0  0.40105  0.82726  0.34058  1.0000
  H   H815      1.0  0.53710  0.58408  0.37010  1.0000
  H   H816      1.0  0.53087  0.56152  0.33207  1.0000
  H   H817      1.0  0.55304  0.55347  0.37288  1.0000
  H   H818      1.0  0.56215  0.79128  0.08337  1.0000
  H   H819      1.0  0.38403  0.57461  0.47040  1.0000
  C   C475      1.0  0.38945  0.74012  0.39685  1.0000
  H   H820      1.0  0.38188  0.44664  0.29202  1.0000
  H   H821      1.0  0.57158  0.66579  0.11459  1.0000
  H   H822      1.0  0.66519  0.93488  0.09402  1.0000
  C   C476      1.0  0.64671  0.79478  0.40446  1.0000
  H   H823      1.0  0.39955  0.74542  0.42492  1.0000
  C   C477      1.0  0.59427  0.87311  0.05770  1.0000
  H   H824      1.0  0.39317  0.45095  0.03033  1.0000
  H   H825      1.0  0.41408  0.78724  0.40295  1.0000
  H   H826      1.0  0.45608  0.69521  0.17231  1.0000
  C   C478      1.0  0.58484  0.79426  0.08649  1.0000
  C   C479      1.0  0.66029  0.58597  0.36500  1.0000
  H   H827      1.0  0.55199  0.90987  0.07028  1.0000
  H   H828      1.0  0.39908  0.58258  0.29441  1.0000
  H   H829      1.0  0.57325  0.87038  0.20197  1.0000
  C   C480      1.0  0.38873  0.71429  0.18597  1.0000
  N   N26       1.0  0.60055  0.73669  0.15433  1.0000
  C   C481      1.0  0.59085  0.71002  0.14827  1.0000
  C   C482      1.0  0.58770  0.74757  0.19089  1.0000
  C   C483      1.0  0.59030  0.75203  0.12017  1.0000
  C   C484      1.0  0.63176  0.73878  0.15538  1.0000
  H   H830      1.0  0.44875  0.71116  0.35905  1.0000
  C   C485      1.0  0.60102  0.69683  0.11067  1.0000
  C   C486      1.0  0.59589  0.78073  0.12257  1.0000
  C   C487      1.0  0.58322  0.72955  0.22584  1.0000
  C   C488      1.0  0.57370  0.74395  0.26184  1.0000
  C   C489      1.0  0.44510  0.48424  0.18754  1.0000
  C   C490      1.0  0.59426  0.66878  0.11158  1.0000
  H   H831      1.0  0.51575  0.46526  0.09324  1.0000
  H   H832      1.0  0.56784  0.70947  0.14761  1.0000
  H   H833      1.0  0.59674  0.69788  0.17317  1.0000
  H   H834      1.0  0.59988  0.76402  0.20146  1.0000
  H   H835      1.0  0.56659  0.75514  0.18440  1.0000
  H   H836      1.0  0.56757  0.74934  0.11634  1.0000
  H   H837      1.0  0.59985  0.74551  0.09251  1.0000
  H   H838      1.0  0.64033  0.73698  0.12540  1.0000
  H   H839      1.0  0.63814  0.75784  0.16527  1.0000
  C   C491      1.0  0.46689  0.46576  0.17291  1.0000
  H   H840      1.0  0.64392  0.72429  0.21272  1.0000
  H   H841      1.0  0.59048  0.70490  0.08473  1.0000
  H   H842      1.0  0.62373  0.69879  0.10699  1.0000
  H   H843      1.0  0.55787  0.91562  0.15047  1.0000
  H   H844      1.0  0.58571  0.78912  0.14841  1.0000
  H   H845      1.0  0.56676  0.71564  0.21878  1.0000
  H   H846      1.0  0.60224  0.71915  0.23360  1.0000
  H   H847      1.0  0.56972  0.73049  0.28580  1.0000
  H   H848      1.0  0.58984  0.75752  0.27142  1.0000
  H   H849      1.0  0.55419  0.75434  0.25570  1.0000
  C   C492      1.0  0.36815  0.59670  0.33433  1.0000
  H   H850      1.0  0.67371  0.75255  0.39542  1.0000
  H   H851      1.0  0.60506  0.65945  0.13627  1.0000
  H   H852      1.0  0.60112  0.65982  0.08404  1.0000
  H   H853      1.0  0.37009  0.77951  0.44059  1.0000
  H   H854      1.0  0.63307  0.77509  0.35373  1.0000
  H   H855      1.0  0.37928  0.48440  0.15812  1.0000
  H   H856      1.0  0.62659  0.89074  0.12703  1.0000
  C   C493      1.0  0.65927  0.83313  0.25680  1.0000
  C   C494      1.0  0.64768  0.72004  0.18163  1.0000
  C   C495      1.0  0.67891  0.72223  0.17466  1.0000
  C   C496      1.0  0.59448  0.71759  0.38620  1.0000
  H   H857      1.0  0.65922  0.82227  0.31717  1.0000
  H   H858      1.0  0.38020  0.75476  0.19490  1.0000
  C   C497      1.0  0.40082  0.45771  0.29852  1.0000
  N   N27       1.0  0.36728  0.75897  0.38617  1.0000
  H   H859      1.0  0.60243  0.46247  0.29233  1.0000
  H   H860      1.0  0.42259  0.46971  0.35110  1.0000
  H   H861      1.0  0.40677  0.73423  0.33717  1.0000
  H   H862      1.0  0.61573  0.70678  0.33367  1.0000
  H   H863      1.0  0.60145  0.44886  0.36223  1.0000
  H   H864      1.0  0.61267  0.76944  0.39596  1.0000
  H   H865      1.0  0.62121  0.61336  0.16389  1.0000
  H   H866      1.0  0.37290  0.54254  0.46392  1.0000
  C   C498      1.0  0.37838  0.78102  0.36334  1.0000
  H   H867      1.0  0.63349  0.81137  0.39817  1.0000
  C   C499      1.0  0.66494  0.74610  0.30812  1.0000
  H   H868      1.0  0.54980  0.71809  0.39272  1.0000
  H   H869      1.0  0.59536  0.78737  0.05982  1.0000
  H   H870      1.0  0.47932  0.47454  0.14935  1.0000
  H   H871      1.0  0.43800  0.71398  0.40892  1.0000
  H   H872      1.0  0.41522  0.49560  0.29361  1.0000
  C   C500      1.0  0.37807  0.57730  0.30478  1.0000
  H   H873      1.0  0.63851  0.91059  0.04448  1.0000
  C   C501      1.0  0.38040  0.46836  0.21756  1.0000
  H   H874      1.0  0.56287  0.74113  0.35890  1.0000
  C   C502      1.0  0.42502  0.68197  0.13364  1.0000
  C   C503      1.0  0.49742  0.90403  0.04577  1.0000
  H   H875      1.0  0.36539  0.67085  0.31683  1.0000
  H   H876      1.0  0.39783  0.46509  0.07761  1.0000
  H   H877      1.0  0.37369  0.73520  0.23650  1.0000
  H   H878      1.0  0.43049  0.45356  0.22427  1.0000
  H   H879      1.0  0.37681  0.51736  0.22831  1.0000
  H   H880      1.0  0.37104  0.56487  0.40160  1.0000
  H   H881      1.0  0.65929  0.65411  0.32731  1.0000
  C   C504      1.0  0.64290  0.83555  0.22298  1.0000
  C   C505      1.0  0.61435  0.82968  0.22351  1.0000
  C   C506      1.0  0.41372  0.73628  0.36769  1.0000
  H   H882      1.0  0.42803  0.75260  0.36856  1.0000
  H   H883      1.0  0.60195  0.83174  0.19745  1.0000
  N   N28       1.0  0.40280  0.48458  0.23538  1.0000
  H   H884      1.0  0.40095  0.51344  0.19058  1.0000
  H   H885      1.0  0.56143  0.70811  0.34551  1.0000
  H   H886      1.0  0.65228  0.84231  0.19640  1.0000
  C   C507      1.0  0.41149  0.74345  0.12129  1.0000
  C   C508      1.0  0.40023  0.84126  0.25486  1.0000
  H   H887      1.0  0.45562  0.50244  0.19327  1.0000
  H   H888      1.0  0.36385  0.57669  0.27929  1.0000
  C   C509      1.0  0.68195  0.69701  0.40915  1.0000
  H   H889      1.0  0.46010  0.72066  0.29500  1.0000
  H   H890      1.0  0.37920  0.55840  0.31840  1.0000
  H   H891      1.0  0.56511  0.46623  0.29372  1.0000
  H   H892      1.0  0.64817  0.79234  0.43655  1.0000
  C   C510      1.0  0.61937  0.90241  0.10195  1.0000
  H   H893      1.0  0.36972  0.63696  0.18257  1.0000
  H   H894      1.0  0.59722  0.72999  0.41187  1.0000
  H   H895      1.0  0.49741  0.92224  0.05972  1.0000
  H   H896      1.0  0.61139  0.73937  0.33826  1.0000
  H   H897      1.0  0.54256  0.44539  0.07315  1.0000
  H   H898      1.0  0.41331  0.76463  0.06726  1.0000
  H   H899      1.0  0.66367  0.70603  0.32011  1.0000
  H   H900      1.0  0.59542  0.62386  0.19808  1.0000
  H   H901      1.0  0.64410  0.74773  0.29466  1.0000
  H   H902      1.0  0.59552  0.69778  0.39636  1.0000
  C   C511      1.0  0.49647  0.88218  0.06873  1.0000
  C   C512      1.0  0.37754  0.85480  0.26981  1.0000
  H   H903      1.0  0.62573  0.56097  0.36033  1.0000
  H   H904      1.0  0.55717  0.89917  0.21748  1.0000
  H   H905      1.0  0.36857  0.61521  0.31954  1.0000
  C   C513      1.0  0.42619  0.76159  0.09368  1.0000
  H   H906      1.0  0.41877  0.85107  0.24575  1.0000
  H   H907      1.0  0.64193  0.70026  0.17569  1.0000
  H   H908      1.0  0.43917  0.52383  0.24567  1.0000
  C   C514      1.0  0.35218  0.81614  0.27965  1.0000
  H   H909      1.0  0.41918  0.44728  0.28807  1.0000
  H   H910      1.0  0.60665  0.85732  0.06999  1.0000
  H   H911      1.0  0.66775  0.79854  0.39269  1.0000
  C   C515      1.0  0.41882  0.55560  0.21948  1.0000
  H   H912      1.0  0.67525  0.65847  0.42854  1.0000
  C   C516      1.0  0.37209  0.73621  0.20428  1.0000
  H   H913      1.0  0.38026  0.71102  0.15640  1.0000
  C   C517      1.0  0.57226  0.90007  0.15796  1.0000
  H   H914      1.0  0.41993  0.74161  0.23635  1.0000
  N   N29       1.0  0.41978  0.71772  0.18517  1.0000
  C   C518      1.0  0.39914  0.79826  0.38530  1.0000
  C   C519      1.0  0.41776  0.53100  0.24235  1.0000
  H   H915      1.0  0.41762  0.69569  0.37472  1.0000
  H   H916      1.0  0.64528  0.68404  0.37953  1.0000
  H   H917      1.0  0.66627  0.91671  0.51387  1.0000
  H   H918      1.0  0.58705  0.86508  0.13264  1.0000
  H   H919      1.0  0.67225  0.68193  0.46665  1.0000
  C   C520      1.0  0.38070  0.46585  0.17259  1.0000
  H   H920      1.0  0.64792  0.60223  0.37539  1.0000
  H   H921      1.0  0.42922  0.67875  0.19644  1.0000
  C   C521      1.0  0.43585  0.65515  0.12929  1.0000
  H   H922      1.0  0.63880  0.70180  0.42227  1.0000
  H   H923      1.0  0.45091  0.73591  0.14963  1.0000
  H   H924      1.0  0.48104  0.46029  0.19697  1.0000
  H   H925      1.0  0.57410  0.93094  0.09455  1.0000
  H   H926      1.0  0.61841  0.78470  0.12440  1.0000
  C   C522      1.0  0.57416  0.91536  0.07298  1.0000
  H   H927      1.0  0.37876  0.87504  0.27195  1.0000
  H   H928      1.0  0.38769  0.81098  0.40526  1.0000
  H   H929      1.0  0.38330  0.69701  0.20269  1.0000
  C   C523      1.0  0.35359  0.84230  0.28274  1.0000
  C   C524      1.0  0.55970  0.88609  0.19255  1.0000
  H   H930      1.0  0.39122  0.75193  0.12896  1.0000
  H   H931      1.0  0.62911  0.49282  0.24719  1.0000
  C   C525      1.0  0.66634  0.72378  0.33694  1.0000
  C   C526      1.0  0.39906  0.48396  0.27913  1.0000
  H   H932      1.0  0.39770  0.56350  0.21558  1.0000
  H   H933      1.0  0.42950  0.78001  0.10811  1.0000
  C   C527      1.0  0.65170  0.70126  0.39544  1.0000
  H   H934      1.0  0.37975  0.72147  0.40240  1.0000
  H   H935      1.0  0.42910  0.75709  0.17453  1.0000
  C   C528      1.0  0.36598  0.56244  0.46339  1.0000
  H   H936      1.0  0.36488  0.60791  0.42333  1.0000
  H   H937      1.0  0.61026  0.49346  0.20193  1.0000
  C   C529      1.0  0.43321  0.69319  0.17366  1.0000
  H   H938      1.0  0.42854  0.55258  0.19055  1.0000
  C   C530      1.0  0.46070  0.72640  0.23244  1.0000
  C   C531      1.0  0.43047  0.71287  0.37837  1.0000
  H   H939      1.0  0.49030  0.73687  0.27716  1.0000
  H   H940      1.0  0.65564  0.55202  0.33233  1.0000
  H   H941      1.0  0.46934  0.74045  0.21207  1.0000
  C   C532      1.0  0.46750  0.73488  0.27384  1.0000
  C   C533      1.0  0.63427  0.77142  0.38536  1.0000
  C   C534      1.0  0.56698  0.86183  0.04136  1.0000
  C   C535      1.0  0.42896  0.73883  0.15863  1.0000
  C   C536      1.0  0.42904  0.72356  0.22631  1.0000
  C   C537      1.0  0.36632  0.66329  0.28765  1.0000
  H   H942      1.0  0.44656  0.75386  0.08453  1.0000
  H   H943      1.0  0.40725  0.72597  0.10504  1.0000
  S   S113      1.0  0.67090  0.66999  0.24811  1.0000
  C   C538      1.0  0.65128  0.74748  0.39563  1.0000
  H   H944      1.0  0.38195  0.44879  0.22849  1.0000
  H   H945      1.0  0.37870  0.49234  0.28743  1.0000
  H   H946      1.0  0.43160  0.56943  0.23574  1.0000
  H   H947      1.0  0.43454  0.69326  0.10999  1.0000
  H   H948      1.0  0.58978  0.59547  0.17027  1.0000
  H   H949      1.0  0.43041  0.64780  0.09999  1.0000
  H   H950      1.0  0.58693  0.48529  0.32430  1.0000
  C   C539      1.0  0.57616  0.88234  0.12238  1.0000
  H   H951      1.0  0.38850  0.77477  0.33608  1.0000
  H   H952      1.0  0.45775  0.75333  0.28020  1.0000
  H   H953      1.0  0.43005  0.82697  0.37364  1.0000
  H   H954      1.0  0.40990  0.53536  0.27193  1.0000
  H   H955      1.0  0.44634  0.47857  0.24933  1.0000
  H   H956      1.0  0.61798  0.92190  0.11361  1.0000
  H   H957      1.0  0.45871  0.65473  0.13237  1.0000
  C   C540      1.0  0.58439  0.46627  0.31150  1.0000
  H   H958      1.0  0.48870  0.46154  0.03185  1.0000
  C   C541      1.0  0.40329  0.45966  0.34281  1.0000
  C   C542      1.0  0.39858  0.51141  0.22246  1.0000
  H   H959      1.0  0.35954  0.47518  0.22670  1.0000
  H   H960      1.0  0.40232  0.68104  0.12935  1.0000
  C   C543      1.0  0.36869  0.64418  0.21200  1.0000
  H   H961      1.0  0.67744  0.45174  0.19386  1.0000
  H   H962      1.0  0.62990  0.57532  0.20324  1.0000
  C   C544      1.0  0.41540  0.81489  0.35712  1.0000
  N   N30       1.0  0.64644  0.72437  0.37081  1.0000
  N   N31       1.0  0.59117  0.89356  0.08788  1.0000
  H   H963      1.0  0.36533  0.71718  0.33020  1.0000
  H   H964      1.0  0.66646  0.45649  0.27768  1.0000
  C   C545      1.0  0.64377  0.90154  0.07253  1.0000
  H   H965      1.0  0.67602  0.90577  0.11679  1.0000
  H   H966      1.0  0.64384  0.54890  0.25058  1.0000
  H   H967      1.0  0.55292  0.87678  0.03076  1.0000
  H   H968      1.0  0.67045  0.76388  0.32308  1.0000
  C   C546      1.0  0.35271  0.73415  0.32410  1.0000
  H   H969      1.0  0.60617  0.87987  0.03216  1.0000
  H   H970      1.0  0.60395  0.93605  0.03708  1.0000
  H   H971      1.0  0.35550  0.67947  0.39819  1.0000
  H   H972      1.0  0.45676  0.44856  0.16136  1.0000
  H   H973      1.0  0.67787  0.59290  0.34721  1.0000
  H   H974      1.0  0.36448  0.74704  0.30507  1.0000
  H   H975      1.0  0.35637  0.63639  0.37325  1.0000
  H   H976      1.0  0.56399  0.45128  0.36137  1.0000
  C   C547      1.0  0.58262  0.44667  0.34403  1.0000
  C   C548      1.0  0.35443  0.76909  0.42315  1.0000
  H   H977      1.0  0.35770  0.73489  0.45974  1.0000
  H   H978      1.0  0.68290  0.72472  0.26036  1.0000
  C   C549      1.0  0.35642  0.45003  0.15787  1.0000
  H   H979      1.0  0.34999  0.77052  0.50508  1.0000
  H   H980      1.0  0.35687  0.44911  0.12557  1.0000
  H   H981      1.0  0.44403  0.44632  0.08384  1.0000
  H   H982      1.0  0.43812  0.92366  0.95418  1.0000
  H   H983      1.0  0.39751  0.82753  0.83351  1.0000
  H   H984      1.0  0.35972  0.91609  0.72030  1.0000
  H   H985      1.0  0.45632  0.84579  0.89562  1.0000
  H   H986      1.0  0.41415  0.80259  0.88611  1.0000
  H   H987      1.0  0.58142  0.85509  0.98211  1.0000
  Fe  Fe57      1.0  0.48649  0.92966  0.81849  1.0000
  H   H988      1.0  0.42660  0.88241  0.81793  1.0000
  C   C550      1.0  0.37409  0.86136  0.82390  1.0000
  H   H989      1.0  0.49729  0.83892  0.99564  1.0000
  H   H990      1.0  0.41090  0.91922  0.71443  1.0000
  S   S114      1.0  0.48091  0.94003  0.88140  1.0000
  H   H991      1.0  0.35656  0.83065  0.78967  1.0000
  C   C551      1.0  0.45601  0.79656  0.90518  1.0000
  H   H992      1.0  0.45545  0.77635  0.89726  1.0000
  H   H993      1.0  0.43831  0.87865  0.94050  1.0000
  H   H994      1.0  0.45126  0.79838  0.93671  1.0000
  H   H995      1.0  0.36554  0.87746  0.84044  1.0000
  Fe  Fe58      1.0  0.51075  0.90852  0.89440  1.0000
  S   S115      1.0  0.51393  0.89671  0.83170  1.0000
  S   S116      1.0  0.50252  0.87583  0.93560  1.0000
  H   H996      1.0  0.46394  0.83590  0.81607  1.0000
  H   H997      1.0  0.67480  0.91986  0.72099  1.0000
  Fe  Fe59      1.0  0.55025  0.92306  0.82738  1.0000
  H   H998      1.0  0.42551  0.83938  0.92208  1.0000
  C   C552      1.0  0.40119  0.92205  0.74245  1.0000
  C   C553      1.0  0.43696  0.86681  0.83365  1.0000
  C   C554      1.0  0.43446  0.83924  0.89216  1.0000
  C   C555      1.0  0.61723  0.92687  0.77825  1.0000
  C   C556      1.0  0.63655  0.91559  0.75316  1.0000
  C   C557      1.0  0.35943  0.92327  0.78194  1.0000
  C   C558      1.0  0.40954  0.87927  0.89028  1.0000
  H   H999      1.0  0.52693  0.93989  0.72617  1.0000
  H   H1000     1.0  0.54100  0.94099  0.67742  1.0000
  S   S117      1.0  0.54934  0.93235  0.89130  1.0000
  C   C559      1.0  0.40502  0.93059  0.81137  1.0000
  S   S118      1.0  0.58778  0.90930  0.79315  1.0000
  H   H1001     1.0  0.41758  0.93467  0.83672  1.0000
  C   C560      1.0  0.49923  0.87895  0.98664  1.0000
  C   C561      1.0  0.49894  0.90244  0.00484  1.0000
  H   H1002     1.0  0.43996  0.80806  0.84973  1.0000
  H   H1003     1.0  0.49999  0.91933  0.98738  1.0000
  C   C562      1.0  0.66012  0.92883  0.74026  1.0000
  C   C563      1.0  0.45877  0.86025  0.76705  1.0000
  H   H1004     1.0  0.47616  0.87292  0.77493  1.0000
  H   H1005     1.0  0.46666  0.84591  0.74640  1.0000
  H   H1006     1.0  0.44241  0.87138  0.75209  1.0000
  C   C564      1.0  0.37216  0.92033  0.74568  1.0000
  C   C565      1.0  0.43210  0.89146  0.91649  1.0000
  C   C566      1.0  0.49728  0.85716  0.00954  1.0000
  H   H1007     1.0  0.45083  0.89604  0.89953  1.0000
  H   H1008     1.0  0.40305  0.91192  0.95333  1.0000
  C   C567      1.0  0.57261  0.84436  0.00695  1.0000
  H   H1009     1.0  0.37970  0.83803  0.87510  1.0000
  H   H1010     1.0  0.45605  0.87552  0.84573  1.0000
  H   H1011     1.0  0.41639  0.92981  0.91251  1.0000
  C   C568      1.0  0.41779  0.92690  0.77530  1.0000
  H   H1012     1.0  0.40124  0.89445  0.87135  1.0000
  H   H1013     1.0  0.43019  0.83493  0.79302  1.0000
  H   H1014     1.0  0.39218  0.87382  0.90993  1.0000
  H   H1015     1.0  0.36922  0.88510  0.60767  1.0000
  C   C569      1.0  0.37598  0.92858  0.81470  1.0000
  C   C570      1.0  0.43486  0.81104  0.88071  1.0000
  C   C571      1.0  0.44703  0.84739  0.80324  1.0000
  C   C572      1.0  0.39270  0.84470  0.85036  1.0000
  C   C573      1.0  0.42163  0.91569  0.93521  1.0000
  H   H1016     1.0  0.63327  0.89645  0.74361  1.0000
  H   H1017     1.0  0.38578  0.86866  0.79850  1.0000
  N   N32       1.0  0.41865  0.85707  0.86595  1.0000
  C   C574      1.0  0.54634  0.93983  0.70884  1.0000
  H   H1018     1.0  0.35890  0.91373  0.63148  1.0000
  S   S119      1.0  0.45432  0.92696  0.77000  1.0000
  H   H1019     1.0  0.47728  0.80380  0.89975  1.0000
  H   H1020     1.0  0.36614  0.91965  0.56044  1.0000
  H   H1021     1.0  0.58711  0.82912  0.01538  1.0000
  H   H1022     1.0  0.55287  0.83570  0.99705  1.0000
  H   H1023     1.0  0.36627  0.93104  0.84281  1.0000
  H   H1024     1.0  0.55716  0.92174  0.71426  1.0000
  H   H1025     1.0  0.58397  0.91301  0.01014  1.0000
  H   H1026     1.0  0.54220  0.93993  0.01641  1.0000
  C   C575      1.0  0.35233  0.89915  0.61023  1.0000
  C   C576      1.0  0.69291  0.39789  0.29027  1.0000
  C   C577      1.0  0.69098  0.42403  0.29258  1.0000
  H   H1027     1.0  0.88636  0.40684  0.34112  1.0000
  C   C578      1.0  0.01239  0.97557  0.02702  1.0000
  H   H1028     1.0  0.97481  0.37227  0.51286  1.0000
  H   H1029     1.0  0.01603  0.96276  0.10495  1.0000
  S   S120      1.0  0.98209  0.40444  0.29256  1.0000
  H   H1030     1.0  0.96637  0.41233  0.03563  1.0000
  Fe  Fe60      1.0  0.79454  0.40390  0.40021  1.0000
  S   S121      1.0  0.78382  0.39412  0.33782  1.0000
  S   S122      1.0  0.79488  0.37306  0.44574  1.0000
  H   H1031     1.0  0.84206  0.40821  0.47104  1.0000
  C   C579      1.0  0.90985  0.39918  0.49549  1.0000
  Fe  Fe61      1.0  0.75852  0.42967  0.33919  1.0000
  H   H1032     1.0  0.79439  0.34079  0.51255  1.0000
  Fe  Fe62      1.0  0.82074  0.41842  0.32289  1.0000
  S   S123      1.0  0.85077  0.41297  0.27257  1.0000
  C   C580      1.0  0.93047  0.37868  0.50886  1.0000
  C   C581      1.0  0.68505  0.95358  0.52047  1.0000
  C   C582      1.0  0.79252  0.37981  0.49599  1.0000
  H   H1033     1.0  0.93583  0.43151  0.02856  1.0000
  H   H1034     1.0  0.89528  0.41281  0.21712  1.0000
  C   C583      1.0  0.68415  0.44106  0.16771  1.0000
  C   C584      1.0  0.87419  0.36987  0.46815  1.0000
  C   C585      1.0  0.87538  0.35025  0.40075  1.0000
  H   H1035     1.0  0.93350  0.40206  0.05434  1.0000
  H   H1036     1.0  0.79012  0.41991  0.48913  1.0000
  C   C586      1.0  0.88722  0.41032  0.27874  1.0000
  C   C587      1.0  0.90444  0.41085  0.24574  1.0000
  C   C588      1.0  0.93345  0.40868  0.24941  1.0000
  C   C589      1.0  0.94559  0.40595  0.28619  1.0000
  C   C590      1.0  0.92837  0.40530  0.31920  1.0000
  C   C591      1.0  0.89935  0.40752  0.31555  1.0000
  C   C592      1.0  0.76308  0.36970  0.23762  1.0000
  H   H1037     1.0  0.94642  0.40897  0.22375  1.0000
  H   H1038     1.0  0.93757  0.40298  0.34772  1.0000
  N   N33       1.0  0.87963  0.39193  0.49480  1.0000
  C   C593      1.0  0.75350  0.43302  0.15350  1.0000
  C   C594      1.0  0.71630  0.43352  0.51870  1.0000
  H   H1039     1.0  0.85242  0.34841  0.40019  1.0000
  H   H1040     1.0  0.77083  0.43483  0.07637  1.0000
  H   H1041     1.0  0.73930  0.41557  0.24693  1.0000
  H   H1042     1.0  0.77193  0.97141  0.51199  1.0000
  N   N34       1.0  0.71488  0.99436  0.52100  1.0000
  H   H1043     1.0  0.75492  0.41424  0.13955  1.0000
  C   C595      1.0  0.70685  0.42174  0.17942  1.0000
  H   H1044     1.0  0.88460  0.33269  0.41253  1.0000
  C   C596      1.0  0.86353  0.41407  0.47885  1.0000
  H   H1045     1.0  0.73694  0.02545  0.45544  1.0000
  C   C597      1.0  0.71527  0.02801  0.46542  1.0000
  H   H1046     1.0  0.76286  0.34962  0.22889  1.0000
  S   S124      1.0  0.00997  0.39091  0.10106  1.0000
  H   H1047     1.0  0.88163  0.44464  0.51450  1.0000
  H   H1048     1.0  0.77520  0.43781  0.16182  1.0000
  H   H1049     1.0  0.92741  0.36082  0.49288  1.0000
  H   H1050     1.0  0.85159  0.36556  0.46783  1.0000
  H   H1051     1.0  0.90690  0.37444  0.42397  1.0000
  S   S125      1.0  0.83296  0.42583  0.38482  1.0000
  C   C598      1.0  0.86099  0.43743  0.50577  1.0000
  H   H1052     1.0  0.83800  0.94518  0.52133  1.0000
  C   C599      1.0  0.79288  0.00576  0.49838  1.0000
  H   H1053     1.0  0.99444  0.36835  0.02883  1.0000
  H   H1054     1.0  0.70826  0.40723  0.15611  1.0000
  H   H1055     1.0  0.75228  0.37143  0.26603  1.0000
  C   C600      1.0  0.88398  0.37287  0.42535  1.0000
  H   H1056     1.0  0.80804  0.99621  0.47913  1.0000
  H   H1057     1.0  0.72516  0.44381  0.10663  1.0000
  C   C601      1.0  0.79104  0.40451  0.50964  1.0000
  H   H1058     1.0  0.88269  0.35284  0.37034  1.0000
  H   H1059     1.0  0.72694  0.37832  0.20412  1.0000
  C   C602      1.0  0.76629  0.99023  0.50056  1.0000
  H   H1060     1.0  0.87481  0.38961  0.41134  1.0000
  H   H1061     1.0  0.72627  0.95788  0.49806  1.0000
  H   H1062     1.0  0.91325  0.41535  0.51539  1.0000
  S   S126      1.0  0.00847  0.43479  0.19324  1.0000
  H   H1063     1.0  0.91644  0.40606  0.46630  1.0000
  C   C603      1.0  0.74846  0.38552  0.20660  1.0000
  H   H1064     1.0  0.77125  0.41862  0.22202  1.0000
  H   H1065     1.0  0.96487  0.40472  0.51802  1.0000
  H   H1066     1.0  0.70493  0.43597  0.49079  1.0000
  H   H1067     1.0  0.88407  0.35245  0.47903  1.0000
  C   C604      1.0  0.70368  0.00294  0.48202  1.0000
  H   H1068     1.0  0.73487  0.42180  0.51295  1.0000
  H   H1069     1.0  0.78855  0.02473  0.48633  1.0000
  H   H1070     1.0  0.87299  0.42094  0.45139  1.0000
  H   H1071     1.0  0.78501  0.37574  0.24117  1.0000
  H   H1072     1.0  0.75815  0.98776  0.47056  1.0000
  C   C605      1.0  0.69832  0.03689  0.43038  1.0000
  S   S127      1.0  0.76667  0.43756  0.40254  1.0000
  H   H1073     1.0  0.71544  0.04331  0.48718  1.0000
  H   H1074     1.0  0.96433  0.38987  0.47050  1.0000
  H   H1075     1.0  0.69830  0.02240  0.40710  1.0000
  H   H1076     1.0  0.71046  0.38832  0.30314  1.0000
  Fe  Fe63      1.0  0.01390  0.40830  0.24347  1.0000
  H   H1077     1.0  0.75921  0.38216  0.17860  1.0000
  C   C606      1.0  0.74901  0.41384  0.21769  1.0000
  N   N35       1.0  0.73542  0.43179  0.18920  1.0000
  H   H1078     1.0  0.70754  0.05440  0.41845  1.0000
  H   H1079     1.0  0.99202  0.97422  0.04199  1.0000
  H   H1080     1.0  0.70774  0.98858  0.45910  1.0000
  H   H1081     1.0  0.69787  0.41190  0.20514  1.0000
  C   C607      1.0  0.94372  0.41193  0.02972  1.0000
  C   C608      1.0  0.01378  0.37817  0.02406  1.0000
  S   S128      1.0  0.71693  0.44239  0.31494  1.0000
  C   C609      1.0  0.96040  0.38701  0.50208  1.0000
  H   H1082     1.0  0.91824  0.43598  0.39511  1.0000
  S   S129      1.0  0.79247  0.00605  0.61097  1.0000
  Fe  Fe64      1.0  0.71171  0.11831  0.68058  1.0000
  S   S130      1.0  0.70530  0.08946  0.72717  1.0000
  S   S131      1.0  0.72698  0.10848  0.62081  1.0000
  Fe  Fe65      1.0  0.69451  0.16176  0.73278  1.0000
  C   C610      1.0  0.69717  0.00399  0.55402  1.0000
  N   N36       1.0  0.69824  0.40168  0.61813  1.0000
  Fe  Fe66      1.0  0.72627  0.11742  0.76583  1.0000
  S   S132      1.0  0.75920  0.10699  0.80927  1.0000
  H   H1083     1.0  0.00348  0.39595  0.89881  1.0000
  H   H1084     1.0  0.84914  0.43297  0.53257  1.0000
  S   S133      1.0  0.73571  0.14496  0.71844  1.0000
  H   H1085     1.0  0.00762  0.03609  0.94540  1.0000
  Fe  Fe67      1.0  0.91209  0.13112  0.76866  1.0000
  S   S134      1.0  0.87550  0.12292  0.72999  1.0000
  S   S135      1.0  0.90941  0.13861  0.83248  1.0000
  H   H1086     1.0  0.69486  0.30242  0.86683  1.0000
  S   S136      1.0  0.97438  0.37034  0.79298  1.0000
  C   C611      1.0  0.70283  0.03243  0.79123  1.0000
  Fe  Fe68      1.0  0.78967  0.36494  0.67164  1.0000
  S   S137      1.0  0.78977  0.37452  0.73573  1.0000
  S   S138      1.0  0.79381  0.39631  0.62713  1.0000
  Fe  Fe69      1.0  0.77981  0.31002  0.68731  1.0000
  S   S139      1.0  0.77855  0.31518  0.75178  1.0000
  S   S140      1.0  0.77610  0.27174  0.66057  1.0000
  Fe  Fe70      1.0  0.75252  0.34907  0.73881  1.0000
  S   S141      1.0  0.71574  0.35979  0.77657  1.0000
  Fe  Fe71      1.0  0.81595  0.33985  0.74337  1.0000
  S   S142      1.0  0.84977  0.33120  0.78805  1.0000
  S   S143      1.0  0.75074  0.34181  0.67463  1.0000
  S   S144      1.0  0.81885  0.33235  0.67905  1.0000
  C   C612      1.0  0.88466  0.34160  0.78735  1.0000
  N   N37       1.0  0.00981  0.99086  0.99023  1.0000
  H   H1087     1.0  0.98440  0.28583  0.86826  1.0000
  C   C613      1.0  0.94049  0.35784  0.78969  1.0000
  C   C614      1.0  0.93148  0.33885  0.81469  1.0000
  C   C615      1.0  0.90357  0.33120  0.81409  1.0000
  H   H1088     1.0  0.94587  0.33052  0.83508  1.0000
  H   H1089     1.0  0.89671  0.31710  0.83449  1.0000
  H   H1090     1.0  0.92617  0.31369  0.93442  1.0000
  H   H1091     1.0  0.94930  0.43115  0.95819  1.0000
  C   C616      1.0  0.96191  0.22557  0.85560  1.0000
  H   H1092     1.0  0.95775  0.32694  0.95361  1.0000
  C   C617      1.0  0.79196  0.10840  0.78747  1.0000
  C   C618      1.0  0.81572  0.11056  0.81066  1.0000
  C   C619      1.0  0.84173  0.11408  0.79325  1.0000
  C   C620      1.0  0.84397  0.11547  0.75268  1.0000
  C   C621      1.0  0.82040  0.11178  0.72957  1.0000
  C   C622      1.0  0.79443  0.10825  0.74693  1.0000
  H   H1093     1.0  0.81394  0.11029  0.84206  1.0000
  H   H1094     1.0  0.85986  0.11611  0.81127  1.0000
  H   H1095     1.0  0.82206  0.11237  0.69813  1.0000
  H   H1096     1.0  0.77630  0.10574  0.72880  1.0000
  C   C623      1.0  0.70994  0.22266  0.71709  1.0000
  C   C624      1.0  0.72737  0.21278  0.68850  1.0000
  C   C625      1.0  0.74695  0.22826  0.67017  1.0000
  C   C626      1.0  0.74921  0.25361  0.68046  1.0000
  C   C627      1.0  0.73087  0.26381  0.70774  1.0000
  C   C628      1.0  0.71121  0.24832  0.72599  1.0000
  H   H1097     1.0  0.72591  0.19319  0.68059  1.0000
  H   H1098     1.0  0.76071  0.22047  0.64848  1.0000
  H   H1099     1.0  0.73220  0.28348  0.71538  1.0000
  C   C629      1.0  0.71799  0.33610  0.57437  1.0000
  C   C630      1.0  0.77359  0.03407  0.61386  1.0000
  C   C631      1.0  0.78087  0.05418  0.58975  1.0000
  C   C632      1.0  0.76622  0.07684  0.59179  1.0000
  C   C633      1.0  0.74467  0.07970  0.61859  1.0000
  C   C634      1.0  0.73717  0.05945  0.64243  1.0000
  C   C635      1.0  0.75137  0.03650  0.63970  1.0000
  C   C636      1.0  0.75201  0.00054  0.81220  1.0000
  H   H1100     1.0  0.77196  0.09238  0.57314  1.0000
  H   H1101     1.0  0.71991  0.06118  0.66209  1.0000
  H   H1102     1.0  0.74536  0.02087  0.65796  1.0000
  H   H1103     1.0  0.91986  0.35838  0.95079  1.0000
  H   H1104     1.0  0.87927  0.39911  0.55701  1.0000
  C   C637      1.0  0.69582  0.03283  0.55954  1.0000
  H   H1105     1.0  0.87949  0.36843  0.74105  1.0000
  C   C638      1.0  0.79242  0.38947  0.57685  1.0000
  H   H1106     1.0  0.79402  0.34929  0.58368  1.0000
  H   H1107     1.0  0.74064  0.99298  0.78647  1.0000
  C   C639      1.0  0.92158  0.36845  0.76316  1.0000
  C   C640      1.0  0.99558  0.41535  0.89513  1.0000
  C   C641      1.0  0.89386  0.36012  0.76157  1.0000
  H   H1108     1.0  0.86836  0.04653  0.67979  1.0000
  C   C642      1.0  0.96376  0.41548  0.88816  1.0000
  H   H1109     1.0  0.87880  0.08841  0.65384  1.0000
  Fe  Fe72      1.0  0.94040  0.16918  0.82179  1.0000
  H   H1110     1.0  0.96296  0.05788  0.99960  1.0000
  C   C643      1.0  0.71734  0.42558  0.67857  1.0000
  C   C644      1.0  0.79315  0.36474  0.56320  1.0000
  H   H1111     1.0  0.96058  0.40824  0.85802  1.0000
  H   H1112     1.0  0.86650  0.33756  0.60390  1.0000
  H   H1113     1.0  0.92821  0.99358  0.71946  1.0000
  S   S145      1.0  0.68675  0.13621  0.78342  1.0000
  H   H1114     1.0  0.75263  0.02407  0.74622  1.0000
  H   H1115     1.0  0.85047  0.96402  0.56138  1.0000
  H   H1116     1.0  0.83327  0.00069  0.67236  1.0000
  S   S146      1.0  0.94691  0.10358  0.77320  1.0000
  H   H1117     1.0  0.79121  0.99065  0.84206  1.0000
  H   H1118     1.0  0.00173  0.08507  0.86293  1.0000
  C   C645      1.0  0.96459  0.28151  0.76355  1.0000
  C   C646      1.0  0.89357  0.03610  0.77803  1.0000
  H   H1119     1.0  0.72026  0.03497  0.84835  1.0000
  C   C647      1.0  0.96099  0.25185  0.85815  1.0000
  H   H1120     1.0  0.97170  0.29973  0.77583  1.0000
  H   H1121     1.0  0.86989  0.99222  0.75058  1.0000
  H   H1122     1.0  0.77780  0.05979  0.83372  1.0000
  H   H1123     1.0  0.96034  0.36854  0.88306  1.0000
  C   C648      1.0  0.93096  0.35367  0.92366  1.0000
  H   H1124     1.0  0.91790  0.38370  0.85310  1.0000
  H   H1125     1.0  0.79793  0.05229  0.56958  1.0000
  H   H1126     1.0  0.81202  0.02832  0.89995  1.0000
  H   H1127     1.0  0.75065  0.99740  0.55817  1.0000
  C   C649      1.0  0.77573  0.03915  0.83781  1.0000
  H   H1128     1.0  0.96594  0.98098  0.78979  1.0000
  H   H1129     1.0  0.75383  0.05572  0.76162  1.0000
  H   H1130     1.0  0.70878  0.38573  0.67461  1.0000
  C   C650      1.0  0.79806  0.04447  0.71479  1.0000
  H   H1131     1.0  0.75212  0.04723  0.89095  1.0000
  C   C651      1.0  0.96846  0.05855  0.87013  1.0000
  C   C652      1.0  0.77221  0.95707  0.82120  1.0000
  H   H1132     1.0  0.69675  0.43062  0.69053  1.0000
  C   C653      1.0  0.87452  0.00732  0.72913  1.0000
  H   H1133     1.0  0.99643  0.05887  0.75848  1.0000
  H   H1134     1.0  0.68844  0.34013  0.70629  1.0000
  S   S147      1.0  0.68725  0.20306  0.74303  1.0000
  H   H1135     1.0  0.87512  0.06853  0.71819  1.0000
  H   H1136     1.0  0.80317  0.05487  0.77444  1.0000
  C   C654      1.0  0.87643  0.39738  0.86026  1.0000
  H   H1137     1.0  0.92456  0.05352  0.72190  1.0000
  C   C655      1.0  0.79376  0.03902  0.75806  1.0000
  H   H1138     1.0  0.91531  0.35276  0.89995  1.0000
  C   C656      1.0  0.72160  0.36404  0.58317  1.0000
  Fe  Fe73      1.0  0.97494  0.13709  0.76801  1.0000
  H   H1139     1.0  0.68720  0.32442  0.92259  1.0000
  S   S148      1.0  0.93204  0.20877  0.84199  1.0000
  H   H1140     1.0  0.97528  0.40772  0.96415  1.0000
  H   H1141     1.0  0.89013  0.97746  0.69086  1.0000
  N   N38       1.0  0.79418  0.19823  0.79053  1.0000
  C   C657      1.0  0.79138  0.22469  0.80570  1.0000
  C   C658      1.0  0.82072  0.18655  0.80558  1.0000
  C   C659      1.0  0.79604  0.19992  0.74660  1.0000
  C   C660      1.0  0.76932  0.18212  0.80036  1.0000
  C   C661      1.0  0.76069  0.18083  0.84377  1.0000
  C   C662      1.0  0.76601  0.23961  0.79068  1.0000
  C   C663      1.0  0.80534  0.17564  0.72532  1.0000
  C   C664      1.0  0.82941  0.19275  0.84810  1.0000
  C   C665      1.0  0.85499  0.17780  0.86012  1.0000
  H   H1142     1.0  0.73873  0.99549  0.83754  1.0000
  C   C666      1.0  0.76211  0.26387  0.81375  1.0000
  C   C667      1.0  0.80189  0.17804  0.68123  1.0000
  H   H1143     1.0  0.81015  0.23572  0.79771  1.0000
  H   H1144     1.0  0.79079  0.22521  0.83792  1.0000
  H   H1145     1.0  0.81988  0.16573  0.80246  1.0000
  H   H1146     1.0  0.83863  0.19277  0.78749  1.0000
  H   H1147     1.0  0.81068  0.21506  0.73771  1.0000
  H   H1148     1.0  0.77565  0.20540  0.73402  1.0000
  H   H1149     1.0  0.75094  0.18801  0.78291  1.0000
  H   H1150     1.0  0.77287  0.16234  0.79135  1.0000
  H   H1151     1.0  0.76059  0.19942  0.85807  1.0000
  H   H1152     1.0  0.77483  0.16799  0.85969  1.0000
  H   H1153     1.0  0.76928  0.24479  0.75974  1.0000
  H   H1154     1.0  0.74654  0.22867  0.79309  1.0000
  H   H1155     1.0  0.79302  0.15932  0.73484  1.0000
  H   H1156     1.0  0.82749  0.17151  0.73133  1.0000
  H   H1157     1.0  0.83493  0.21291  0.85083  1.0000
  H   H1158     1.0  0.81282  0.18872  0.86926  1.0000
  H   H1159     1.0  0.85076  0.15731  0.85858  1.0000
  H   H1160     1.0  0.87269  0.18255  0.84083  1.0000
  H   H1161     1.0  0.86093  0.18260  0.89049  1.0000
  H   H1162     1.0  0.01367  0.19177  0.78017  1.0000
  H   H1163     1.0  0.76325  0.01500  0.88727  1.0000
  C   C668      1.0  0.71581  0.40090  0.65456  1.0000
  H   H1164     1.0  0.75638  0.25961  0.84436  1.0000
  H   H1165     1.0  0.78140  0.27527  0.81347  1.0000
  H   H1166     1.0  0.74519  0.27506  0.80037  1.0000
  H   H1167     1.0  0.77958  0.17912  0.67343  1.0000
  H   H1168     1.0  0.81265  0.19504  0.67013  1.0000
  H   H1169     1.0  0.81078  0.16121  0.66679  1.0000
  N   N39       1.0  0.89162  0.25348  0.73909  1.0000
  C   C669      1.0  0.87401  0.26452  0.77099  1.0000
  C   C670      1.0  0.88670  0.26848  0.70237  1.0000
  C   C671      1.0  0.88386  0.22625  0.73373  1.0000
  C   C672      1.0  0.92208  0.25479  0.74912  1.0000
  C   C673      1.0  0.93294  0.28076  0.76289  1.0000
  C   C674      1.0  0.87717  0.25225  0.81172  1.0000
  C   C675      1.0  0.89742  0.21279  0.69851  1.0000
  C   C676      1.0  0.85751  0.26594  0.68355  1.0000
  C   C677      1.0  0.85672  0.27886  0.64379  1.0000
  C   C678      1.0  0.90836  0.04060  0.71031  1.0000
  C   C679      1.0  0.85914  0.26547  0.84199  1.0000
  C   C680      1.0  0.88502  0.18665  0.69285  1.0000
  H   H1170     1.0  0.85167  0.26319  0.76320  1.0000
  H   H1171     1.0  0.87817  0.28497  0.77403  1.0000
  H   H1172     1.0  0.88948  0.28890  0.70812  1.0000
  H   H1173     1.0  0.90257  0.26393  0.67997  1.0000
  H   H1174     1.0  0.86098  0.22405  0.73188  1.0000
  H   H1175     1.0  0.89012  0.21508  0.75976  1.0000
  H   H1176     1.0  0.92749  0.24088  0.77217  1.0000
  H   H1177     1.0  0.93472  0.24912  0.72351  1.0000
  C   C681      1.0  0.79118  0.40932  0.54994  1.0000
  H   H1178     1.0  0.92580  0.29626  0.74383  1.0000
  H   H1179     1.0  0.87079  0.23227  0.81101  1.0000
  H   H1180     1.0  0.89886  0.25321  0.82199  1.0000
  H   H1181     1.0  0.92003  0.21057  0.70358  1.0000
  H   H1182     1.0  0.89437  0.22316  0.67086  1.0000
  H   H1183     1.0  0.85143  0.24611  0.67876  1.0000
  H   H1184     1.0  0.84158  0.27492  0.70224  1.0000
  H   H1185     1.0  0.87067  0.26912  0.62301  1.0000
  H   H1186     1.0  0.83530  0.27823  0.63188  1.0000
  H   H1187     1.0  0.86315  0.29881  0.64638  1.0000
  H   H1188     1.0  0.91032  0.04985  0.78494  1.0000
  H   H1189     1.0  0.87469  0.04781  0.77391  1.0000
  C   C682      1.0  0.73720  0.42278  0.71299  1.0000
  H   H1190     1.0  0.83700  0.26510  0.83333  1.0000
  H   H1191     1.0  0.86144  0.25592  0.87058  1.0000
  H   H1192     1.0  0.86559  0.28533  0.84546  1.0000
  H   H1193     1.0  0.88530  0.17599  0.72062  1.0000
  H   H1194     1.0  0.86333  0.18805  0.68231  1.0000
  H   H1195     1.0  0.89722  0.17603  0.67097  1.0000
  C   C683      1.0  0.97300  0.99466  0.76756  1.0000
  H   H1196     1.0  0.71417  0.29002  0.95321  1.0000
  H   H1197     1.0  0.73065  0.40704  0.73214  1.0000
  C   C684      1.0  0.71222  0.41853  0.58877  1.0000
  H   H1198     1.0  0.79673  0.03154  0.83206  1.0000
  H   H1199     1.0  0.87697  0.02453  0.87561  1.0000
  C   C685      1.0  0.87923  0.03627  0.84907  1.0000
  C   C686      1.0  0.99063  0.97726  0.96256  1.0000
  H   H1200     1.0  0.85596  0.01970  0.72947  1.0000
  H   H1201     1.0  0.94183  0.26169  0.85269  1.0000
  C   C687      1.0  0.92340  0.00348  0.74718  1.0000
  H   H1202     1.0  0.92837  0.38330  0.74388  1.0000
  C   C688      1.0  0.88482  0.05763  0.69437  1.0000
  H   H1203     1.0  0.00113  0.42641  0.92142  1.0000
  C   C689      1.0  0.90773  0.40074  0.86458  1.0000
  H   H1204     1.0  0.80537  0.02177  0.76531  1.0000
  C   C690      1.0  0.84748  0.98455  0.67669  1.0000
  C   C691      1.0  0.00883  0.02139  0.85876  1.0000
  H   H1205     1.0  0.94848  0.02510  0.78950  1.0000
  C   C692      1.0  0.91638  0.40581  0.90749  1.0000
  H   H1206     1.0  0.79166  0.94632  0.82576  1.0000
  N   N40       1.0  0.75492  0.02875  0.80919  1.0000
  H   H1207     1.0  0.84632  0.36594  0.60226  1.0000
  C   C693      1.0  0.98673  0.21303  0.86347  1.0000
  H   H1208     1.0  0.86935  0.38051  0.87651  1.0000
  N   N41       1.0  0.90000  0.02184  0.74113  1.0000
  H   H1209     1.0  0.90809  0.01028  0.82391  1.0000
  H   H1210     1.0  0.91409  0.41678  0.84587  1.0000
  S   S149      1.0  0.94335  0.08143  0.87934  1.0000
  C   C694      1.0  0.73147  0.17023  0.84834  1.0000
  H   H1211     1.0  0.86529  0.41424  0.87107  1.0000
  H   H1212     1.0  0.88372  0.00631  0.66557  1.0000
  C   C695      1.0  0.95386  0.37315  0.91339  1.0000
  C   C696      1.0  0.69759  0.42068  0.54856  1.0000
  H   H1213     1.0  0.91838  0.03102  0.68519  1.0000
  N   N42       1.0  0.94644  0.40065  0.91681  1.0000
  Fe  Fe74      1.0  0.94621  0.11320  0.83669  1.0000
  H   H1214     1.0  0.70433  0.99565  0.58211  1.0000
  C   C697      1.0  0.89597  0.07626  0.66437  1.0000
  H   H1215     1.0  0.74000  0.36620  0.60207  1.0000
  H   H1216     1.0  0.93991  0.02780  0.87703  1.0000
  C   C698      1.0  0.88870  0.01993  0.81500  1.0000
  H   H1217     1.0  0.89470  0.05122  0.85518  1.0000
  C   C699      1.0  0.87607  0.99390  0.68907  1.0000
  H   H1218     1.0  0.78904  0.03855  0.93810  1.0000
  C   C700      1.0  0.83755  0.94751  0.55348  1.0000
  H   H1219     1.0  0.78492  0.06042  0.70503  1.0000
  H   H1220     1.0  0.97522  0.07114  0.95459  1.0000
  C   C701      1.0  0.76928  0.03476  0.88152  1.0000
  C   C702      1.0  0.96112  0.03315  0.87120  1.0000
  H   H1221     1.0  0.94174  0.97601  0.91826  1.0000
  H   H1222     1.0  0.95944  0.02841  0.73972  1.0000
  H   H1223     1.0  0.81999  0.04957  0.70932  1.0000
  H   H1224     1.0  0.73706  0.32881  0.56022  1.0000
  H   H1225     1.0  0.69748  0.25610  0.74771  1.0000
  H   H1226     1.0  0.87249  0.00551  0.81018  1.0000
  C   C703      1.0  0.93749  0.39816  0.99158  1.0000
  S   S150      1.0  0.76990  0.97532  0.71073  1.0000
  S   S151      1.0  0.94005  0.16385  0.75717  1.0000
  H   H1227     1.0  0.90495  0.06620  0.63904  1.0000
  H   H1228     1.0  0.91719  0.98824  0.76767  1.0000
  H   H1229     1.0  0.83855  0.97192  0.69913  1.0000
  C   C704      1.0  0.96019  0.97418  0.97630  1.0000
  H   H1230     1.0  0.97232  0.36903  0.93176  1.0000
  H   H1231     1.0  0.92559  0.28459  0.79285  1.0000
  H   H1232     1.0  0.85894  0.04517  0.84245  1.0000
  H   H1233     1.0  0.91131  0.42584  0.91373  1.0000
  C   C705      1.0  0.95113  0.01503  0.76152  1.0000
  H   H1234     1.0  0.73744  0.39579  0.64714  1.0000
  H   H1235     1.0  0.80097  0.06081  0.90221  1.0000
  H   H1236     1.0  0.95413  0.32133  0.90192  1.0000
  S   S152      1.0  0.69367  0.97116  0.73617  1.0000
  C   C706      1.0  0.74448  0.00234  0.52792  1.0000
  C   C707      1.0  0.94309  0.32734  0.92865  1.0000
  H   H1237     1.0  0.91205  0.08855  0.67767  1.0000
  C   C708      1.0  0.00504  0.20704  0.76180  1.0000
  H   H1238     1.0  0.94466  0.37850  0.99538  1.0000
  H   H1239     1.0  0.97710  0.98448  0.73993  1.0000
  H   H1240     1.0  0.75860  0.41925  0.70242  1.0000
  C   C709      1.0  0.98506  0.26554  0.86708  1.0000
  H   H1241     1.0  0.97299  0.26611  0.78185  1.0000
  C   C710      1.0  0.86659  0.35749  0.59444  1.0000
  C   C711      1.0  0.77896  0.98495  0.81619  1.0000
  H   H1242     1.0  0.90239  0.39492  0.92667  1.0000
  H   H1243     1.0  0.79293  0.02764  0.69722  1.0000
  H   H1244     1.0  0.69169  0.40212  0.53659  1.0000
  H   H1245     1.0  0.92812  0.37534  0.54059  1.0000
  H   H1246     1.0  0.99269  0.00328  0.77776  1.0000
  C   C712      1.0  0.79444  0.04100  0.90689  1.0000
  H   H1247     1.0  0.97531  0.99517  0.86560  1.0000
  H   H1248     1.0  0.97290  0.27968  0.73357  1.0000
  H   H1249     1.0  0.99064  0.98652  0.93352  1.0000
  S   S153      1.0  0.97748  0.14442  0.83238  1.0000
  H   H1250     1.0  0.99600  0.30660  0.99001  1.0000
  H   H1251     1.0  0.99826  0.95789  0.95687  1.0000
  H   H1252     1.0  0.72570  0.16987  0.87962  1.0000
  H   H1253     1.0  0.71666  0.04117  0.56358  1.0000
  H   H1254     1.0  0.72611  0.37363  0.55518  1.0000
  H   H1255     1.0  0.79199  0.98677  0.78993  1.0000
  H   H1256     1.0  0.72850  0.06111  0.81834  1.0000
  C   C713      1.0  0.98120  0.01463  0.86489  1.0000
  H   H1257     1.0  0.71613  0.18197  0.83237  1.0000
  H   H1258     1.0  0.84907  0.97413  0.64877  1.0000
  H   H1259     1.0  0.73060  0.15073  0.83719  1.0000
  Fe  Fe75      1.0  0.77418  0.97485  0.64615  1.0000
  H   H1260     1.0  0.98756  0.19282  0.86225  1.0000
  S   S154      1.0  0.00966  0.13783  0.72442  1.0000
  C   C714      1.0  0.99020  0.03342  0.96599  1.0000
  H   H1261     1.0  0.01223  0.08626  0.73760  1.0000
  H   H1262     1.0  0.88328  0.36753  0.61044  1.0000
  C   C715      1.0  0.76247  0.03671  0.76808  1.0000
  C   C716      1.0  0.99597  0.06542  0.86327  1.0000
  H   H1263     1.0  0.98075  0.01492  0.02075  1.0000
  C   C717      1.0  0.72705  0.04021  0.81852  1.0000
  H   H1264     1.0  0.70744  0.03677  0.76032  1.0000
  H   H1265     1.0  0.95911  0.96106  0.00139  1.0000
  H   H1266     1.0  0.73416  0.41265  0.58432  1.0000
  H   H1267     1.0  0.95700  0.43551  0.88753  1.0000
  H   H1268     1.0  0.75868  0.95399  0.84689  1.0000
  C   C718      1.0  0.95299  0.41048  0.95709  1.0000
  C   C719      1.0  0.01054  0.22662  0.87367  1.0000
  Fe  Fe76      1.0  0.72949  0.95509  0.70080  1.0000
  C   C720      1.0  0.00945  0.29002  0.98487  1.0000
  H   H1269     1.0  0.71461  0.32530  0.60167  1.0000
  H   H1270     1.0  0.84659  0.39056  0.53740  1.0000
  H   H1271     1.0  0.87115  0.39463  0.82902  1.0000
  H   H1272     1.0  0.73734  0.44031  0.73047  1.0000
  H   H1273     1.0  0.79052  0.42851  0.56030  1.0000
  H   H1274     1.0  0.98428  0.21198  0.77340  1.0000
  H   H1275     1.0  0.00253  0.20009  0.73148  1.0000
  H   H1276     1.0  0.95088  0.99233  0.98506  1.0000
  H   H1277     1.0  0.00286  0.28087  0.95728  1.0000
  H   H1278     1.0  0.68542  0.04172  0.53424  1.0000
  H   H1279     1.0  0.92050  0.96096  0.95456  1.0000
  H   H1280     1.0  0.01446  0.08085  0.78935  1.0000
  H   H1281     1.0  0.69869  0.01200  0.79372  1.0000
  H   H1282     1.0  0.71371  0.43805  0.59996  1.0000
  H   H1283     1.0  0.76169  0.94963  0.79476  1.0000
  H   H1284     1.0  0.97248  0.02511  0.94997  1.0000
  C   C721      1.0  0.98118  0.05940  0.98001  1.0000
  H   H1285     1.0  0.91473  0.39841  0.98740  1.0000
  C   C722      1.0  0.99879  0.01649  0.00072  1.0000
  C   C723      1.0  0.94206  0.96328  0.94391  1.0000
  C   C724      1.0  0.01454  0.07166  0.76035  1.0000
  C   C725      1.0  0.69538  0.37519  0.60281  1.0000
  H   H1286     1.0  0.72435  0.95904  0.54967  1.0000
  S   S155      1.0  0.73235  0.95796  0.63538  1.0000
  H   H1287     1.0  0.81592  0.95143  0.56268  1.0000
  H   H1288     1.0  0.68952  0.36218  0.62688  1.0000
  C   C726      1.0  0.00982  0.25287  0.87500  1.0000
  H   H1289     1.0  0.70240  0.29886  0.79621  1.0000
  H   H1290     1.0  0.70021  0.33306  0.55434  1.0000
  C   C727      1.0  0.87146  0.35894  0.55050  1.0000
  C   C728      1.0  0.01621  0.04682  0.85814  1.0000
  H   H1291     1.0  0.00669  0.41695  0.83357  1.0000
  Fe  Fe77      1.0  0.01110  0.35248  0.82416  1.0000
  H   H1292     1.0  0.99840  0.06898  0.99555  1.0000
  H   H1293     1.0  0.68738  0.03059  0.62196  1.0000
  H   H1294     1.0  0.72497  0.44146  0.66071  1.0000
  H   H1295     1.0  0.00673  0.27636  0.00901  1.0000
  H   H1296     1.0  0.68540  0.33061  0.84138  1.0000
  C   C729      1.0  0.01089  0.42740  0.86097  1.0000
  C   C730      1.0  0.69502  0.28523  0.96955  1.0000
  H   H1297     1.0  0.69619  0.26517  0.97832  1.0000
  H   H1298     1.0  0.69392  0.29689  0.99633  1.0000
  H   H1299     1.0  0.80234  0.00775  0.52771  1.0000
  S   S156      1.0  0.01409  0.34117  0.88730  1.0000
  C   C731      1.0  0.86914  0.38639  0.53547  1.0000
  H   H1300     1.0  0.89185  0.35038  0.54447  1.0000
  C   C732      1.0  0.79333  0.35996  0.52291  1.0000
  H   H1301     1.0  0.01292  0.24551  0.74808  1.0000
  H   H1302     1.0  0.85541  0.34715  0.53602  1.0000
  H   H1303     1.0  0.74684  0.02303  0.52649  1.0000
  H   H1304     1.0  0.01465  0.02719  0.01749  1.0000
  C   C733      1.0  0.71415  0.96596  0.52256  1.0000
  Fe  Fe78      1.0  0.97230  0.84588  0.20679  1.0000
  S   S157      1.0  0.97415  0.84761  0.14141  1.0000
  S   S158      1.0  0.93385  0.85916  0.23980  1.0000
  H   H1305     1.0  0.88728  0.87684  0.28305  1.0000
  C   C734      1.0  0.00448  0.71222  0.07744  1.0000
  S   S159      1.0  0.99365  0.80834  0.21062  1.0000
  Fe  Fe79      1.0  0.75520  0.86356  0.37553  1.0000
  S   S160      1.0  0.76347  0.86039  0.31087  1.0000
  S   S161      1.0  0.76260  0.89850  0.41203  1.0000
  Fe  Fe80      1.0  0.73811  0.80981  0.38198  1.0000
  S   S162      1.0  0.74519  0.80142  0.31890  1.0000
  S   S163      1.0  0.72409  0.78281  0.42791  1.0000
  Fe  Fe81      1.0  0.78460  0.82384  0.32529  1.0000
  S   S164      1.0  0.82243  0.80554  0.29644  1.0000
  Fe  Fe82      1.0  0.72357  0.83814  0.30822  1.0000
  C   C735      1.0  0.82230  0.81756  0.17903  1.0000
  S   S165      1.0  0.77917  0.82874  0.38987  1.0000
  S   S166      1.0  0.71354  0.84484  0.37135  1.0000
  Fe  Fe83      1.0  0.75380  0.65710  0.33806  1.0000
  S   S167      1.0  0.74954  0.67788  0.28141  1.0000
  S   S168      1.0  0.76707  0.67334  0.39522  1.0000
  Fe  Fe84      1.0  0.73765  0.60707  0.30329  1.0000
  S   S169      1.0  0.73219  0.62351  0.24373  1.0000
  S   S170      1.0  0.72694  0.56632  0.31097  1.0000
  Fe  Fe85      1.0  0.77150  0.64445  0.25649  1.0000
  S   S171      1.0  0.80570  0.64652  0.21206  1.0000
  H   H1306     1.0  0.82091  0.67986  0.44139  1.0000
  C   C736      1.0  0.78093  0.56493  0.23847  1.0000
  S   S172      1.0  0.77878  0.62540  0.31365  1.0000
  C   C737      1.0  0.79914  0.83344  0.15915  1.0000
  C   C738      1.0  0.76877  0.82337  0.21681  1.0000
  H   H1307     1.0  0.78366  0.88168  0.17941  1.0000
  S   S173      1.0  0.98230  0.62459  0.27956  1.0000
  H   H1308     1.0  0.84395  0.85665  0.30633  1.0000
  Fe  Fe86      1.0  0.96066  0.65678  0.25003  1.0000
  S   S174      1.0  0.92388  0.67529  0.27885  1.0000
  S   S175      1.0  0.95818  0.63799  0.19182  1.0000
  H   H1309     1.0  0.82943  0.89689  0.26322  1.0000
  S   S176      1.0  0.81443  0.49811  0.39854  1.0000
  H   H1310     1.0  0.95581  0.48019  0.37942  1.0000
  Fe  Fe87      1.0  0.99894  0.81226  0.14585  1.0000
  H   H1311     1.0  0.83378  0.65811  0.40521  1.0000
  C   C739      1.0  0.78681  0.74070  0.28141  1.0000
  C   C740      1.0  0.78113  0.86723  0.20243  1.0000
  H   H1312     1.0  0.92266  0.47277  0.28114  1.0000
  C   C741      1.0  0.83837  0.65453  0.23105  1.0000
  C   C742      1.0  0.86149  0.65437  0.20646  1.0000
  C   C743      1.0  0.88793  0.65998  0.22124  1.0000
  C   C744      1.0  0.89131  0.66625  0.26045  1.0000
  C   C745      1.0  0.86821  0.66635  0.28504  1.0000
  C   C746      1.0  0.84175  0.66055  0.27044  1.0000
  H   H1313     1.0  0.85900  0.64962  0.17602  1.0000
  H   H1314     1.0  0.90561  0.65981  0.20217  1.0000
  H   H1315     1.0  0.87100  0.67031  0.31561  1.0000
  H   H1316     1.0  0.82404  0.66063  0.28965  1.0000
  C   C747      1.0  0.75077  0.54824  0.33772  1.0000
  C   C748      1.0  0.74639  0.52237  0.34076  1.0000
  C   C749      1.0  0.76563  0.50718  0.36020  1.0000
  C   C750      1.0  0.78951  0.51770  0.37665  1.0000
  C   C751      1.0  0.79362  0.54372  0.37454  1.0000
  C   C752      1.0  0.77415  0.55900  0.35528  1.0000
  H   H1317     1.0  0.72803  0.51399  0.32808  1.0000
  H   H1318     1.0  0.76168  0.48731  0.36270  1.0000
  H   H1319     1.0  0.81181  0.55202  0.38778  1.0000
  H   H1320     1.0  0.77716  0.57904  0.35431  1.0000
  C   C753      1.0  0.75862  0.89574  0.46316  1.0000
  H   H1321     1.0  0.69020  0.70887  0.19380  1.0000
  H   H1322     1.0  0.99771  0.74528  0.04271  1.0000
  H   H1323     1.0  0.80905  0.85011  0.14532  1.0000
  C   C754      1.0  0.74918  0.87347  0.48025  1.0000
  H   H1324     1.0  0.68402  0.71749  0.14400  1.0000
  H   H1325     1.0  0.00303  0.75739  0.16608  1.0000
  H   H1326     1.0  0.74423  0.85745  0.46211  1.0000
  C   C755      1.0  0.73594  0.75249  0.41859  1.0000
  C   C756      1.0  0.73556  0.74303  0.38067  1.0000
  C   C757      1.0  0.74402  0.71830  0.37360  1.0000
  C   C758      1.0  0.75437  0.70355  0.40403  1.0000
  C   C759      1.0  0.75504  0.71316  0.44191  1.0000
  C   C760      1.0  0.74524  0.73745  0.44933  1.0000
  H   H1327     1.0  0.72794  0.75451  0.35703  1.0000
  H   H1328     1.0  0.74291  0.71085  0.34449  1.0000
  H   H1329     1.0  0.76282  0.70172  0.46558  1.0000
  H   H1330     1.0  0.74538  0.74476  0.47873  1.0000
  H   H1331     1.0  0.97688  0.88016  0.07500  1.0000
  H   H1332     1.0  0.94128  0.70463  0.08889  1.0000
  C   C761      1.0  0.00661  0.71883  0.14707  1.0000
  C   C762      1.0  0.00364  0.74480  0.14140  1.0000
  H   H1333     1.0  0.72221  0.47096  0.19061  1.0000
  C   C763      1.0  0.00041  0.75427  0.10371  1.0000
  C   C764      1.0  0.90341  0.84347  0.25578  1.0000
  C   C765      1.0  0.88351  0.85721  0.27677  1.0000
  C   C766      1.0  0.85889  0.84581  0.28996  1.0000
  C   C767      1.0  0.85371  0.82052  0.28198  1.0000
  H   H1334     1.0  0.95254  0.45436  0.20803  1.0000
  H   H1335     1.0  0.92784  0.56466  0.33440  1.0000
  H   H1336     1.0  0.83707  0.48364  0.27129  1.0000
  H   H1337     1.0  0.81182  0.78940  0.42320  1.0000
  H   H1338     1.0  0.00872  0.71143  0.17608  1.0000
  H   H1339     1.0  0.85391  0.56169  0.33138  1.0000
  N   N43       1.0  0.84637  0.73094  0.35774  1.0000
  C   C768      1.0  0.83707  0.70564  0.37280  1.0000
  C   C769      1.0  0.83157  0.73615  0.31980  1.0000
  C   C770      1.0  0.87699  0.72937  0.34877  1.0000
  C   C771      1.0  0.84180  0.75198  0.38676  1.0000
  C   C772      1.0  0.00359  0.46857  0.31753  1.0000
  C   C773      1.0  0.85488  0.69439  0.40617  1.0000
  C   C774      1.0  0.88962  0.75253  0.32773  1.0000
  H   H1340     1.0  0.74418  0.50766  0.22761  1.0000
  S   S177      1.0  0.79438  0.45284  0.31838  1.0000
  S   S178      1.0  0.01198  0.86816  0.21402  1.0000
  C   C775      1.0  0.83984  0.67283  0.42656  1.0000
  C   C776      1.0  0.92115  0.75298  0.33137  1.0000
  H   H1341     1.0  0.83674  0.69158  0.34886  1.0000
  H   H1342     1.0  0.81525  0.70620  0.38274  1.0000
  H   H1343     1.0  0.83847  0.75428  0.30710  1.0000
  H   H1344     1.0  0.83695  0.72137  0.29810  1.0000
  H   H1345     1.0  0.88151  0.71266  0.33033  1.0000
  H   H1346     1.0  0.88909  0.72661  0.37608  1.0000
  H   H1347     1.0  0.86054  0.75477  0.40528  1.0000
  H   H1348     1.0  0.83897  0.77019  0.37114  1.0000
  H   H1349     1.0  0.73121  0.84885  0.17919  1.0000
  H   H1350     1.0  0.86405  0.80418  0.16847  1.0000
  H   H1351     1.0  0.87450  0.68675  0.39410  1.0000
  H   H1352     1.0  0.86021  0.70887  0.42820  1.0000
  H   H1353     1.0  0.88153  0.77046  0.33965  1.0000
  H   H1354     1.0  0.88451  0.75170  0.29618  1.0000
  H   H1355     1.0  0.77250  0.93346  0.47407  1.0000
  C   C777      1.0  0.84569  0.45881  0.48509  1.0000
  S   S179      1.0  0.99343  0.78595  0.09554  1.0000
  H   H1356     1.0  0.80775  0.82550  0.47936  1.0000
  H   H1357     1.0  0.82051  0.73292  0.43556  1.0000
  S   S180      1.0  0.71319  0.63701  0.33327  1.0000
  H   H1358     1.0  0.92952  0.78837  0.07425  1.0000
  C   C778      1.0  0.68606  0.74291  0.27542  1.0000
  H   H1359     1.0  0.88640  0.45321  0.40102  1.0000
  C   C779      1.0  0.80773  0.86961  0.22745  1.0000
  H   H1360     1.0  0.85363  0.66426  0.44880  1.0000
  H   H1361     1.0  0.93014  0.73523  0.32005  1.0000
  H   H1362     1.0  0.92953  0.76904  0.31440  1.0000
  H   H1363     1.0  0.92743  0.75541  0.36229  1.0000
  N   N44       1.0  0.91249  0.72922  0.15237  1.0000
  C   C780      1.0  0.93222  0.72498  0.18590  1.0000
  C   C781      1.0  0.90746  0.70435  0.13247  1.0000
  C   C782      1.0  0.92528  0.74792  0.12467  1.0000
  C   C783      1.0  0.88522  0.73958  0.16642  1.0000
  C   C784      1.0  0.86973  0.72331  0.19688  1.0000
  C   C785      1.0  0.93674  0.74756  0.21376  1.0000
  C   C786      1.0  0.90948  0.75234  0.08581  1.0000
  C   C787      1.0  0.84261  0.73563  0.20925  1.0000
  C   C788      1.0  0.96004  0.74199  0.24269  1.0000
  H   H1364     1.0  0.90463  0.45927  0.33530  1.0000
  H   H1365     1.0  0.95299  0.71977  0.17470  1.0000
  H   H1366     1.0  0.92565  0.70858  0.20385  1.0000
  H   H1367     1.0  0.90025  0.69021  0.15389  1.0000
  H   H1368     1.0  0.89026  0.70581  0.11095  1.0000
  H   H1369     1.0  0.94683  0.74237  0.11755  1.0000
  H   H1370     1.0  0.92723  0.76668  0.13865  1.0000
  H   H1371     1.0  0.88797  0.75883  0.17856  1.0000
  H   H1372     1.0  0.87063  0.74175  0.14156  1.0000
  H   H1373     1.0  0.88242  0.72013  0.22342  1.0000
  H   H1374     1.0  0.86411  0.70488  0.18422  1.0000
  H   H1375     1.0  0.94268  0.76479  0.19773  1.0000
  H   H1376     1.0  0.91768  0.75155  0.23070  1.0000
  H   H1377     1.0  0.88894  0.76095  0.09128  1.0000
  H   H1378     1.0  0.90643  0.73461  0.06944  1.0000
  H   H1379     1.0  0.83122  0.72243  0.22839  1.0000
  H   H1380     1.0  0.84660  0.75327  0.22549  1.0000
  H   H1381     1.0  0.82931  0.73971  0.18356  1.0000
  H   H1382     1.0  0.97986  0.73879  0.22711  1.0000
  H   H1383     1.0  0.82469  0.45271  0.47573  1.0000
  H   H1384     1.0  0.95510  0.72506  0.26029  1.0000
  H   H1385     1.0  0.74863  0.88329  0.13939  1.0000
  C   C789      1.0  0.98913  0.88720  0.05111  1.0000
  H   H1386     1.0  0.85738  0.46524  0.45909  1.0000
  H   H1387     1.0  0.76275  0.54939  0.18548  1.0000
  C   C790      1.0  0.84830  0.81612  0.15380  1.0000
  H   H1388     1.0  0.97805  0.52150  0.16479  1.0000
  C   C791      1.0  0.87363  0.80669  0.26109  1.0000
  H   H1389     1.0  0.91882  0.55735  0.28434  1.0000
  C   C792      1.0  0.81728  0.74911  0.41574  1.0000
  C   C793      1.0  0.85077  0.60065  0.34560  1.0000
  H   H1390     1.0  0.82960  0.60028  0.27337  1.0000
  C   C794      1.0  0.85688  0.52041  0.27531  1.0000
  C   C795      1.0  0.81038  0.89590  0.24503  1.0000
  H   H1391     1.0  0.81197  0.91029  0.22170  1.0000
  H   H1392     1.0  0.84325  0.85098  0.51436  1.0000
  H   H1393     1.0  0.99841  0.45507  0.34096  1.0000
  N   N45       1.0  0.77531  0.84178  0.18467  1.0000
  H   H1394     1.0  0.89905  0.57805  0.17312  1.0000
  H   H1395     1.0  0.79090  0.72079  0.33482  1.0000
  H   H1396     1.0  0.94556  0.76173  0.05064  1.0000
  H   H1397     1.0  0.94799  0.48271  0.18026  1.0000
  C   C796      1.0  0.76492  0.91633  0.48718  1.0000
  H   H1398     1.0  0.70562  0.86234  0.11565  1.0000
  H   H1399     1.0  0.75208  0.83093  0.23584  1.0000
  H   H1400     1.0  0.69880  0.92019  0.48876  1.0000
  C   C797      1.0  0.98553  0.49260  0.31947  1.0000
  H   H1401     1.0  0.87006  0.53041  0.29668  1.0000
  H   H1402     1.0  0.79580  0.77048  0.46027  1.0000
  H   H1403     1.0  0.82853  0.82520  0.20761  1.0000
  C   C798      1.0  0.72996  0.79035  0.20881  1.0000
  C   C799      1.0  0.99617  0.54604  0.20771  1.0000
  S   S181      1.0  0.96897  0.56778  0.20549  1.0000
  H   H1404     1.0  0.77528  0.50135  0.25539  1.0000
  C   C800      1.0  0.89672  0.59266  0.19596  1.0000
  H   H1405     1.0  0.86162  0.55206  0.20446  1.0000
  H   H1406     1.0  0.72597  0.87579  0.07685  1.0000
  H   H1407     1.0  0.86742  0.60592  0.23768  1.0000
  N   N46       1.0  0.95447  0.48903  0.31791  1.0000
  H   H1408     1.0  0.91964  0.47050  0.20879  1.0000
  H   H1409     1.0  0.84340  0.80784  0.12490  1.0000
  H   H1410     1.0  0.82642  0.86667  0.20925  1.0000
  C   C801      1.0  0.93295  0.69235  0.11220  1.0000
  H   H1411     1.0  0.73844  0.56418  0.21799  1.0000
  H   H1412     1.0  0.86988  0.78715  0.25479  1.0000
  H   H1413     1.0  0.91351  0.80727  0.23202  1.0000
  C   C802      1.0  0.93996  0.51416  0.32188  1.0000
  H   H1414     1.0  0.78644  0.82138  0.23708  1.0000
  C   C803      1.0  0.74933  0.84420  0.16028  1.0000
  H   H1415     1.0  0.94970  0.68862  0.13358  1.0000
  C   C804      1.0  0.91459  0.46978  0.35943  1.0000
  S   S182      1.0  0.01003  0.67006  0.12118  1.0000
  H   H1416     1.0  0.90393  0.48813  0.36225  1.0000
  C   C805      1.0  0.01575  0.89652  0.05804  1.0000
  H   H1417     1.0  0.86899  0.48401  0.29835  1.0000
  C   C806      1.0  0.90910  0.45509  0.39688  1.0000
  H   H1418     1.0  0.81180  0.57731  0.30047  1.0000
  H   H1419     1.0  0.97319  0.54243  0.32460  1.0000
  H   H1420     1.0  0.76313  0.87333  0.22049  1.0000
  H   H1421     1.0  0.90038  0.61128  0.18239  1.0000
  H   H1422     1.0  0.81960  0.52401  0.24258  1.0000
  C   C807      1.0  0.89836  0.81806  0.24804  1.0000
  H   H1423     1.0  0.74423  0.82595  0.14631  1.0000
  C   C808      1.0  0.81437  0.77238  0.44141  1.0000
  C   C809      1.0  0.00701  0.70255  0.11510  1.0000
  H   H1424     1.0  0.80777  0.85599  0.25175  1.0000
  H   H1425     1.0  0.81638  0.53490  0.29111  1.0000
  Fe  Fe88      1.0  0.99949  0.65556  0.18062  1.0000
  S   S183      1.0  0.00003  0.67753  0.23630  1.0000
  C   C810      1.0  0.75962  0.56550  0.20551  1.0000
  H   H1426     1.0  0.95424  0.45330  0.34850  1.0000
  H   H1427     1.0  0.96285  0.75826  0.26252  1.0000
  C   C811      1.0  0.81085  0.56805  0.22254  1.0000
  H   H1428     1.0  0.83052  0.59859  0.36065  1.0000
  H   H1429     1.0  0.81307  0.55602  0.19615  1.0000
  H   H1430     1.0  0.79351  0.75477  0.33877  1.0000
  H   H1431     1.0  0.79634  0.75671  0.26566  1.0000
  H   H1432     1.0  0.76124  0.58336  0.18890  1.0000
  C   C812      1.0  0.94248  0.47308  0.20787  1.0000
  H   H1433     1.0  0.91784  0.46513  0.42246  1.0000
  H   H1434     1.0  0.99116  0.50277  0.34674  1.0000
  C   C813      1.0  0.86099  0.56532  0.22958  1.0000
  C   C814      1.0  0.92544  0.66718  0.09364  1.0000
  H   H1435     1.0  0.71669  0.80343  0.19192  1.0000
  H   H1436     1.0  0.94421  0.65890  0.08001  1.0000
  H   H1437     1.0  0.85171  0.61940  0.33146  1.0000
  H   H1438     1.0  0.96306  0.53482  0.27590  1.0000
  S   S184      1.0  0.69491  0.84161  0.25521  1.0000
  C   C815      1.0  0.86776  0.59190  0.21385  1.0000
  H   H1439     1.0  0.94792  0.57724  0.29463  1.0000
  C   C816      1.0  0.92548  0.77022  0.05927  1.0000
  C   C817      1.0  0.83028  0.53555  0.26518  1.0000
  H   H1440     1.0  0.81200  0.58782  0.21211  1.0000
  H   H1441     1.0  0.90936  0.66973  0.07078  1.0000
  C   C818      1.0  0.80710  0.82734  0.51157  1.0000
  H   H1442     1.0  0.79739  0.74617  0.40044  1.0000
  H   H1443     1.0  0.87536  0.58242  0.30226  1.0000
  H   H1444     1.0  0.70750  0.74350  0.28727  1.0000
  H   H1445     1.0  0.91774  0.65383  0.11605  1.0000
  H   H1446     1.0  0.77601  0.58060  0.25857  1.0000
  H   H1447     1.0  0.72639  0.84232  0.08460  1.0000
  H   H1448     1.0  0.83292  0.77469  0.46027  1.0000
  H   H1449     1.0  0.86752  0.59958  0.36777  1.0000
  H   H1450     1.0  0.78962  0.72317  0.26439  1.0000
  H   H1451     1.0  0.91272  0.58973  0.21884  1.0000
  H   H1452     1.0  0.79231  0.90028  0.26380  1.0000
  C   C819      1.0  0.83141  0.58066  0.28444  1.0000
  H   H1453     1.0  0.85290  0.59764  0.19084  1.0000
  H   H1454     1.0  0.86930  0.51703  0.24860  1.0000
  H   H1455     1.0  0.00107  0.45912  0.28889  1.0000
  Fe  Fe89      1.0  0.98238  0.60709  0.22012  1.0000
  H   H1456     1.0  0.77806  0.54713  0.25464  1.0000
  H   H1457     1.0  0.91897  0.51327  0.30837  1.0000
  H   H1458     1.0  0.93645  0.51872  0.35319  1.0000
  C   C820      1.0  0.99515  0.52433  0.18476  1.0000
  H   H1459     1.0  0.01452  0.75630  0.27674  1.0000
  H   H1460     1.0  0.79153  0.82193  0.13423  1.0000
  Fe  Fe90      1.0  0.71057  0.65500  0.27439  1.0000
  N   N47       1.0  0.83391  0.56241  0.25109  1.0000
  C   C821      1.0  0.00076  0.73800  0.07181  1.0000
  C   C822      1.0  0.72546  0.86084  0.09943  1.0000
  C   C823      1.0  0.85463  0.57981  0.31546  1.0000
  H   H1461     1.0  0.87873  0.56007  0.24830  1.0000
  C   C824      1.0  0.93614  0.56060  0.30492  1.0000
  C   C825      1.0  0.75008  0.86404  0.12712  1.0000
  H   H1462     1.0  0.94172  0.50712  0.24039  1.0000
  H   H1463     1.0  0.99292  0.50467  0.29524  1.0000
  C   C826      1.0  0.94546  0.47565  0.28133  1.0000
  C   C827      1.0  0.94625  0.47277  0.35215  1.0000
  Fe  Fe91      1.0  0.80391  0.45859  0.38127  1.0000
  H   H1464     1.0  0.83810  0.49681  0.31989  1.0000
  H   H1465     1.0  0.76656  0.79253  0.17283  1.0000
  H   H1466     1.0  0.85738  0.83514  0.14979  1.0000
  C   C828      1.0  0.95238  0.48875  0.24250  1.0000
  C   C829      1.0  0.79969  0.73796  0.32182  1.0000
  H   H1467     1.0  0.95453  0.45649  0.28036  1.0000
  C   C830      1.0  0.84973  0.49469  0.29224  1.0000
  C   C831      1.0  0.76075  0.79632  0.20348  1.0000
  C   C832      1.0  0.95518  0.53772  0.30572  1.0000
  H   H1468     1.0  0.77254  0.78261  0.22139  1.0000
  H   H1469     1.0  0.72573  0.77089  0.19885  1.0000
  H   H1470     1.0  0.76941  0.86256  0.10983  1.0000
  H   H1471     1.0  0.72416  0.79164  0.23999  1.0000
  H   H1472     1.0  0.97503  0.49128  0.23970  1.0000
  H   H1473     1.0  0.76423  0.74427  0.28428  1.0000
  H   H1474     1.0  0.81506  0.79805  0.18406  1.0000
  H   H1475     1.0  0.00464  0.69965  0.05266  1.0000
  C   C833      1.0  0.75531  0.49335  0.24521  1.0000
  H   H1476     1.0  0.81067  0.86715  0.50763  1.0000
  H   H1477     1.0  0.74279  0.48873  0.27138  1.0000
  H   H1478     1.0  0.70582  0.67332  0.44806  1.0000
  H   H1479     1.0  0.68678  0.91312  0.06779  1.0000
  C   C834      1.0  0.76072  0.46965  0.22133  1.0000
  H   H1480     1.0  0.68804  0.72369  0.34744  1.0000
  H   H1481     1.0  0.97821  0.83165  0.02915  1.0000
  H   H1482     1.0  0.69081  0.71446  0.42166  1.0000
  H   H1483     1.0  0.68625  0.74154  0.18126  1.0000
  H   H1484     1.0  0.01546  0.48960  0.16949  1.0000
  Fe  Fe92      1.0  0.01519  0.86665  0.14838  1.0000
  H   H1485     1.0  0.91328  0.77398  0.03245  1.0000
  C   C835      1.0  0.74595  0.87190  0.52093  1.0000
  C   C836      1.0  0.01619  0.50622  0.18756  1.0000
  H   H1486     1.0  0.69489  0.69069  0.38432  1.0000
  C   C837      1.0  0.68731  0.92509  0.51574  1.0000
  H   H1487     1.0  0.77297  0.47504  0.19530  1.0000
  H   H1488     1.0  0.68365  0.75840  0.25400  1.0000
  H   H1489     1.0  0.71987  0.45515  0.23538  1.0000
  H   H1490     1.0  0.77348  0.45712  0.23970  1.0000
  H   H1491     1.0  0.74011  0.47034  0.13219  1.0000
  C   C838      1.0  0.73310  0.45701  0.20904  1.0000
  C   C839      1.0  0.68376  0.67640  0.44003  1.0000
  H   H1492     1.0  0.78501  0.82735  0.52068  1.0000
  C   C840      1.0  0.76630  0.45349  0.08936  1.0000
  H   H1493     1.0  0.84334  0.47500  0.50518  1.0000
  H   H1494     1.0  0.69144  0.45483  0.14594  1.0000
  H   H1495     1.0  0.78570  0.46152  0.10166  1.0000
  H   H1496     1.0  0.75882  0.46616  0.06586  1.0000
  C   C841      1.0  0.74413  0.45120  0.12091  1.0000
  C   C842      1.0  0.91785  0.87404  0.60093  1.0000
  H   H1497     1.0  0.95715  0.88059  0.00853  1.0000
  H   H1498     1.0  0.72301  0.45230  0.52923  1.0000
  Fe  Fe93      1.0  0.75535  0.92135  0.63871  1.0000
  S   S185      1.0  0.74939  0.91690  0.70377  1.0000
  S   S186      1.0  0.74848  0.88933  0.59610  1.0000
  H   H1499     1.0  0.84734  0.84470  0.64764  1.0000
  C   C843      1.0  0.90051  0.92666  0.71402  1.0000
  H   H1500     1.0  0.85906  0.92711  0.68976  1.0000
  Fe  Fe94      1.0  0.98326  0.92453  0.79552  1.0000
  H   H1501     1.0  0.88595  0.90010  0.61618  1.0000
  H   H1502     1.0  0.93201  0.88127  0.62393  1.0000
  H   H1503     1.0  0.81016  0.84475  0.64656  1.0000
  H   H1504     1.0  0.94084  0.84233  0.97960  1.0000
  H   H1505     1.0  0.82349  0.83789  0.58267  1.0000
  S   S187      1.0  0.97889  0.89463  0.93456  1.0000
  C   C844      1.0  0.75207  0.89252  0.54496  1.0000
  H   H1506     1.0  0.73858  0.85459  0.53383  1.0000
  H   H1507     1.0  0.80672  0.88740  0.62816  1.0000
  H   H1508     1.0  0.92119  0.85349  0.59802  1.0000
  C   C845      1.0  0.90366  0.92848  0.78425  1.0000
  H   H1509     1.0  0.84889  0.92777  0.60548  1.0000
  S   S188      1.0  0.00096  0.88976  0.82364  1.0000
  H   H1510     1.0  0.86936  0.84819  0.58284  1.0000
  H   H1511     1.0  0.87044  0.92136  0.56381  1.0000
  S   S189      1.0  0.95334  0.92571  0.74395  1.0000
  C   C846      1.0  0.97347  0.81879  0.00457  1.0000
  H   H1512     1.0  0.00783  0.77899  0.97614  1.0000
  C   C847      1.0  0.82875  0.85641  0.65300  1.0000
  N   N48       1.0  0.83717  0.87666  0.58533  1.0000
  H   H1513     1.0  0.79673  0.86009  0.57462  1.0000
  C   C848      1.0  0.97792  0.88755  0.01332  1.0000
  C   C849      1.0  0.83127  0.90059  0.56314  1.0000
  H   H1514     1.0  0.88425  0.87083  0.64108  1.0000
  Fe  Fe95      1.0  0.99827  0.91126  0.88011  1.0000
  H   H1515     1.0  0.98525  0.81319  0.94413  1.0000
  H   H1516     1.0  0.80926  0.87488  0.70269  1.0000
  H   H1517     1.0  0.84670  0.87390  0.70481  1.0000
  C   C850      1.0  0.91679  0.92702  0.74807  1.0000
  H   H1518     1.0  0.84098  0.89499  0.64165  1.0000
  Fe  Fe96      1.0  0.79012  0.93747  0.70922  1.0000
  C   C851      1.0  0.82841  0.88029  0.62711  1.0000
  C   C852      1.0  0.82783  0.86325  0.69625  1.0000
  H   H1519     1.0  0.82680  0.84589  0.71412  1.0000
  H   H1520     1.0  0.91054  0.92553  0.68593  1.0000
  C   C853      1.0  0.99335  0.89672  0.98180  1.0000
  H   H1521     1.0  0.83482  0.89805  0.53145  1.0000
  C   C854      1.0  0.87136  0.92759  0.71609  1.0000
  C   C855      1.0  0.84877  0.92400  0.57380  1.0000
  C   C856      1.0  0.85824  0.92884  0.75233  1.0000
  H   H1522     1.0  0.97494  0.79921  0.01529  1.0000
  C   C857      1.0  0.88786  0.87959  0.61221  1.0000
  C   C858      1.0  0.81898  0.85620  0.56836  1.0000
  H   H1523     1.0  0.99090  0.84390  0.96267  1.0000
  C   C859      1.0  0.94335  0.82334  0.99257  1.0000
  H   H1524     1.0  0.92977  0.82203  0.01854  1.0000
  C   C860      1.0  0.99335  0.82369  0.96985  1.0000
  C   C861      1.0  0.86721  0.86901  0.58137  1.0000
  H   H1525     1.0  0.76650  0.93071  0.54619  1.0000
  H   H1526     1.0  0.92314  0.88346  0.57303  1.0000
  S   S190      1.0  0.79747  0.93863  0.64500  1.0000
  C   C862      1.0  0.76152  0.91481  0.52790  1.0000
  H   H1527     1.0  0.91595  0.92869  0.81065  1.0000
  H   H1528     1.0  0.87499  0.87422  0.55191  1.0000
  H   H1529     1.0  0.94989  0.94456  0.93489  1.0000
  H   H1530     1.0  0.80903  0.90556  0.56641  1.0000
  H   H1531     1.0  0.00441  0.44726  0.85721  1.0000
  H   H1532     1.0  0.93662  0.80905  0.97096  1.0000
  S   S191      1.0  0.97718  0.94443  0.85243  1.0000
  S   S192      1.0  0.82166  0.92918  0.75685  1.0000
  C   C863      1.0  0.87453  0.92928  0.78632  1.0000
  H   H1533     1.0  0.86454  0.93007  0.81448  1.0000
  H   H1534     1.0  0.69812  0.91672  0.54124  1.0000
  H   H1535     1.0  0.01604  0.85302  0.91147  1.0000
  H   H1536     1.0  0.81775  0.81089  0.52469  1.0000
  C   C864      1.0  0.82128  0.85180  0.52376  1.0000
