data_image0
_chemical_formula_structural       H2C3HFeHSHC2H2CFeS2CFeCFeSH2SH3C2HFeCHC2HCHCH2S2H3SC2HCH2C4H5C6H5CH2C2H2FeHC2H4CH2C3H2NC2NHNCHSH3CH6C2HC2H3CH3CSCSH3C2H3SHCH4FeCH2SHSCH2CSHC2HCHFeSH2SCHCH3CHC2H2CH6CH2SH6SCH2FeC2HCHCH2CH3C2H4C3HNSHCSHC2HCH7C4SCH2CH11FeHSH3CHCSFeS2FeS2FeSFeS3FeS2H3FeSHSHFeS2FeS2FeSFeS3CSCH2SH5FeS2FeS2FeSFeS3H5FeHCFeS2FeS2FeSFeS3FeCFe2S2CHCS2FeSFeSCSC5H3SFeH2C7H4C6H4C6H5C5H6C3HFeH3C6H4C6H4C6H7FeHC6H4C6H4C6H4C6H7SHCH2CHC6H3C7H5CHC3HCHSC3H10CNC9H21SCHSCHCH2CNCHC6HC3H2SH11C2H4C2H10NC11H23NC3H6CHCH2CH4CH3SC2H7CH2CNC4H12NC7H15CH2C3HFeH2CHCSCNC2HC2H2C4HCHCH3CH2CH3NH6CH2CHCSCH3CH2SCHCH2CHFeHC3H3CH3C2H9C2H4SHCH3CH3CH3C2HC2H3CH2C2HC3H2C2H6C2NHCH8CH4CFeC2H3CFeCH4C2H3NCH3C2NSCH8SCH3CH3SH3CHSHC2H3CHCH9CH4CH2FeCH2CH3FeH2FeHCH2CH2CHCHC2HSHSCH2C2H4CH2CH4NH2CHNH3NCH2CHFeHSFeCH2CH5C4H2SH2CFeC2HC2H2CHC2FeSCH2NCSC2H4FeH3C2H2CHC2SH2CHCH2C2H2SH5C4HCHSH2CH8C2H3CHCH2FeH2SH3NH2CHC2HCHNHSH3C3SCHCH7CH2C4SH5C2H2CHCHFeCH2CH3CH4FeH2SCHCFeH7CH7CHSH2CSH4CH3CNC3HSH4SHCH2CHCH5CHCH2CH2C4H3CH2C2NH2C3H2CH4SCH3C2H11CHCHSH3C3HC2HC2H10CFeH5C2H4SH3CH3C2HC2H2FeCHC3H2CH2CHC2SH4CHNH3CH7CHCHCH4C2SCHC2H3C2HCNH2CH2C3HC4H2CH2SCHCH2C2H3CH2SH7SCH4SC2H3CH3SH2C4H4CH5CSCFeS2FeSCFeSFeS3FeS2FeS2FeCFeS3C6H6C3H4C2H3C2HCH2C6H4C6H9NH2CH3CH5CHCNHCHCHCHC2HFeH2C2HNCHCH3C2H4C2H2C2HSH3C3H2NHC2H2C4HCHCH3CH2CH5CH6SHCHCH3CH6C2H3NHCH2CH2C2HCH2CH4C2H4C3HCH3CH7CSHCHCH4SH2FeHCH3CHCHCHCH2C2H5C2H3CHNH3SCHFeCH4C2HC2H10CH5SCHCH2SH3CHCH12C2H2CHC2HFeS2FeS3HFeSHFeS2FeS2FeSFeS3FeS2FeS2FeSFeS3FeS2FeS2FeS2FeS2FeHFeS3FeS2FeS2FeSFeS3FeHSFeS2HFeS2FeS2FeSFeS3FeHSFeS2H3SHFeS2FeS2FeSFeS3C7H3CH2C2FeH2C7H4CH2CHC2H3CHCHC6H4C6H4C6H4C6H4C7H3C6H4C6H4C6H4C6H4CHC2HC2SH2C6H4C6H4C6H4C6H4NC4H2CH8CH3CH3CH5C2HNC12H29NC12H28NC7H21CHNC3H2CHCHCH7CSHCH8CHCH2NC12H25CHCHCH5C2H7C5H2CH2CH2CH5CHCH2CH2CH4CH2CH4C2HCHCFeH6C2NH2CHCHCH3CH6SH2C3H3CH4C3H4CH2C2H2CHCHCHCH2CH6NHCHC2H6CH6CHC2HC2H10CHNC4H2CNCH2C2H2CHCHCH4C2H3CHCH3C2HCH5CFeH5C2HC2H3NH4CHCH4CHCHNCHCHCHC2H3C2H2C4HCFeH6C2H4CN2HCHCH2CHCHC3H3SHCH3CH4CHCHC2H3C2H8C2H2CH4CH4CHCH2S2CH3CHC2H5CHCHFeCH6CHCH2CH3CH2CH4NH2CH5CSC2H3SCHC2H3C2H2CH2C3H5C3H4C2H4CHCH3CH4NHSHCH4CHCH3CHCH5CH2CH4CSH2C3H6CH2CHC3HCH2CSHCHCH10NHCH5CH2CH2CHCH4C2H5C2NH2SCNHSHCH2CSFeH3CH2CH2C2HCH4SH2CHCHCH3Fe2H2CH5CNH2C3H4CH6C2H4CH7SCH3SHCHCH2CH3CH6FeC2H2SHCHSFeNHSHSH2CHCHCH5NC3SH6C2HCHCH2S2H2CH5C2H2C3HFeS2FeS2FeSFeS3CS2HFeS2FeS2FeS2FeSFeS2FeS2FeH3CFeSNSH4CHFeS2CH2FeS2FeS2FeSFeS3H4CS2H2CH3CH6SC2H4FeC3HC2H4CHC6H5C6H6C2H2C6H4CHFeHC2HCSH3CH2C2H2C3H7FeHFeC2HC6H4C6H4C6H4C6H5C5H4C2H2CH2CHC3NFeHSHCHCH2CHCHCHC4H6CHC2HC2H2CNC12H21CH9C2HC3H4CSC3H2CH5S2H2FeHSCH2SCH4C2N2H4CH2CH2C2NHSH11CHCH2CH2CH4CH4C3N2H6C2H2SC2HC2HC2HSHSCH2SCHC3NC12H28CSH2CNC3H4C2H10C2H10CH4CH3NC9SCH32CHC2HC3H2SH2CH2CH2C2H5CHCHCHFeH4FeH7CH2CHC2H2C2H5C2H2CSH3CH2CHCHCHCSHC2H3CHFeH4C3H2CH2SNFeCSCHCH3CH5SH6CH2C6H8CHCSH2CHCH5CSH4CNH6C2H3FeH2C2SHCSCHCH8SH3CFeC2HCFeCH10CSH3FeCH2CHC2HCH2CH3CHFeCHCSHC2NH3S2FeSH2SH2S2FeHCFeSH2FeS2FeS2FeSFeS4C2H4SH3CFeS2FeS2FeSFeS3NCH2S2C3H3S3CSFeSCFeSH2SFeC6HSH5C2S2H3C6H4C6H11CH3C2HC6H4C6H4CH4CHNH2C4H3C6H5C6H4CHC6H8CHCFe2CHC2H3CH3CHCH2CH4CNC3H6C2H6CHCH3CH2FeH5C2H2CH4CNC12H30C3H5CH3C4H3CHSC4H4C2HCH2CH2FeHC2HCHCSC2H2CHC2H5C2HCNSH2CH6SH3CNC12H29CHCHC2HC2H2CH6NC10H26FeHCHCHCFeHFeCH3CHC2HSH6CHCHCSH3FeHSCH5FeH2CH3CHCH2CHCFe2H2SH2CHCNCH3C2H6C2H7S2HCH3CH2CH2SCH3CH2CHSH3CH3CH2C2SH5C2HCNCH5C5HCH6NH4C3H4CH8C3S2C2H2C3HN2H4N2H4C2H4C4HCHFeH2C3H8CH2CSHSH4CH2CH2C2HC2H3CH2CH6SFeCHCH3FeS2FeS2FeSFeHS2FeS2FeS2FeHFeS3FeS2FeS2Fe2S3FeSFeS2FeSFeS3FeS2HC2FeSFeHSH4FeS2FeHFeCS3FeS2FeSFeS2FeS2CSCH2FeSHSNH3C7H4C6H5C6H4C6H4C2HC4H3C6SH3C6H2SHC6H4C6H4NH3C4HCH4C6H4C6H6FeHC5H3CH4CHC2NC10H22C2H6NC11H29SHCH4CH5CH3CH3C4H2C2H4CH9NC9HCH25C2H2CH3CS2CFeSCH4CHCH2NH2FeH6NCH4CHC2H4CH2CHCHCHNC2HCH2CNSNHC2H2CH5CH4SCHC2H3FeC2H2CH2NHC2HCH2CHCH15C2H5CHCH3NC3H2CHC3H4CHFeHCH4C2H3CHCHCH2CH2CH3CH3C2H6C2SCH6C2HCH3CHCH3CH3CH4CH3C2H3CHSHCH6CH3CH2NH2C2FeCHCHCHSH2CH4SCHC3HNCH5C3HCH6C2H3CHCSH2CH2SH4CH3C3HSFeCH2CHC2H3CH2CH4CH4C2HCHCH2C2H2CH2CHCH3CH6C3HCH3FeH3CH2CH5C2H5SNH5CH2C2H5CHSHC2H2C2H3CFeH11CH5C3H3CSHCHCHC3HCH4C2H7CH3FeS2FeS2FeCFeS3FeS2FeSHFeSFeS3FeSHFeS2FeSFeS2HFeS2FeS2FeSFeS3C2HSHCHCH4SC3H2C3HSH2CH2C6NH3C6H4C6H10CH2C6H4C6H4CHC2H4CHCHCH3C7H4C6H6NH2CH3C3HCH2CHSC2H3CH4NHCNH6CH7CNC5HCH2CH4C5H6CH2C2NHC2H3SH3NH5CH3SCH6CH3NC12H13NH3CHCH7C3H2CHC6H2CH2SCHC3H2SH4SH4CH2CH4CH4CH2CHCHNCHSH4SH4CH2SH3CHSH3CHS2H2CH4CH6CH3SC3H6CHCH6FeH3C3SC2H3CH3FeH5CHFeHC2HCH6C2H2CH2C4H2SHSCH3FeHCNH4NH2SC2H3CH2CH2CH2SH3CH3C2H2FeCSHNH2C2NH10C4H10CHCH2CHC2H4C2HCHCH2C5FeCFeHC2H3FeSH3C2H3CH3C3HCH2C2H3NH2C2HCH2C2H2CH3CH2C3HCHC2H11C4H2CH2C2HC2H4CHC2H2C2H4CH6C2HCH5CHC2H2C2H3C2H3SH8C3H2CH6C6H2C2H4CHSH3CH7C2H4SH3CH2SH2CH2SH7CH3C2HCH3CHC2H2CHC2H2CHC2H2CH4CFeH8CHSCHFeS2HSHFeSFeSHS3HFeSHFeS2FeS2FeSFeS3FeS2FeS2FeSFeS3FeH2FeS2FeHFeS3HFeHSH3SFeS2FeS2FeSFeS3FeS2FeS2FeSFeHS2HFeS2FeS2CFeS3HSHFeSCFeSFeS2H3CH4C2HC6HCH8CH4C2H9CH5C7H4C6H4C6H4C7H4C6H6C6H4C6H4C6H4C6H6CHC6H5C5H4C6H4C6H5NC10H23C2HC4H4C3NHCH2C2H2S2NC11H23CFeHCHSCH4C2H5C2H4CHSH4FeC3H3CNCH3CH4CHNC12H28C2H8NC12H16CHCH11SH4NC3HC4H10C2H2CH2C3H2CH3NCHC2H2CHNCH5CHSHC2HC3H3CH4C2H2SH3CH4CH3C2HCH4CH4CH2CH3CH2C2HCHC2H4CH6CH9C4H5C2H2CH2NCHCH4CSHC2H3CNH7C2HC4HCH2SHCH2CSH2CHC2HCH2CHCH2NHCFeHCH5CHC3H2CHCNH6CHC2H2CHCHCHC2HC5H2CSH3C2SH9CH3CHCH8CHC2SCH2CH4CH4FeH2C2H3CSHCHC3HC4HCHSHC3SC2HNH3CHCHC2H5C2HNCH3CH2CHCH2FeH2FeCH4CH3C4HCH4CNH2C3H4CHC2H2C2H3CSHC2SH8CH3NH2C3HCHSH6CH2C2H3C3HCH2CNCHCHCHC3FeH2CHCH2CH9CH2C2H8CH4CHSH4C2SH4NHFeH2CH5CHCH3CH11CH2CH3CHNH6FeH5CH3CH2CH2CHCH4CH3C3HC3HC2H6CHCH2C2H4CH2C2NHC3H2CH2CHSH3CH4NHNSCHCH2CHCH2CH5C2SH12C2NHNH4CH3CHCHSCSHFeCH2CH4CH6CHSCHFe2S2H3CH3S2FeCHFeS2H2FeSNSHC3H6CHCHSCHCH3CH2CH2C4H4C8HCH8CH3CHNCH2C3H3C2HC2H5C4H13FeH4CHCH3CH2C4H4FeHCH3CSC2H3C2H3CFeS2FeHFeS3H3FeS2H2CH2FeHC4H2CHCHCH5CH2NCH3C2H4C2HSC2HCH5C2HCHSHC2H3CH5C3H6CH3C2H4FeSHCH7SCH2CHNHC2HC2H3C4H3SH3C2H3CH3CH3CHC3H3C2H2CNH2NC2HCH5C2HC4H2CH4CHC2FeSC2H3CH4CFeSHFeS2FeHFeS3C2HC2H4CFeS2H5FeS3H2CH2C2H3CH2C2HC3HCHC3HC3HC2HCHNH4C2HFeHC4H2CH6C6HC2HCH7CHCH9SH4CHC2H3CH6NCHC2H2CH3CH2CHCH3CHSH5CSH6FeS2FeS2FeHFeHS2FeS2FeS2FeHFeS3FeS2FeS2FeSFeS3FeS2FeS2FeCFeS3FeS2FeS2FeSFeHS2HFeS2FeS2FeSFeS3H3C2HC5H2CH5CH3CH2CH4C6H4C6H4C6H5C3HNCH4CHSH2CH2C6H4C6H5C3HC6H3CSH4C6H4C6H8FeC6H5CH3C3HNC11H22CH2NC12H27C2H3C2H2C3H3C3HCH2CH5CH4SH3NH2NC12H28CH2NC12H29CH7NH3CH11CH3CH2CHC2HC4HCNH4FeHCHC2H4SHCHCH3C3H2SHFeH4CHCH3C3H5CHCH2FeCSCH2FeHCH2CHC2N2C2H2SH5C2HC3HC2HC3HCH2CH8CHNH3CH4CH5CH3CSHCHCH4CHFeCHCHSCH7CH5CH2SHCHC2H3CHC3H2C2HCH2SH2FeHC2HSCH3C2H6CNCH3CNH4C2H3SH4SHC2NH2C3H2SH5CNC3H2CSHC2HC2HFeH3NH2CNH3CHCHCHCH3CNHC2HCHC2SCSC3HSHCHCSH2CH3C2H2CHC3HCFeC2H3CHSC2HC2HS2H4CH4FeCH3CH3CSHSHC2H4CHFeH5CHCH2CHC2H4CH3CH2CH2C3HCH2CH5CH3SCH2CH2CHCH8CHCH4CH4CHSH2CSHCHC2HCH9CH7CSHC3HC2FeSH2CHCH2SCH2FeHSHNH6C4FeCH2CHCHFeSH5FeC2H5CHCHNCH2CHNHCHC2H5CHCHCH2CH3CSH3Fe2H2CHCH2C2H2C2HCH18CH2C3SH2C5HC2HCH3SH3CH2CS2HCHCHCH2C2HFeH5CH3CH2C2HSHFeSH4CHC2HCH2NH4FeSH2C2HCH2SH2CHC3H4C3HCHCH3CH2C2H3CH2C3H2SC4HCH3CH3CHCNCHCH2SCH4CHCHCH6NH6
_chemical_formula_sum              "H5376 C3024 Fe336 S672 N168"
_cell_length_a       146.036
_cell_length_b       145.505
_cell_length_c       36.101
_cell_angle_alpha    74.4489
_cell_angle_beta     74.4255
_cell_angle_gamma    98.7681

_space_group_name_H-M_alt    "P 1"
_space_group_IT_number       1

loop_
  _space_group_symop_operation_xyz
  'x, y, z'

loop_
  _atom_site_type_symbol
  _atom_site_label
  _atom_site_symmetry_multiplicity
  _atom_site_fract_x
  _atom_site_fract_y
  _atom_site_fract_z
  _atom_site_occupancy
  H   H1        1.0  0.03861  0.46164  0.40773  1.0000
  H   H2        1.0  0.15698  0.47343  0.37288  1.0000
  C   C1        1.0  0.00051  0.47037  0.53326  1.0000
  C   C2        1.0  0.07325  0.48311  0.07747  1.0000
  C   C3        1.0  0.13953  0.50136  0.35743  1.0000
  H   H3        1.0  0.02570  0.46990  0.46962  1.0000
  Fe  Fe1       1.0  0.01150  0.44721  0.36434  1.0000
  H   H4        1.0  0.13268  0.48089  0.87232  1.0000
  S   S1        1.0  0.02788  0.44942  0.33322  1.0000
  H   H5        1.0  0.11330  0.49149  0.38401  1.0000
  C   C4        1.0  0.04064  0.44448  0.56094  1.0000
  C   C5        1.0  0.04733  0.48894  0.70467  1.0000
  H   H6        1.0  0.05840  0.49142  0.11896  1.0000
  H   H7        1.0  0.12365  0.49312  0.89404  1.0000
  C   C6        1.0  0.00996  0.48046  0.36537  1.0000
  Fe  Fe2       1.0  0.01891  0.44880  0.75573  1.0000
  S   S2        1.0  0.02069  0.45701  0.69082  1.0000
  S   S3        1.0  0.03257  0.44978  0.77661  1.0000
  C   C7        1.0  0.00547  0.43708  0.53760  1.0000
  Fe  Fe3       1.0  0.00693  0.46122  0.71701  1.0000
  C   C8        1.0  0.11484  0.48586  0.33431  1.0000
  Fe  Fe4       1.0  0.01063  0.44374  0.69036  1.0000
  S   S4        1.0  0.01420  0.43884  0.63416  1.0000
  H   H8        1.0  0.14979  0.47143  0.42474  1.0000
  H   H9        1.0  0.08891  0.49646  0.98304  1.0000
  S   S5        1.0  0.00993  0.43483  0.75345  1.0000
  H   H10       1.0  0.01633  0.48953  0.54267  1.0000
  H   H11       1.0  0.03255  0.44055  0.50671  1.0000
  H   H12       1.0  0.03257  0.42837  0.47420  1.0000
  C   C9        1.0  0.01639  0.48005  0.74324  1.0000
  C   C10       1.0  0.01199  0.48418  0.71494  1.0000
  H   H13       1.0  0.07075  0.45507  0.36662  1.0000
  Fe  Fe5       1.0  0.07572  0.49429  0.25651  1.0000
  C   C11       1.0  0.01191  0.49412  0.70589  1.0000
  H   H14       1.0  0.01689  0.47252  0.74914  1.0000
  C   C12       1.0  0.05321  0.45374  0.42699  1.0000
  C   C13       1.0  0.05681  0.45926  0.38058  1.0000
  H   H15       1.0  0.01070  0.48989  0.50345  1.0000
  C   C14       1.0  0.08777  0.49284  0.08208  1.0000
  H   H16       1.0  0.01276  0.47488  0.35458  1.0000
  C   C15       1.0  0.00728  0.43935  0.60040  1.0000
  H   H17       1.0  0.05988  0.49567  0.16020  1.0000
  H   H18       1.0  0.04064  0.46970  0.66892  1.0000
  S   S6        1.0  0.00547  0.45368  0.78198  1.0000
  S   S7        1.0  0.10535  0.48844  0.82927  1.0000
  H   H19       1.0  0.14109  0.50031  0.32707  1.0000
  H   H20       1.0  0.12299  0.49897  0.33791  1.0000
  H   H21       1.0  0.09308  0.47257  0.94121  1.0000
  S   S8        1.0  0.00628  0.47691  0.69191  1.0000
  C   C16       1.0  0.01577  0.48661  0.37871  1.0000
  C   C17       1.0  0.01232  0.49410  0.39131  1.0000
  H   H22       1.0  0.05088  0.45445  0.50534  1.0000
  C   C18       1.0  0.04167  0.47300  0.69232  1.0000
  H   H23       1.0  0.02291  0.48555  0.37927  1.0000
  H   H24       1.0  0.03279  0.44052  0.57432  1.0000
  C   C19       1.0  0.05271  0.46393  0.81608  1.0000
  C   C20       1.0  0.04762  0.45735  0.80151  1.0000
  C   C21       1.0  0.03872  0.45845  0.79471  1.0000
  C   C22       1.0  0.03503  0.46633  0.80246  1.0000
  H   H25       1.0  0.03716  0.44662  0.39866  1.0000
  H   H26       1.0  0.05948  0.46288  0.82144  1.0000
  H   H27       1.0  0.05058  0.45130  0.79578  1.0000
  H   H28       1.0  0.02818  0.46724  0.79780  1.0000
  H   H29       1.0  0.00817  0.48272  0.18048  1.0000
  C   C23       1.0  0.05176  0.47717  0.30673  1.0000
  C   C24       1.0  0.04207  0.47615  0.33055  1.0000
  C   C25       1.0  0.03455  0.46801  0.33674  1.0000
  C   C26       1.0  0.03671  0.46060  0.32033  1.0000
  C   C27       1.0  0.04634  0.46176  0.29553  1.0000
  C   C28       1.0  0.05381  0.47006  0.28830  1.0000
  H   H30       1.0  0.04040  0.48156  0.34517  1.0000
  H   H31       1.0  0.02717  0.46725  0.35557  1.0000
  H   H32       1.0  0.04808  0.45610  0.28256  1.0000
  H   H33       1.0  0.06125  0.47066  0.27032  1.0000
  H   H34       1.0  0.12468  0.48599  0.80928  1.0000
  C   C29       1.0  0.04897  0.47175  0.82426  1.0000
  H   H35       1.0  0.14006  0.47579  0.90126  1.0000
  H   H36       1.0  0.07028  0.46601  0.32989  1.0000
  C   C30       1.0  0.12641  0.49440  0.42488  1.0000
  C   C31       1.0  0.12263  0.49835  0.05291  1.0000
  H   H37       1.0  0.04415  0.48783  0.90861  1.0000
  H   H38       1.0  0.10337  0.48618  0.75240  1.0000
  Fe  Fe6       1.0  0.07468  0.48758  0.93691  1.0000
  H   H39       1.0  0.05601  0.45915  0.44041  1.0000
  C   C32       1.0  0.02232  0.46489  0.45595  1.0000
  C   C33       1.0  0.03661  0.48889  0.91334  1.0000
  H   H40       1.0  0.01600  0.46322  0.54624  1.0000
  H   H41       1.0  0.00933  0.47378  0.60868  1.0000
  H   H42       1.0  0.04091  0.46407  0.45006  1.0000
  H   H43       1.0  0.04442  0.43843  0.49415  1.0000
  C   C34       1.0  0.12649  0.49292  0.91978  1.0000
  H   H44       1.0  0.00475  0.46163  0.61082  1.0000
  H   H45       1.0  0.02325  0.48237  0.78706  1.0000
  C   C35       1.0  0.01731  0.46926  0.55908  1.0000
  C   C36       1.0  0.02499  0.46742  0.57987  1.0000
  C   C37       1.0  0.04038  0.44435  0.49104  1.0000
  H   H46       1.0  0.03409  0.48748  0.88848  1.0000
  H   H47       1.0  0.02047  0.47627  0.53362  1.0000
  N   N1        1.0  0.13321  0.49204  0.39090  1.0000
  C   C38       1.0  0.02622  0.45561  0.46153  1.0000
  C   C39       1.0  0.13692  0.48222  0.89248  1.0000
  N   N2        1.0  0.11894  0.49429  0.95433  1.0000
  H   H48       1.0  0.05453  0.46628  0.37478  1.0000
  N   N3        1.0  0.04227  0.44967  0.44655  1.0000
  C   C40       1.0  0.05919  0.49965  0.74495  1.0000
  H   H49       1.0  0.03175  0.48339  0.94265  1.0000
  S   S9        1.0  0.09531  0.49626  0.10979  1.0000
  H   H50       1.0  0.03867  0.45642  0.51650  1.0000
  H   H51       1.0  0.06831  0.49399  0.41653  1.0000
  H   H52       1.0  0.02391  0.43575  0.46857  1.0000
  C   C41       1.0  0.06798  0.46184  0.36289  1.0000
  H   H53       1.0  0.06623  0.47783  0.09242  1.0000
  H   H54       1.0  0.00779  0.47406  0.50999  1.0000
  H   H55       1.0  0.02389  0.46885  0.42319  1.0000
  H   H56       1.0  0.02656  0.47320  0.59368  1.0000
  H   H57       1.0  0.02239  0.46012  0.60389  1.0000
  H   H58       1.0  0.03189  0.46748  0.55729  1.0000
  C   C42       1.0  0.02687  0.42802  0.42565  1.0000
  C   C43       1.0  0.09136  0.49655  0.03942  1.0000
  H   H59       1.0  0.04509  0.43938  0.41304  1.0000
  C   C44       1.0  0.07695  0.48671  0.03472  1.0000
  C   C45       1.0  0.03029  0.43359  0.45177  1.0000
  H   H60       1.0  0.15849  0.48309  0.39475  1.0000
  H   H61       1.0  0.09763  0.46797  0.98256  1.0000
  H   H62       1.0  0.09046  0.47708  0.98375  1.0000
  C   C46       1.0  0.11003  0.48573  0.97247  1.0000
  H   H63       1.0  0.05707  0.44771  0.43269  1.0000
  H   H64       1.0  0.04519  0.43902  0.56322  1.0000
  H   H65       1.0  0.03710  0.47891  0.82313  1.0000
  C   C47       1.0  0.07860  0.48618  0.10110  1.0000
  S   S10       1.0  0.08812  0.49950  0.89809  1.0000
  C   C48       1.0  0.03742  0.45815  0.44054  1.0000
  S   S11       1.0  0.07722  0.47766  0.89843  1.0000
  H   H66       1.0  0.01426  0.46280  0.47099  1.0000
  H   H67       1.0  0.10921  0.48943  0.32527  1.0000
  H   H68       1.0  0.13076  0.50026  0.97334  1.0000
  C   C49       1.0  0.13408  0.49887  0.80955  1.0000
  C   C50       1.0  0.00044  0.48346  0.56628  1.0000
  H   H69       1.0  0.11026  0.49190  0.03943  1.0000
  H   H70       1.0  0.05384  0.45488  0.36375  1.0000
  H   H71       1.0  0.02418  0.45184  0.49461  1.0000
  S   S12       1.0  0.06486  0.49426  0.90475  1.0000
  H   H72       1.0  0.02104  0.42132  0.44546  1.0000
  C   C51       1.0  0.09610  0.47460  0.96387  1.0000
  H   H73       1.0  0.07131  0.46654  0.37788  1.0000
  H   H74       1.0  0.10352  0.48910  0.92316  1.0000
  H   H75       1.0  0.07574  0.48321  0.13394  1.0000
  H   H76       1.0  0.12112  0.48752  0.44719  1.0000
  Fe  Fe7       1.0  0.06831  0.48528  0.86282  1.0000
  C   C52       1.0  0.02013  0.48566  0.76430  1.0000
  H   H77       1.0  0.04217  0.44923  0.57911  1.0000
  H   H78       1.0  0.02376  0.43267  0.40484  1.0000
  S   S13       1.0  0.05496  0.48026  0.84342  1.0000
  H   H79       1.0  0.03303  0.42579  0.40745  1.0000
  S   S14       1.0  0.06126  0.48627  0.30741  1.0000
  C   C53       1.0  0.04298  0.45076  0.51666  1.0000
  H   H80       1.0  0.02247  0.45091  0.44776  1.0000
  H   H81       1.0  0.04054  0.48656  0.73159  1.0000
  C   C54       1.0  0.01972  0.49549  0.75637  1.0000
  S   S15       1.0  0.06998  0.48263  0.00620  1.0000
  H   H82       1.0  0.12050  0.48614  0.30615  1.0000
  C   C55       1.0  0.03900  0.44262  0.42565  1.0000
  C   C56       1.0  0.00754  0.46934  0.58959  1.0000
  H   H83       1.0  0.01749  0.43439  0.55964  1.0000
  C   C57       1.0  0.04012  0.47292  0.81699  1.0000
  H   H84       1.0  0.13459  0.48381  0.95125  1.0000
  Fe  Fe8       1.0  0.09017  0.49032  0.85721  1.0000
  S   S16       1.0  0.01925  0.50139  0.41073  1.0000
  H   H85       1.0  0.07326  0.49145  0.36984  1.0000
  H   H86       1.0  0.14423  0.48938  0.42002  1.0000
  S   S17       1.0  0.08981  0.48964  0.23461  1.0000
  C   C58       1.0  0.13025  0.48344  0.93050  1.0000
  H   H87       1.0  0.05745  0.49153  0.75765  1.0000
  C   C59       1.0  0.11940  0.49134  0.35819  1.0000
  H   H88       1.0  0.14018  0.47453  0.37669  1.0000
  H   H89       1.0  0.05277  0.48539  0.71556  1.0000
  H   H90       1.0  0.09331  0.49124  0.74406  1.0000
  C   C60       1.0  0.10127  0.49183  0.73093  1.0000
  H   H91       1.0  0.06565  0.49824  0.66788  1.0000
  C   C61       1.0  0.14511  0.48084  0.37888  1.0000
  C   C62       1.0  0.01586  0.49979  0.72634  1.0000
  H   H92       1.0  0.12271  0.47900  0.39685  1.0000
  H   H93       1.0  0.00623  0.47984  0.23419  1.0000
  C   C63       1.0  0.12507  0.49317  0.81292  1.0000
  H   H94       1.0  0.15489  0.50121  0.35204  1.0000
  H   H95       1.0  0.14305  0.48887  0.87559  1.0000
  H   H96       1.0  0.11165  0.47908  0.99072  1.0000
  H   H97       1.0  0.12414  0.47676  0.94528  1.0000
  H   H98       1.0  0.13613  0.49588  0.46183  1.0000
  H   H99       1.0  0.06023  0.48804  0.39487  1.0000
  C   C64       1.0  0.08602  0.49353  0.01582  1.0000
  H   H100      1.0  0.10412  0.48735  0.99471  1.0000
  H   H101      1.0  0.04279  0.50070  0.28063  1.0000
  S   S18       1.0  0.00609  0.45553  0.40623  1.0000
  H   H102      1.0  0.14863  0.48622  0.34783  1.0000
  H   H103      1.0  0.13419  0.47925  0.43557  1.0000
  H   H104      1.0  0.13154  0.48465  0.34746  1.0000
  H   H105      1.0  0.14054  0.49598  0.80379  1.0000
  H   H106      1.0  0.11988  0.49900  0.68683  1.0000
  H   H107      1.0  0.03923  0.48679  0.66264  1.0000
  S   S19       1.0  0.08158  0.49716  0.81882  1.0000
  C   C65       1.0  0.13912  0.48545  0.40837  1.0000
  H   H108      1.0  0.05219  0.50091  0.80384  1.0000
  H   H109      1.0  0.11977  0.49855  0.73656  1.0000
  Fe  Fe9       1.0  0.08994  0.49831  0.17189  1.0000
  C   C66       1.0  0.04510  0.48416  0.67341  1.0000
  C   C67       1.0  0.12689  0.48627  0.37374  1.0000
  H   H110      1.0  0.04716  0.46991  0.70457  1.0000
  C   C68       1.0  0.00322  0.49562  0.38911  1.0000
  H   H111      1.0  0.11059  0.48007  0.92104  1.0000
  C   C69       1.0  0.15307  0.47697  0.39388  1.0000
  H   H112      1.0  0.04418  0.50041  0.75000  1.0000
  H   H113      1.0  0.05173  0.48576  0.64678  1.0000
  C   C70       1.0  0.01076  0.43680  0.56517  1.0000
  H   H114      1.0  0.10259  0.49032  0.70162  1.0000
  H   H115      1.0  0.13494  0.49720  0.70124  1.0000
  H   H116      1.0  0.00811  0.43492  0.51104  1.0000
  C   C71       1.0  0.10546  0.48280  0.94183  1.0000
  C   C72       1.0  0.12345  0.49494  0.98683  1.0000
  H   H117      1.0  0.11125  0.47808  0.35314  1.0000
  H   H118      1.0  0.03458  0.47091  0.71731  1.0000
  H   H119      1.0  0.00873  0.49744  0.68336  1.0000
  H   H120      1.0  0.12493  0.48776  0.00085  1.0000
  C   C73       1.0  0.05641  0.49653  0.13603  1.0000
  C   C74       1.0  0.11650  0.49646  0.82279  1.0000
  C   C75       1.0  0.00979  0.49070  0.53381  1.0000
  H   H121      1.0  0.00743  0.48893  0.85442  1.0000
  N   N4        1.0  0.05091  0.50003  0.68947  1.0000
  S   S20       1.0  0.00168  0.45067  0.32643  1.0000
  H   H122      1.0  0.04834  0.49445  0.15075  1.0000
  C   C76       1.0  0.00249  0.48013  0.21097  1.0000
  S   S21       1.0  0.00095  0.43276  0.40665  1.0000
  H   H123      1.0  0.05142  0.50095  0.40188  1.0000
  C   C77       1.0  0.06706  0.49369  0.38783  1.0000
  C   C78       1.0  0.00941  0.50134  0.53004  1.0000
  H   H124      1.0  0.00196  0.47344  0.45278  1.0000
  C   C79       1.0  0.03632  0.49928  0.91447  1.0000
  H   H125      1.0  0.00202  0.49526  0.88795  1.0000
  H   H126      1.0  0.06492  0.50098  0.79317  1.0000
  H   H127      1.0  0.03602  0.49953  0.68894  1.0000
  H   H128      1.0  0.09827  0.50190  0.02459  1.0000
  H   H129      1.0  0.03886  0.50021  0.93983  1.0000
  H   H130      1.0  0.12423  0.49119  0.06606  1.0000
  H   H131      1.0  0.02855  0.49966  0.92074  1.0000
  C   C80       1.0  0.13125  0.49986  0.44870  1.0000
  C   C81       1.0  0.12354  0.50117  0.48381  1.0000
  C   C82       1.0  0.11720  0.49763  0.02263  1.0000
  C   C83       1.0  0.00039  0.48946  0.87433  1.0000
  S   S22       1.0  0.07558  0.50212  0.19396  1.0000
  C   C84       1.0  0.00057  0.48157  0.36593  1.0000
  H   H132      1.0  0.15275  0.49936  0.68346  1.0000
  H   H133      1.0  0.11915  0.49392  0.50610  1.0000
  C   C85       1.0  0.10708  0.50214  0.72435  1.0000
  H   H134      1.0  0.12193  0.49923  0.41286  1.0000
  H   H135      1.0  0.11797  0.50028  0.07817  1.0000
  H   H136      1.0  0.03410  0.50167  0.32458  1.0000
  H   H137      1.0  0.00062  0.50155  0.39733  1.0000
  H   H138      1.0  0.13309  0.49917  0.90711  1.0000
  H   H139      1.0  0.00136  0.49988  0.25796  1.0000
  H   H140      1.0  0.06005  0.50084  0.62997  1.0000
  H   H141      1.0  0.05000  0.49971  0.33466  1.0000
  H   H142      1.0  0.00026  0.49455  0.20665  1.0000
  H   H143      1.0  0.00015  0.48498  0.59518  1.0000
  H   H144      1.0  0.06666  0.50226  0.72245  1.0000
  Fe  Fe10      1.0  0.08454  0.51517  0.20004  1.0000
  H   H145      1.0  0.23562  0.61820  0.04291  1.0000
  S   S23       1.0  0.08280  0.53048  0.17758  1.0000
  H   H146      1.0  0.20896  0.65699  0.40240  1.0000
  H   H147      1.0  0.19220  0.60381  0.10091  1.0000
  H   H148      1.0  0.01767  0.57071  0.55944  1.0000
  C   C86       1.0  0.21368  0.63219  0.02117  1.0000
  H   H149      1.0  0.12664  0.51431  0.94748  1.0000
  C   C87       1.0  0.21814  0.54623  0.84990  1.0000
  S   S24       1.0  0.09888  0.51207  0.17368  1.0000
  Fe  Fe11      1.0  0.14812  0.53127  0.46825  1.0000
  S   S25       1.0  0.15995  0.54468  0.42843  1.0000
  S   S26       1.0  0.14770  0.52437  0.53367  1.0000
  Fe  Fe12      1.0  0.13985  0.52981  0.39781  1.0000
  S   S27       1.0  0.15130  0.54318  0.35307  1.0000
  S   S28       1.0  0.12632  0.52184  0.38677  1.0000
  Fe  Fe13      1.0  0.16205  0.53720  0.38117  1.0000
  S   S29       1.0  0.17751  0.53799  0.34348  1.0000
  Fe  Fe14      1.0  0.14844  0.54968  0.40360  1.0000
  S   S30       1.0  0.14635  0.56501  0.39232  1.0000
  S   S31       1.0  0.15094  0.52315  0.42261  1.0000
  S   S32       1.0  0.13625  0.53686  0.44707  1.0000
  Fe  Fe15      1.0  0.17203  0.60849  0.41946  1.0000
  S   S33       1.0  0.16964  0.61813  0.36498  1.0000
  S   S34       1.0  0.17808  0.59539  0.41564  1.0000
  H   H150      1.0  0.06268  0.58082  0.15948  1.0000
  H   H151      1.0  0.22388  0.61035  0.93645  1.0000
  H   H152      1.0  0.22887  0.66114  0.58958  1.0000
  Fe  Fe16      1.0  0.15480  0.61719  0.40726  1.0000
  S   S35       1.0  0.13929  0.61314  0.40169  1.0000
  H   H153      1.0  0.21248  0.58835  0.09558  1.0000
  S   S36       1.0  0.15707  0.60681  0.46099  1.0000
  H   H154      1.0  0.16543  0.57731  0.50821  1.0000
  Fe  Fe17      1.0  0.10133  0.56815  0.25706  1.0000
  S   S37       1.0  0.09841  0.57012  0.31821  1.0000
  S   S38       1.0  0.10913  0.55690  0.24077  1.0000
  Fe  Fe18      1.0  0.09235  0.58455  0.22379  1.0000
  S   S39       1.0  0.08887  0.58828  0.28252  1.0000
  S   S40       1.0  0.08954  0.59201  0.16481  1.0000
  Fe  Fe19      1.0  0.10398  0.58637  0.28443  1.0000
  S   S41       1.0  0.11748  0.59526  0.29308  1.0000
  Fe  Fe20      1.0  0.08365  0.57176  0.31275  1.0000
  S   S42       1.0  0.07005  0.56203  0.36484  1.0000
  S   S43       1.0  0.10768  0.58411  0.22298  1.0000
  S   S44       1.0  0.08622  0.56837  0.25457  1.0000
  C   C88       1.0  0.22930  0.63332  0.11448  1.0000
  S   S45       1.0  0.02858  0.53031  0.73322  1.0000
  C   C89       1.0  0.13275  0.58601  0.47054  1.0000
  H   H155      1.0  0.04645  0.52013  0.47537  1.0000
  H   H156      1.0  0.07364  0.51114  0.11380  1.0000
  S   S46       1.0  0.07815  0.52135  0.84227  1.0000
  H   H157      1.0  0.02049  0.54895  0.28135  1.0000
  H   H158      1.0  0.03338  0.51650  0.48680  1.0000
  H   H159      1.0  0.01448  0.55260  0.24430  1.0000
  H   H160      1.0  0.12772  0.59115  0.62282  1.0000
  H   H161      1.0  0.22249  0.54070  0.90247  1.0000
  Fe  Fe21      1.0  0.15619  0.54594  0.70694  1.0000
  S   S47       1.0  0.14313  0.53960  0.76378  1.0000
  S   S48       1.0  0.15313  0.55043  0.64662  1.0000
  Fe  Fe22      1.0  0.17079  0.54779  0.75647  1.0000
  S   S49       1.0  0.15858  0.54079  0.81612  1.0000
  S   S50       1.0  0.18663  0.55533  0.74942  1.0000
  Fe  Fe23      1.0  0.15257  0.53039  0.78698  1.0000
  S   S51       1.0  0.14601  0.51401  0.81734  1.0000
  Fe  Fe24      1.0  0.15031  0.55060  0.78685  1.0000
  S   S52       1.0  0.14324  0.56056  0.81700  1.0000
  S   S53       1.0  0.16561  0.53634  0.72921  1.0000
  S   S54       1.0  0.16250  0.55788  0.72793  1.0000
  H   H162      1.0  0.12030  0.53290  0.75858  1.0000
  H   H163      1.0  0.07325  0.52376  0.36732  1.0000
  H   H164      1.0  0.22805  0.60581  0.06565  1.0000
  H   H165      1.0  0.13259  0.58569  0.58525  1.0000
  H   H166      1.0  0.09982  0.58093  0.59655  1.0000
  Fe  Fe25      1.0  0.23850  0.58077  0.90615  1.0000
  H   H167      1.0  0.05283  0.56613  0.07470  1.0000
  C   C90       1.0  0.21421  0.63891  0.04687  1.0000
  Fe  Fe26      1.0  0.08749  0.55897  0.93839  1.0000
  S   S55       1.0  0.08516  0.56834  0.88281  1.0000
  S   S56       1.0  0.09452  0.54624  0.93968  1.0000
  Fe  Fe27      1.0  0.07795  0.56986  0.99336  1.0000
  S   S57       1.0  0.07455  0.57998  0.94207  1.0000
  S   S58       1.0  0.07368  0.56810  0.06112  1.0000
  Fe  Fe28      1.0  0.06993  0.56656  0.92422  1.0000
  S   S59       1.0  0.05501  0.56158  0.91542  1.0000
  Fe  Fe29      1.0  0.09005  0.58079  0.90472  1.0000
  S   S60       1.0  0.10090  0.59487  0.85949  1.0000
  S   S61       1.0  0.07218  0.55647  0.97870  1.0000
  S   S62       1.0  0.09354  0.57146  0.95703  1.0000
  Fe  Fe30      1.0  0.23834  0.58426  0.18311  1.0000
  C   C91       1.0  0.16776  0.56298  0.50298  1.0000
  Fe  Fe31      1.0  0.00252  0.52453  0.47042  1.0000
  Fe  Fe32      1.0  0.22465  0.58179  0.26744  1.0000
  S   S63       1.0  0.23584  0.59221  0.27884  1.0000
  S   S64       1.0  0.20909  0.57703  0.31177  1.0000
  C   C92       1.0  0.22521  0.59407  0.77311  1.0000
  H   H168      1.0  0.02966  0.51410  0.65337  1.0000
  C   C93       1.0  0.11917  0.52212  0.91094  1.0000
  S   S65       1.0  0.22676  0.59183  0.20490  1.0000
  S   S66       1.0  0.23541  0.57336  0.24488  1.0000
  Fe  Fe33      1.0  0.22001  0.58343  0.96066  1.0000
  S   S67       1.0  0.21257  0.58356  0.02359  1.0000
  Fe  Fe34      1.0  0.21900  0.57699  0.88693  1.0000
  S   S68       1.0  0.20756  0.56658  0.87349  1.0000
  C   C94       1.0  0.22523  0.58485  0.10948  1.0000
  S   S69       1.0  0.21445  0.58921  0.90913  1.0000
  C   C95       1.0  0.23343  0.58113  0.09801  1.0000
  C   C96       1.0  0.23530  0.57828  0.06314  1.0000
  C   C97       1.0  0.22897  0.57909  0.03990  1.0000
  C   C98       1.0  0.22067  0.58265  0.05182  1.0000
  C   C99       1.0  0.21852  0.66400  0.72969  1.0000
  H   H169      1.0  0.23046  0.57683  0.01312  1.0000
  H   H170      1.0  0.18191  0.57736  0.45993  1.0000
  H   H171      1.0  0.13651  0.57038  0.93215  1.0000
  S   S70       1.0  0.03752  0.54571  0.79138  1.0000
  Fe  Fe35      1.0  0.02399  0.53670  0.78380  1.0000
  H   H172      1.0  0.03975  0.56296  0.10009  1.0000
  H   H173      1.0  0.22378  0.58714  0.13610  1.0000
  C   C100      1.0  0.08159  0.53284  0.30605  1.0000
  C   C101      1.0  0.05039  0.55690  0.88088  1.0000
  C   C102      1.0  0.04020  0.55316  0.89129  1.0000
  C   C103      1.0  0.03614  0.54956  0.86490  1.0000
  C   C104      1.0  0.04219  0.54978  0.82711  1.0000
  C   C105      1.0  0.05238  0.55345  0.81682  1.0000
  C   C106      1.0  0.05646  0.55689  0.84351  1.0000
  H   H174      1.0  0.03539  0.55311  0.91998  1.0000
  H   H175      1.0  0.02830  0.54681  0.87346  1.0000
  H   H176      1.0  0.05718  0.55367  0.78782  1.0000
  H   H177      1.0  0.06429  0.55971  0.83485  1.0000
  C   C107      1.0  0.13249  0.60702  0.85307  1.0000
  C   C108      1.0  0.12683  0.59808  0.88298  1.0000
  C   C109      1.0  0.11740  0.59385  0.88362  1.0000
  C   C110      1.0  0.11338  0.59874  0.85529  1.0000
  C   C111      1.0  0.11921  0.60742  0.82427  1.0000
  C   C112      1.0  0.12873  0.61151  0.82298  1.0000
  H   H178      1.0  0.14819  0.56161  0.51168  1.0000
  H   H179      1.0  0.11304  0.58711  0.90741  1.0000
  H   H180      1.0  0.11620  0.61124  0.80203  1.0000
  H   H181      1.0  0.13292  0.61847  0.80015  1.0000
  C   C113      1.0  0.19210  0.55873  0.78449  1.0000
  C   C114      1.0  0.20155  0.56510  0.76938  1.0000
  C   C115      1.0  0.20632  0.56771  0.79580  1.0000
  C   C116      1.0  0.20178  0.56391  0.83804  1.0000
  C   C117      1.0  0.19236  0.55751  0.85313  1.0000
  C   C118      1.0  0.18753  0.55502  0.82671  1.0000
  H   H182      1.0  0.20523  0.56798  0.73689  1.0000
  H   H183      1.0  0.21360  0.57249  0.78338  1.0000
  H   H184      1.0  0.18872  0.55447  0.88564  1.0000
  H   H185      1.0  0.18030  0.55009  0.83908  1.0000
  H   H186      1.0  0.19746  0.57236  0.45075  1.0000
  C   C119      1.0  0.15862  0.58802  0.79735  1.0000
  C   C120      1.0  0.15086  0.57962  0.81098  1.0000
  C   C121      1.0  0.15279  0.57064  0.80821  1.0000
  C   C122      1.0  0.16250  0.56994  0.79496  1.0000
  C   C123      1.0  0.17019  0.57835  0.78027  1.0000
  H   H187      1.0  0.15709  0.59499  0.79852  1.0000
  H   H188      1.0  0.14341  0.58020  0.82211  1.0000
  H   H189      1.0  0.16412  0.56294  0.79531  1.0000
  H   H190      1.0  0.18166  0.57902  0.50676  1.0000
  H   H191      1.0  0.06023  0.50872  0.41254  1.0000
  H   H192      1.0  0.18872  0.65036  0.72433  1.0000
  C   C124      1.0  0.24555  0.61899  0.88265  1.0000
  C   C125      1.0  0.13478  0.50811  0.81470  1.0000
  C   C126      1.0  0.12631  0.51173  0.82232  1.0000
  H   H193      1.0  0.06661  0.51677  0.66542  1.0000
  Fe  Fe36      1.0  0.24924  0.65622  0.91349  1.0000
  H   H194      1.0  0.12563  0.52051  0.56964  1.0000
  H   H195      1.0  0.12677  0.51887  0.82632  1.0000
  H   H196      1.0  0.11056  0.50850  0.83425  1.0000
  C   C127      1.0  0.08306  0.52832  0.86841  1.0000
  C   C128      1.0  0.07982  0.53671  0.87169  1.0000
  C   C129      1.0  0.08315  0.54206  0.89442  1.0000
  C   C130      1.0  0.09008  0.53931  0.91252  1.0000
  C   C131      1.0  0.09356  0.53107  0.90842  1.0000
  C   C132      1.0  0.09004  0.52558  0.88640  1.0000
  H   H197      1.0  0.07465  0.53904  0.85699  1.0000
  H   H198      1.0  0.08024  0.54824  0.89816  1.0000
  H   H199      1.0  0.09897  0.52896  0.92216  1.0000
  H   H200      1.0  0.09289  0.51937  0.88268  1.0000
  C   C133      1.0  0.05884  0.55868  0.35615  1.0000
  C   C134      1.0  0.05540  0.56559  0.33173  1.0000
  C   C135      1.0  0.04585  0.56313  0.32996  1.0000
  C   C136      1.0  0.03977  0.55366  0.35148  1.0000
  C   C137      1.0  0.04327  0.54670  0.37528  1.0000
  C   C138      1.0  0.05272  0.54923  0.37789  1.0000
  H   H201      1.0  0.05996  0.57296  0.31548  1.0000
  H   H202      1.0  0.04310  0.56864  0.31244  1.0000
  H   H203      1.0  0.02859  0.55422  0.56908  1.0000
  H   H204      1.0  0.05531  0.54388  0.39712  1.0000
  C   C139      1.0  0.08604  0.58541  0.13380  1.0000
  C   C140      1.0  0.08519  0.57528  0.14318  1.0000
  C   C141      1.0  0.08191  0.57019  0.11921  1.0000
  C   C142      1.0  0.07951  0.57513  0.08535  1.0000
  C   C143      1.0  0.08052  0.58530  0.07541  1.0000
  C   C144      1.0  0.08377  0.59040  0.09953  1.0000
  H   H205      1.0  0.08680  0.57133  0.16957  1.0000
  H   H206      1.0  0.08094  0.56231  0.12751  1.0000
  H   H207      1.0  0.07846  0.58917  0.05004  1.0000
  H   H208      1.0  0.08429  0.59821  0.09220  1.0000
  H   H209      1.0  0.18838  0.56891  0.56423  1.0000
  H   H210      1.0  0.13418  0.53037  0.70821  1.0000
  H   H211      1.0  0.01922  0.56276  0.47762  1.0000
  Fe  Fe37      1.0  0.01881  0.51611  0.77669  1.0000
  H   H212      1.0  0.22701  0.66001  0.12811  1.0000
  C   C145      1.0  0.12338  0.60008  0.32421  1.0000
  C   C146      1.0  0.13367  0.60359  0.31011  1.0000
  C   C147      1.0  0.13869  0.60735  0.33358  1.0000
  C   C148      1.0  0.13348  0.60789  0.37138  1.0000
  C   C149      1.0  0.12319  0.60439  0.38547  1.0000
  C   C150      1.0  0.11819  0.60042  0.36241  1.0000
  H   H213      1.0  0.13782  0.60336  0.28079  1.0000
  H   H214      1.0  0.14658  0.61001  0.32201  1.0000
  H   H215      1.0  0.11902  0.60477  0.41445  1.0000
  H   H216      1.0  0.11031  0.59779  0.37391  1.0000
  C   C151      1.0  0.14955  0.53179  0.56410  1.0000
  C   C152      1.0  0.14630  0.54045  0.56014  1.0000
  C   C153      1.0  0.14710  0.54580  0.58682  1.0000
  C   C154      1.0  0.15142  0.54277  0.61693  1.0000
  C   C155      1.0  0.15472  0.53414  0.62089  1.0000
  C   C156      1.0  0.15367  0.52860  0.59491  1.0000
  H   H217      1.0  0.14300  0.54291  0.53695  1.0000
  H   H218      1.0  0.14438  0.55238  0.58401  1.0000
  H   H219      1.0  0.15814  0.53175  0.64375  1.0000
  H   H220      1.0  0.15614  0.52188  0.59841  1.0000
  C   C157      1.0  0.18632  0.54878  0.33502  1.0000
  C   C158      1.0  0.19636  0.54909  0.32151  1.0000
  C   C159      1.0  0.20345  0.55772  0.31400  1.0000
  C   C160      1.0  0.20053  0.56605  0.32038  1.0000
  C   C161      1.0  0.19049  0.56568  0.33424  1.0000
  C   C162      1.0  0.18343  0.55714  0.34102  1.0000
  H   H221      1.0  0.19867  0.54265  0.31695  1.0000
  H   H222      1.0  0.21117  0.55788  0.30393  1.0000
  H   H223      1.0  0.18816  0.57209  0.33913  1.0000
  H   H224      1.0  0.17574  0.55704  0.35067  1.0000
  C   C163      1.0  0.15594  0.57398  0.39180  1.0000
  C   C164      1.0  0.16498  0.57199  0.39249  1.0000
  C   C165      1.0  0.17205  0.57885  0.39732  1.0000
  C   C166      1.0  0.17003  0.58763  0.40219  1.0000
  C   C167      1.0  0.16126  0.58990  0.39866  1.0000
  C   C168      1.0  0.15427  0.58311  0.39319  1.0000
  H   H225      1.0  0.16646  0.56512  0.39008  1.0000
  H   H226      1.0  0.17898  0.57724  0.39835  1.0000
  H   H227      1.0  0.15971  0.59675  0.40118  1.0000
  H   H228      1.0  0.14740  0.58480  0.39163  1.0000
  H   H229      1.0  0.20928  0.64393  0.04269  1.0000
  H   H230      1.0  0.06158  0.51178  0.76876  1.0000
  H   H231      1.0  0.02092  0.54300  0.24311  1.0000
  S   S71       1.0  0.23322  0.65291  0.94683  1.0000
  H   H232      1.0  0.24103  0.54407  0.98499  1.0000
  C   C169      1.0  0.02123  0.56556  0.57595  1.0000
  H   H233      1.0  0.19033  0.63005  0.60190  1.0000
  H   H234      1.0  0.09705  0.59100  0.61464  1.0000
  C   C170      1.0  0.24519  0.62496  0.21768  1.0000
  H   H235      1.0  0.20318  0.66476  0.69998  1.0000
  C   C171      1.0  0.11545  0.51298  0.28836  1.0000
  C   C172      1.0  0.10894  0.51161  0.32692  1.0000
  C   C173      1.0  0.11237  0.51457  0.35609  1.0000
  C   C174      1.0  0.12230  0.51919  0.34705  1.0000
  C   C175      1.0  0.12873  0.52096  0.30790  1.0000
  C   C176      1.0  0.12535  0.51774  0.27912  1.0000
  H   H236      1.0  0.24635  0.57282  0.83102  1.0000
  H   H237      1.0  0.05630  0.51081  0.29200  1.0000
  H   H238      1.0  0.13636  0.52450  0.30018  1.0000
  C   C177      1.0  0.06078  0.50274  0.65704  1.0000
  C   C178      1.0  0.09059  0.53793  0.19298  1.0000
  C   C179      1.0  0.09703  0.53410  0.21186  1.0000
  C   C180      1.0  0.10291  0.54000  0.22577  1.0000
  C   C181      1.0  0.10230  0.54971  0.22106  1.0000
  C   C182      1.0  0.09617  0.55365  0.20070  1.0000
  C   C183      1.0  0.09031  0.54776  0.18674  1.0000
  H   H239      1.0  0.09747  0.52658  0.21616  1.0000
  H   H240      1.0  0.10775  0.53695  0.24100  1.0000
  H   H241      1.0  0.09612  0.56128  0.19508  1.0000
  H   H242      1.0  0.08549  0.55077  0.17147  1.0000
  H   H243      1.0  0.21021  0.63120  0.23318  1.0000
  C   C184      1.0  0.07106  0.51971  0.01859  1.0000
  H   H244      1.0  0.20855  0.66087  0.65730  1.0000
  C   C185      1.0  0.24886  0.63491  0.89267  1.0000
  C   C186      1.0  0.24643  0.56900  0.80818  1.0000
  C   C187      1.0  0.06358  0.53174  0.06612  1.0000
  H   H245      1.0  0.02996  0.56483  0.22718  1.0000
  C   C188      1.0  0.23992  0.63389  0.09115  1.0000
  H   H246      1.0  0.06313  0.51945  0.02747  1.0000
  S   S72       1.0  0.22696  0.66855  0.33874  1.0000
  C   C189      1.0  0.00235  0.52669  0.56836  1.0000
  C   C190      1.0  0.20685  0.63922  0.85311  1.0000
  C   C191      1.0  0.22175  0.64758  0.74355  1.0000
  H   H247      1.0  0.03857  0.51433  0.70440  1.0000
  H   H248      1.0  0.10134  0.50790  0.33482  1.0000
  H   H249      1.0  0.06381  0.53507  0.03424  1.0000
  H   H250      1.0  0.05711  0.52547  0.08115  1.0000
  H   H251      1.0  0.06138  0.53632  0.12007  1.0000
  H   H252      1.0  0.23449  0.61782  0.97475  1.0000
  H   H253      1.0  0.21158  0.60513  0.97096  1.0000
  H   H254      1.0  0.02640  0.54763  0.50203  1.0000
  H   H255      1.0  0.22165  0.63086  0.80351  1.0000
  H   H256      1.0  0.05598  0.50742  0.08394  1.0000
  C   C192      1.0  0.21328  0.64587  0.86283  1.0000
  N   N5        1.0  0.19617  0.56163  0.19140  1.0000
  C   C193      1.0  0.20331  0.55691  0.20841  1.0000
  C   C194      1.0  0.18593  0.55662  0.22044  1.0000
  C   C195      1.0  0.19743  0.56059  0.14993  1.0000
  C   C196      1.0  0.19802  0.57243  0.18681  1.0000
  C   C197      1.0  0.19851  0.57509  0.22516  1.0000
  C   C198      1.0  0.21433  0.56183  0.18520  1.0000
  C   C199      1.0  0.18230  0.54560  0.22585  1.0000
  C   C200      1.0  0.20004  0.58616  0.21720  1.0000
  C   C201      1.0  0.22078  0.55628  0.20504  1.0000
  H   H257      1.0  0.20218  0.54911  0.20935  1.0000
  H   H258      1.0  0.20188  0.55659  0.24051  1.0000
  H   H259      1.0  0.18538  0.55684  0.25153  1.0000
  H   H260      1.0  0.20463  0.56524  0.12790  1.0000
  H   H261      1.0  0.20497  0.57655  0.16203  1.0000
  H   H262      1.0  0.19222  0.57559  0.17729  1.0000
  H   H263      1.0  0.20469  0.57288  0.23453  1.0000
  H   H264      1.0  0.19163  0.57147  0.25093  1.0000
  H   H265      1.0  0.21635  0.56191  0.15321  1.0000
  H   H266      1.0  0.21621  0.56949  0.18530  1.0000
  H   H267      1.0  0.19026  0.57161  0.12306  1.0000
  H   H268      1.0  0.18357  0.54421  0.19642  1.0000
  H   H269      1.0  0.18614  0.54112  0.24369  1.0000
  H   H270      1.0  0.16709  0.54528  0.22980  1.0000
  H   H271      1.0  0.20112  0.58787  0.24416  1.0000
  H   H272      1.0  0.20664  0.59026  0.19046  1.0000
  H   H273      1.0  0.19352  0.58861  0.21207  1.0000
  H   H274      1.0  0.21945  0.54858  0.20475  1.0000
  H   H275      1.0  0.22862  0.55995  0.18796  1.0000
  H   H276      1.0  0.21929  0.55625  0.23688  1.0000
  H   H277      1.0  0.04481  0.56953  0.15003  1.0000
  S   S73       1.0  0.00105  0.53589  0.41715  1.0000
  C   C202      1.0  0.23749  0.54645  0.92893  1.0000
  H   H278      1.0  0.07389  0.52759  0.09739  1.0000
  S   S74       1.0  0.24927  0.66872  0.86078  1.0000
  C   C203      1.0  0.24282  0.63808  0.87022  1.0000
  H   H279      1.0  0.23604  0.55882  0.79556  1.0000
  C   C204      1.0  0.18364  0.57419  0.48818  1.0000
  H   H280      1.0  0.18468  0.59710  0.56423  1.0000
  H   H281      1.0  0.20722  0.61579  0.08951  1.0000
  C   C205      1.0  0.22578  0.65863  0.67242  1.0000
  N   N6        1.0  0.04365  0.51774  0.87069  1.0000
  C   C206      1.0  0.04903  0.51988  0.89892  1.0000
  H   H282      1.0  0.04979  0.51999  0.66339  1.0000
  C   C207      1.0  0.04997  0.52388  0.82774  1.0000
  C   C208      1.0  0.03375  0.52019  0.87924  1.0000
  C   C209      1.0  0.02808  0.51896  0.92410  1.0000
  C   C210      1.0  0.05187  0.53088  0.89546  1.0000
  C   C211      1.0  0.04589  0.52276  0.79316  1.0000
  C   C212      1.0  0.14325  0.59260  0.60645  1.0000
  H   H283      1.0  0.24708  0.55822  0.87608  1.0000
  C   C213      1.0  0.01758  0.51991  0.92899  1.0000
  C   C214      1.0  0.05425  0.53220  0.93268  1.0000
  C   C215      1.0  0.05265  0.52988  0.75184  1.0000
  H   H284      1.0  0.05597  0.51735  0.89317  1.0000
  H   H285      1.0  0.04476  0.51562  0.93106  1.0000
  S   S75       1.0  0.24291  0.66288  0.24605  1.0000
  H   H286      1.0  0.00911  0.50276  0.55906  1.0000
  H   H287      1.0  0.05741  0.52238  0.82106  1.0000
  H   H288      1.0  0.05111  0.53184  0.82426  1.0000
  H   H289      1.0  0.03445  0.52798  0.86171  1.0000
  H   H290      1.0  0.02893  0.51574  0.86793  1.0000
  H   H291      1.0  0.03162  0.52476  0.93389  1.0000
  H   H292      1.0  0.12588  0.53203  0.57996  1.0000
  H   H293      1.0  0.05841  0.53479  0.86839  1.0000
  H   H294      1.0  0.04596  0.53458  0.89153  1.0000
  H   H295      1.0  0.03853  0.52432  0.79824  1.0000
  H   H296      1.0  0.04526  0.51529  0.79080  1.0000
  C   C216      1.0  0.04944  0.50708  0.31782  1.0000
  C   C217      1.0  0.11713  0.50584  0.82704  1.0000
  H   H297      1.0  0.08704  0.53720  0.31498  1.0000
  H   H298      1.0  0.23143  0.65406  0.41730  1.0000
  H   H299      1.0  0.10581  0.62050  0.84561  1.0000
  H   H300      1.0  0.18673  0.60999  0.66667  1.0000
  C   C218      1.0  0.07093  0.51052  0.08842  1.0000
  C   C219      1.0  0.07235  0.51102  0.00203  1.0000
  H   H301      1.0  0.04771  0.52886  0.96037  1.0000
  H   H302      1.0  0.06035  0.52882  0.93703  1.0000
  H   H303      1.0  0.05657  0.54016  0.92821  1.0000
  H   H304      1.0  0.05307  0.53761  0.75117  1.0000
  H   H305      1.0  0.06014  0.52862  0.74537  1.0000
  H   H306      1.0  0.04973  0.52877  0.72754  1.0000
  H   H307      1.0  0.14201  0.60410  0.53833  1.0000
  H   H308      1.0  0.11348  0.52248  0.93768  1.0000
  H   H309      1.0  0.12500  0.52905  0.89848  1.0000
  H   H310      1.0  0.11582  0.52153  0.88716  1.0000
  N   N7        1.0  0.11709  0.55981  0.07267  1.0000
  C   C220      1.0  0.12103  0.55069  0.07802  1.0000
  C   C221      1.0  0.12325  0.56766  0.03269  1.0000
  C   C222      1.0  0.11789  0.56381  0.10653  1.0000
  C   C223      1.0  0.10644  0.55753  0.07567  1.0000
  C   C224      1.0  0.10401  0.55369  0.04267  1.0000
  C   C225      1.0  0.11588  0.54215  0.11872  1.0000
  C   C226      1.0  0.11480  0.57365  0.10488  1.0000
  C   C227      1.0  0.12823  0.56423  0.99666  1.0000
  C   C228      1.0  0.13329  0.57301  0.95781  1.0000
  C   C229      1.0  0.09299  0.55151  0.04998  1.0000
  C   C230      1.0  0.11822  0.57825  0.13365  1.0000
  H   H311      1.0  0.12069  0.54748  0.05363  1.0000
  H   H312      1.0  0.11883  0.57274  0.02204  1.0000
  H   H313      1.0  0.12943  0.57237  0.03682  1.0000
  H   H314      1.0  0.12554  0.56475  0.10758  1.0000
  H   H315      1.0  0.11319  0.55854  0.13657  1.0000
  H   H316      1.0  0.10189  0.55224  0.10600  1.0000
  H   H317      1.0  0.10356  0.56420  0.07376  1.0000
  H   H318      1.0  0.10643  0.54684  0.04240  1.0000
  H   H319      1.0  0.10748  0.55937  0.01232  1.0000
  H   H320      1.0  0.11646  0.54445  0.14503  1.0000
  H   H321      1.0  0.10804  0.53940  0.12277  1.0000
  H   H322      1.0  0.10668  0.57231  0.11456  1.0000
  H   H323      1.0  0.11784  0.57919  0.07411  1.0000
  H   H324      1.0  0.13396  0.56049  0.00341  1.0000
  H   H325      1.0  0.12294  0.55906  0.99034  1.0000
  H   H326      1.0  0.12796  0.57723  0.94995  1.0000
  H   H327      1.0  0.13928  0.57799  0.96165  1.0000
  H   H328      1.0  0.09150  0.54929  0.02467  1.0000
  H   H329      1.0  0.08900  0.54552  0.07923  1.0000
  H   H330      1.0  0.09021  0.55817  0.05070  1.0000
  H   H331      1.0  0.12634  0.58023  0.12437  1.0000
  H   H332      1.0  0.11556  0.58503  0.13306  1.0000
  H   H333      1.0  0.11523  0.57306  0.16521  1.0000
  N   N8        1.0  0.05522  0.51616  0.36359  1.0000
  C   C231      1.0  0.06379  0.52327  0.32869  1.0000
  C   C232      1.0  0.04182  0.51594  0.42825  1.0000
  C   C233      1.0  0.05134  0.52165  0.39212  1.0000
  H   H334      1.0  0.04495  0.50428  0.64021  1.0000
  H   H335      1.0  0.05010  0.50555  0.86514  1.0000
  H   H336      1.0  0.11544  0.50482  0.01193  1.0000
  H   H337      1.0  0.00290  0.50300  0.52184  1.0000
  H   H338      1.0  0.01816  0.54684  0.43679  1.0000
  H   H339      1.0  0.23030  0.64556  0.66308  1.0000
  C   C234      1.0  0.06699  0.51073  0.97136  1.0000
  H   H340      1.0  0.15452  0.51231  0.67660  1.0000
  C   C235      1.0  0.04041  0.52054  0.46222  1.0000
  H   H341      1.0  0.06120  0.52906  0.30991  1.0000
  H   H342      1.0  0.21772  0.62212  0.89026  1.0000
  C   C236      1.0  0.20828  0.65119  0.71652  1.0000
  H   H343      1.0  0.04489  0.51963  0.33197  1.0000
  H   H344      1.0  0.04989  0.52857  0.37498  1.0000
  H   H345      1.0  0.05695  0.52397  0.40557  1.0000
  H   H346      1.0  0.24463  0.64934  0.08286  1.0000
  C   C237      1.0  0.22164  0.62618  0.02076  1.0000
  H   H347      1.0  0.22672  0.65024  0.47206  1.0000
  H   H348      1.0  0.04017  0.52834  0.45057  1.0000
  H   H349      1.0  0.06963  0.53497  0.34990  1.0000
  S   S76       1.0  0.08355  0.50793  0.26447  1.0000
  C   C238      1.0  0.04354  0.50430  0.67207  1.0000
  C   C239      1.0  0.21270  0.61533  0.91383  1.0000
  H   H350      1.0  0.24282  0.66207  0.44637  1.0000
  H   H351      1.0  0.22023  0.62228  0.77676  1.0000
  H   H352      1.0  0.08056  0.53773  0.27884  1.0000
  H   H353      1.0  0.23848  0.60767  0.31340  1.0000
  H   H354      1.0  0.20543  0.61682  0.92547  1.0000
  H   H355      1.0  0.22116  0.54177  0.83137  1.0000
  H   H356      1.0  0.01929  0.55513  0.54512  1.0000
  C   C240      1.0  0.12359  0.51336  0.92340  1.0000
  H   H357      1.0  0.21220  0.66225  0.75785  1.0000
  H   H358      1.0  0.08019  0.51171  0.98621  1.0000
  C   C241      1.0  0.20400  0.61160  0.69952  1.0000
  N   N9        1.0  0.17751  0.56379  0.51052  1.0000
  C   C242      1.0  0.18219  0.55620  0.49669  1.0000
  C   C243      1.0  0.17538  0.56124  0.55587  1.0000
  C   C244      1.0  0.18420  0.56123  0.57188  1.0000
  C   C245      1.0  0.18066  0.55666  0.61820  1.0000
  H   H359      1.0  0.17782  0.54865  0.51658  1.0000
  H   H360      1.0  0.18954  0.55666  0.50015  1.0000
  H   H361      1.0  0.17165  0.56648  0.56759  1.0000
  H   H362      1.0  0.17021  0.55386  0.57148  1.0000
  H   H363      1.0  0.16339  0.55521  0.51640  1.0000
  H   H364      1.0  0.15840  0.56690  0.55263  1.0000
  H   H365      1.0  0.18916  0.55695  0.55954  1.0000
  H   H366      1.0  0.18699  0.55724  0.62971  1.0000
  H   H367      1.0  0.17543  0.56049  0.63254  1.0000
  H   H368      1.0  0.17694  0.54876  0.62750  1.0000
  H   H369      1.0  0.18780  0.54277  0.45920  1.0000
  H   H370      1.0  0.19054  0.55037  0.40752  1.0000
  N   N10       1.0  0.12502  0.51321  0.69216  1.0000
  C   C246      1.0  0.12079  0.51982  0.71446  1.0000
  C   C247      1.0  0.24779  0.57676  0.76777  1.0000
  C   C248      1.0  0.13466  0.51248  0.69935  1.0000
  C   C249      1.0  0.12705  0.51741  0.64693  1.0000
  C   C250      1.0  0.11814  0.51903  0.63284  1.0000
  C   C251      1.0  0.12717  0.53042  0.70174  1.0000
  C   C252      1.0  0.01488  0.55106  0.45605  1.0000
  H   H371      1.0  0.05696  0.51180  0.12552  1.0000
  H   H372      1.0  0.01346  0.51395  0.92164  1.0000
  H   H373      1.0  0.02777  0.51181  0.94558  1.0000
  H   H374      1.0  0.22266  0.62434  0.05100  1.0000
  H   H375      1.0  0.11929  0.51638  0.74768  1.0000
  H   H376      1.0  0.11357  0.52056  0.71139  1.0000
  H   H377      1.0  0.21138  0.62317  0.97087  1.0000
  H   H378      1.0  0.16136  0.51907  0.33228  1.0000
  H   H379      1.0  0.13544  0.50721  0.35552  1.0000
  H   H380      1.0  0.14014  0.51964  0.68375  1.0000
  H   H381      1.0  0.13271  0.52447  0.63402  1.0000
  H   H382      1.0  0.23315  0.65016  0.58976  1.0000
  H   H383      1.0  0.11395  0.52340  0.64859  1.0000
  H   H384      1.0  0.11859  0.50539  0.47222  1.0000
  H   H385      1.0  0.12881  0.53435  0.66895  1.0000
  C   C253      1.0  0.20496  0.65841  0.84202  1.0000
  H   H386      1.0  0.12869  0.63078  0.46866  1.0000
  H   H387      1.0  0.08456  0.52678  0.29809  1.0000
  C   C254      1.0  0.07191  0.52870  0.34106  1.0000
  C   C255      1.0  0.22861  0.65656  0.44378  1.0000
  C   C256      1.0  0.22312  0.63009  0.77282  1.0000
  H   H388      1.0  0.20703  0.53323  0.89312  1.0000
  Fe  Fe38      1.0  0.07856  0.50545  0.86308  1.0000
  H   H389      1.0  0.22880  0.66258  0.76505  1.0000
  H   H390      1.0  0.12973  0.51376  0.89666  1.0000
  C   C257      1.0  0.16262  0.62450  0.57249  1.0000
  H   H391      1.0  0.12893  0.55270  0.07506  1.0000
  C   C258      1.0  0.19031  0.55048  0.43831  1.0000
  S   S77       1.0  0.22357  0.57058  0.94178  1.0000
  C   C259      1.0  0.21882  0.58552  0.08657  1.0000
  N   N11       1.0  0.07506  0.51994  0.05294  1.0000
  C   C260      1.0  0.17130  0.54190  0.24883  1.0000
  C   C261      1.0  0.10822  0.59550  0.55490  1.0000
  H   H392      1.0  0.07457  0.52668  0.99254  1.0000
  C   C262      1.0  0.06211  0.53943  0.08745  1.0000
  C   C263      1.0  0.12067  0.53348  0.12003  1.0000
  H   H393      1.0  0.11719  0.52771  0.15026  1.0000
  H   H394      1.0  0.11973  0.53025  0.09631  1.0000
  C   C264      1.0  0.04717  0.51306  0.34730  1.0000
  C   C265      1.0  0.18330  0.55660  0.45228  1.0000
  C   C266      1.0  0.12191  0.53640  0.72539  1.0000
  C   C267      1.0  0.07329  0.52869  0.06641  1.0000
  H   H395      1.0  0.06839  0.54599  0.07281  1.0000
  C   C268      1.0  0.18965  0.56359  0.13023  1.0000
  H   H396      1.0  0.16911  0.53380  0.25637  1.0000
  C   C269      1.0  0.16125  0.56953  0.51893  1.0000
  H   H397      1.0  0.12667  0.54390  0.71595  1.0000
  H   H398      1.0  0.08775  0.51481  0.02776  1.0000
  H   H399      1.0  0.19776  0.55296  0.15062  1.0000
  C   C270      1.0  0.20001  0.58673  0.45593  1.0000
  H   H400      1.0  0.15464  0.57292  0.47132  1.0000
  H   H401      1.0  0.11497  0.53704  0.71899  1.0000
  C   C271      1.0  0.08602  0.52124  0.03649  1.0000
  H   H402      1.0  0.07909  0.53538  0.04598  1.0000
  H   H403      1.0  0.05535  0.54179  0.08532  1.0000
  H   H404      1.0  0.18054  0.56068  0.21189  1.0000
  N   N12       1.0  0.21860  0.65518  0.71503  1.0000
  H   H405      1.0  0.08966  0.51592  0.09284  1.0000
  H   H406      1.0  0.16941  0.54366  0.27762  1.0000
  H   H407      1.0  0.18604  0.56423  0.43085  1.0000
  H   H408      1.0  0.17610  0.55350  0.45024  1.0000
  H   H409      1.0  0.19784  0.55369  0.43692  1.0000
  H   H410      1.0  0.08923  0.52769  0.00804  1.0000
  C   C272      1.0  0.15232  0.56927  0.50449  1.0000
  H   H411      1.0  0.16886  0.56493  0.46994  1.0000
  H   H412      1.0  0.11516  0.59828  0.59824  1.0000
  C   C273      1.0  0.12134  0.52453  0.58723  1.0000
  H   H413      1.0  0.03031  0.57175  0.49409  1.0000
  C   C274      1.0  0.23821  0.63173  0.85375  1.0000
  S   S78       1.0  0.01840  0.52561  0.44019  1.0000
  C   C275      1.0  0.09183  0.52260  0.06576  1.0000
  H   H414      1.0  0.09063  0.52894  0.07628  1.0000
  H   H415      1.0  0.10449  0.51798  0.03550  1.0000
  H   H416      1.0  0.07413  0.55496  0.22540  1.0000
  C   C276      1.0  0.20316  0.60279  0.73568  1.0000
  H   H417      1.0  0.18836  0.59665  0.62953  1.0000
  H   H418      1.0  0.14029  0.63631  0.47134  1.0000
  S   S79       1.0  0.02788  0.55085  0.34789  1.0000
  C   C277      1.0  0.10283  0.52440  0.04477  1.0000
  H   H419      1.0  0.23359  0.63426  0.83632  1.0000
  C   C278      1.0  0.14966  0.50571  0.36001  1.0000
  H   H420      1.0  0.19435  0.62794  0.64564  1.0000
  H   H421      1.0  0.10548  0.53111  0.01758  1.0000
  C   C279      1.0  0.21812  0.63660  0.74807  1.0000
  H   H422      1.0  0.14961  0.59340  0.57968  1.0000
  Fe  Fe39      1.0  0.00239  0.52531  0.80610  1.0000
  H   H423      1.0  0.20323  0.54036  0.85335  1.0000
  C   C280      1.0  0.20805  0.60870  0.08489  1.0000
  C   C281      1.0  0.09890  0.58857  0.58744  1.0000
  C   C282      1.0  0.13389  0.59223  0.59490  1.0000
  H   H424      1.0  0.14739  0.57326  0.51935  1.0000
  H   H425      1.0  0.09269  0.58859  0.57517  1.0000
  H   H426      1.0  0.02706  0.56977  0.58360  1.0000
  C   C283      1.0  0.17102  0.63228  0.55592  1.0000
  H   H427      1.0  0.06267  0.51805  0.62127  1.0000
  H   H428      1.0  0.23332  0.66130  0.67252  1.0000
  H   H429      1.0  0.04499  0.57490  0.20454  1.0000
  C   C284      1.0  0.21756  0.59871  0.79426  1.0000
  C   C285      1.0  0.21531  0.66005  0.30146  1.0000
  H   H430      1.0  0.01378  0.51935  0.96089  1.0000
  H   H431      1.0  0.19296  0.65419  0.82042  1.0000
  H   H432      1.0  0.20747  0.63531  0.27654  1.0000
  H   H433      1.0  0.22690  0.60567  0.99787  1.0000
  H   H434      1.0  0.02536  0.53509  0.56956  1.0000
  H   H435      1.0  0.22423  0.62636  0.94591  1.0000
  H   H436      1.0  0.09955  0.53553  0.78759  1.0000
  H   H437      1.0  0.20618  0.62736  0.03311  1.0000
  H   H438      1.0  0.23583  0.56072  0.89761  1.0000
  C   C286      1.0  0.23251  0.65585  0.60493  1.0000
  C   C287      1.0  0.16967  0.63350  0.62375  1.0000
  H   H439      1.0  0.20584  0.60962  0.67121  1.0000
  H   H440      1.0  0.10678  0.52539  0.06626  1.0000
  H   H441      1.0  0.21012  0.63404  0.76452  1.0000
  H   H442      1.0  0.11136  0.53439  0.35795  1.0000
  S   S80       1.0  0.23941  0.61778  0.19451  1.0000
  H   H443      1.0  0.18098  0.60816  0.54439  1.0000
  C   C288      1.0  0.09996  0.54354  0.77698  1.0000
  H   H444      1.0  0.09254  0.54466  0.78924  1.0000
  H   H445      1.0  0.10226  0.54615  0.74326  1.0000
  H   H446      1.0  0.16784  0.59881  0.52809  1.0000
  C   C289      1.0  0.19950  0.64211  0.83725  1.0000
  H   H447      1.0  0.10829  0.56282  0.74649  1.0000
  H   H448      1.0  0.12350  0.56120  0.71633  1.0000
  H   H449      1.0  0.14427  0.56988  0.71466  1.0000
  C   C290      1.0  0.04403  0.55467  0.50190  1.0000
  H   H450      1.0  0.13390  0.57846  0.47520  1.0000
  H   H451      1.0  0.07700  0.51243  0.58805  1.0000
  H   H452      1.0  0.21190  0.60952  0.89961  1.0000
  C   C291      1.0  0.00200  0.52942  0.63293  1.0000
  C   C292      1.0  0.19369  0.65321  0.69230  1.0000
  H   H453      1.0  0.23284  0.62301  0.31275  1.0000
  C   C293      1.0  0.12858  0.56649  0.72313  1.0000
  C   C294      1.0  0.13884  0.56488  0.70807  1.0000
  H   H454      1.0  0.10021  0.56065  0.79589  1.0000
  H   H455      1.0  0.12880  0.57405  0.70516  1.0000
  H   H456      1.0  0.14110  0.56624  0.67475  1.0000
  C   C295      1.0  0.22410  0.54791  0.87835  1.0000
  H   H457      1.0  0.04563  0.55412  0.08320  1.0000
  H   H458      1.0  0.22716  0.64017  0.10158  1.0000
  C   C296      1.0  0.04262  0.51475  0.67294  1.0000
  C   C297      1.0  0.17778  0.58292  0.65047  1.0000
  H   H459      1.0  0.22875  0.63124  0.99939  1.0000
  C   C298      1.0  0.23632  0.66495  0.44383  1.0000
  C   C299      1.0  0.10763  0.56014  0.77924  1.0000
  C   C300      1.0  0.10729  0.54900  0.79175  1.0000
  H   H460      1.0  0.11450  0.54757  0.77875  1.0000
  H   H461      1.0  0.20983  0.61793  0.69618  1.0000
  C   C301      1.0  0.12545  0.56512  0.76931  1.0000
  C   C302      1.0  0.20748  0.54081  0.87440  1.0000
  H   H462      1.0  0.12625  0.55779  0.78582  1.0000
  H   H463      1.0  0.13891  0.55720  0.72310  1.0000
  H   H464      1.0  0.06159  0.57889  0.37764  1.0000
  H   H465      1.0  0.17442  0.56784  0.90038  1.0000
  H   H466      1.0  0.19387  0.59960  0.27510  1.0000
  H   H467      1.0  0.19912  0.62266  0.60681  1.0000
  C   C303      1.0  0.19251  0.62455  0.62362  1.0000
  C   C304      1.0  0.19495  0.57577  0.47447  1.0000
  N   N13       1.0  0.11540  0.56652  0.78788  1.0000
  H   H468      1.0  0.17765  0.57777  0.76858  1.0000
  C   C305      1.0  0.16824  0.58744  0.78026  1.0000
  H   H469      1.0  0.11414  0.55615  0.84562  1.0000
  H   H470      1.0  0.10497  0.54577  0.82536  1.0000
  H   H471      1.0  0.21810  0.55335  0.82887  1.0000
  H   H472      1.0  0.11128  0.53947  0.30643  1.0000
  H   H473      1.0  0.05106  0.53805  0.52757  1.0000
  H   H474      1.0  0.19756  0.57256  0.49992  1.0000
  H   H475      1.0  0.12964  0.59460  0.90658  1.0000
  H   H476      1.0  0.11651  0.57892  0.73659  1.0000
  C   C306      1.0  0.11315  0.56369  0.83333  1.0000
  H   H477      1.0  0.10531  0.56321  0.84883  1.0000
  H   H478      1.0  0.13114  0.57043  0.77321  1.0000
  H   H479      1.0  0.09953  0.57602  0.78421  1.0000
  H   H480      1.0  0.01607  0.50638  0.50583  1.0000
  C   C307      1.0  0.02548  0.55942  0.55045  1.0000
  Fe  Fe40      1.0  0.23002  0.59791  0.87605  1.0000
  C   C308      1.0  0.11544  0.57715  0.76959  1.0000
  C   C309      1.0  0.10601  0.58031  0.78769  1.0000
  H   H481      1.0  0.13687  0.60366  0.48298  1.0000
  H   H482      1.0  0.11045  0.61066  0.04013  1.0000
  H   H483      1.0  0.19803  0.59056  0.47864  1.0000
  C   C310      1.0  0.22649  0.65097  0.64990  1.0000
  Fe  Fe41      1.0  0.17152  0.63086  0.72253  1.0000
  C   C311      1.0  0.20653  0.65450  0.30126  1.0000
  H   H484      1.0  0.12177  0.58212  0.77161  1.0000
  H   H485      1.0  0.10460  0.57930  0.82041  1.0000
  H   H486      1.0  0.12737  0.57131  0.83401  1.0000
  H   H487      1.0  0.10819  0.59255  0.73297  1.0000
  C   C312      1.0  0.11946  0.57053  0.84832  1.0000
  C   C313      1.0  0.10694  0.59115  0.76592  1.0000
  H   H488      1.0  0.10672  0.60289  0.54601  1.0000
  H   H489      1.0  0.10007  0.59322  0.77903  1.0000
  H   H490      1.0  0.22178  0.64341  0.03736  1.0000
  N   N14       1.0  0.21963  0.61708  0.00906  1.0000
  C   C314      1.0  0.04445  0.56826  0.44175  1.0000
  H   H491      1.0  0.11933  0.55926  0.90236  1.0000
  H   H492      1.0  0.06678  0.54266  0.23801  1.0000
  H   H493      1.0  0.21479  0.63688  0.98967  1.0000
  C   C315      1.0  0.23929  0.54412  0.84509  1.0000
  C   C316      1.0  0.18939  0.58941  0.82410  1.0000
  N   N15       1.0  0.21351  0.61842  0.30602  1.0000
  S   S81       1.0  0.01494  0.52202  0.82832  1.0000
  C   C317      1.0  0.11726  0.56639  0.89415  1.0000
  H   H494      1.0  0.11802  0.57796  0.84144  1.0000
  H   H495      1.0  0.11308  0.59587  0.77003  1.0000
  H   H496      1.0  0.17896  0.58245  0.61943  1.0000
  H   H497      1.0  0.23268  0.59843  0.76751  1.0000
  H   H498      1.0  0.10938  0.56531  0.91027  1.0000
  H   H499      1.0  0.14492  0.59624  0.69849  1.0000
  H   H500      1.0  0.20809  0.58770  0.44572  1.0000
  H   H501      1.0  0.03916  0.57017  0.51865  1.0000
  S   S82       1.0  0.23435  0.58620  0.84978  1.0000
  C   C318      1.0  0.23909  0.55485  0.88908  1.0000
  H   H502      1.0  0.12860  0.53583  0.11558  1.0000
  H   H503      1.0  0.23116  0.63206  0.75729  1.0000
  H   H504      1.0  0.13463  0.60757  0.57737  1.0000
  C   C319      1.0  0.14861  0.59210  0.71820  1.0000
  H   H505      1.0  0.14352  0.58493  0.73783  1.0000
  H   H506      1.0  0.15028  0.59631  0.73806  1.0000
  H   H507      1.0  0.15880  0.57095  0.23635  1.0000
  S   S83       1.0  0.23511  0.59303  0.92957  1.0000
  H   H508      1.0  0.03926  0.50539  0.85119  1.0000
  H   H509      1.0  0.20325  0.64889  0.74839  1.0000
  H   H510      1.0  0.23674  0.53708  0.87082  1.0000
  C   C320      1.0  0.07685  0.51517  0.61407  1.0000
  H   H511      1.0  0.19786  0.59016  0.42911  1.0000
  S   S84       1.0  0.23156  0.66059  0.04467  1.0000
  H   H512      1.0  0.24689  0.61177  0.88666  1.0000
  C   C321      1.0  0.04119  0.50543  0.29998  1.0000
  C   C322      1.0  0.15797  0.59042  0.69225  1.0000
  H   H513      1.0  0.16076  0.58528  0.71281  1.0000
  H   H514      1.0  0.14247  0.58571  0.63083  1.0000
  H   H515      1.0  0.18210  0.55961  0.15033  1.0000
  C   C323      1.0  0.05844  0.55361  0.24689  1.0000
  H   H516      1.0  0.12154  0.57166  0.90407  1.0000
  C   C324      1.0  0.06740  0.54942  0.24689  1.0000
  H   H517      1.0  0.06809  0.54762  0.27777  1.0000
  H   H518      1.0  0.15584  0.58683  0.67144  1.0000
  H   H519      1.0  0.05173  0.57902  0.46421  1.0000
  H   H520      1.0  0.17802  0.61747  0.66538  1.0000
  H   H521      1.0  0.06029  0.54004  0.47956  1.0000
  H   H522      1.0  0.12861  0.57313  0.40986  1.0000
  H   H523      1.0  0.13031  0.51253  0.63106  1.0000
  H   H524      1.0  0.16836  0.60213  0.69384  1.0000
  H   H525      1.0  0.01756  0.52716  0.90867  1.0000
  C   C325      1.0  0.05601  0.54373  0.49888  1.0000
  H   H526      1.0  0.05938  0.56003  0.25760  1.0000
  H   H527      1.0  0.05191  0.54794  0.26931  1.0000
  H   H528      1.0  0.05454  0.58743  0.39086  1.0000
  H   H529      1.0  0.05537  0.55469  0.44731  1.0000
  C   C326      1.0  0.16582  0.60024  0.66979  1.0000
  H   H530      1.0  0.16207  0.60601  0.65919  1.0000
  H   H531      1.0  0.14238  0.62092  0.93096  1.0000
  Fe  Fe42      1.0  0.23867  0.60159  0.21475  1.0000
  C   C327      1.0  0.06059  0.57798  0.19308  1.0000
  H   H532      1.0  0.14821  0.50339  0.72648  1.0000
  H   H533      1.0  0.05622  0.54957  0.19619  1.0000
  C   C328      1.0  0.20632  0.61299  0.29120  1.0000
  H   H534      1.0  0.05886  0.57061  0.45112  1.0000
  H   H535      1.0  0.06587  0.58719  0.40172  1.0000
  H   H536      1.0  0.06124  0.54885  0.50598  1.0000
  Fe  Fe43      1.0  0.01270  0.51416  0.41541  1.0000
  H   H537      1.0  0.17004  0.57931  0.66874  1.0000
  H   H538      1.0  0.23966  0.63732  0.19390  1.0000
  Fe  Fe44      1.0  0.17984  0.62914  0.79534  1.0000
  H   H539      1.0  0.18307  0.57691  0.70085  1.0000
  C   C329      1.0  0.05371  0.57496  0.44246  1.0000
  H   H540      1.0  0.04906  0.55923  0.51204  1.0000
  H   H541      1.0  0.03862  0.53942  0.39193  1.0000
  C   C330      1.0  0.05011  0.54938  0.47602  1.0000
  H   H542      1.0  0.05521  0.59080  0.20046  1.0000
  H   H543      1.0  0.12950  0.63272  0.51545  1.0000
  C   C331      1.0  0.21245  0.65560  0.85708  1.0000
  H   H544      1.0  0.20014  0.62953  0.40035  1.0000
  C   C332      1.0  0.17444  0.63683  0.58138  1.0000
  H   H545      1.0  0.03888  0.55338  0.25910  1.0000
  C   C333      1.0  0.05922  0.58257  0.40058  1.0000
  C   C334      1.0  0.05737  0.55648  0.20389  1.0000
  H   H546      1.0  0.06452  0.56104  0.18143  1.0000
  S   S85       1.0  0.01862  0.53788  0.64728  1.0000
  H   H547      1.0  0.06804  0.59194  0.19413  1.0000
  S   S86       1.0  0.01244  0.52486  0.35833  1.0000
  C   C335      1.0  0.10061  0.62209  0.87044  1.0000
  H   H548      1.0  0.03925  0.54715  0.22331  1.0000
  H   H549      1.0  0.00984  0.55469  0.44252  1.0000
  C   C336      1.0  0.22003  0.64458  0.22588  1.0000
  C   C337      1.0  0.05035  0.57067  0.21216  1.0000
  H   H550      1.0  0.09796  0.60796  0.91397  1.0000
  H   H551      1.0  0.04526  0.54399  0.46870  1.0000
  H   H552      1.0  0.01673  0.52978  0.52517  1.0000
  H   H553      1.0  0.18980  0.55314  0.09668  1.0000
  C   C338      1.0  0.03961  0.55459  0.22652  1.0000
  H   H554      1.0  0.15108  0.61557  0.62770  1.0000
  H   H555      1.0  0.17968  0.59720  0.50365  1.0000
  C   C339      1.0  0.04804  0.55628  0.13749  1.0000
  H   H556      1.0  0.04054  0.51254  0.28100  1.0000
  H   H557      1.0  0.04839  0.56862  0.24569  1.0000
  H   H558      1.0  0.21920  0.64707  0.65139  1.0000
  H   H559      1.0  0.03915  0.54881  0.53018  1.0000
  N   N16       1.0  0.04930  0.56160  0.19943  1.0000
  H   H560      1.0  0.04685  0.56464  0.41851  1.0000
  H   H561      1.0  0.23980  0.61170  0.35490  1.0000
  C   C340      1.0  0.06067  0.58679  0.20846  1.0000
  H   H562      1.0  0.02655  0.56409  0.42674  1.0000
  N   N17       1.0  0.03810  0.56074  0.48192  1.0000
  H   H563      1.0  0.06633  0.57448  0.20116  1.0000
  H   H564      1.0  0.17784  0.57038  0.84625  1.0000
  H   H565      1.0  0.05905  0.58436  0.24195  1.0000
  N   N18       1.0  0.23505  0.55201  0.85826  1.0000
  C   C341      1.0  0.01221  0.53268  0.61920  1.0000
  H   H566      1.0  0.13096  0.58602  0.38302  1.0000
  H   H567      1.0  0.14470  0.59890  0.61766  1.0000
  C   C342      1.0  0.14103  0.56361  0.30155  1.0000
  H   H568      1.0  0.11080  0.55577  0.31829  1.0000
  Fe  Fe45      1.0  0.01679  0.53629  0.38585  1.0000
  H   H569      1.0  0.11924  0.57809  0.39278  1.0000
  S   S87       1.0  0.17786  0.59800  0.75632  1.0000
  Fe  Fe46      1.0  0.01524  0.53297  0.71653  1.0000
  C   C343      1.0  0.13538  0.62058  0.50244  1.0000
  H   H570      1.0  0.13932  0.61912  0.47468  1.0000
  H   H571      1.0  0.17666  0.61594  0.60190  1.0000
  C   C344      1.0  0.12723  0.57857  0.38512  1.0000
  H   H572      1.0  0.05730  0.56939  0.13573  1.0000
  H   H573      1.0  0.22396  0.62549  0.24581  1.0000
  H   H574      1.0  0.20394  0.61071  0.03102  1.0000
  H   H575      1.0  0.07355  0.50896  0.35488  1.0000
  H   H576      1.0  0.12462  0.60030  0.48616  1.0000
  C   C345      1.0  0.03348  0.56603  0.50994  1.0000
  C   C346      1.0  0.01746  0.53269  0.58028  1.0000
  C   C347      1.0  0.13328  0.63070  0.48878  1.0000
  C   C348      1.0  0.04989  0.56471  0.15532  1.0000
  H   H577      1.0  0.20762  0.64440  0.70803  1.0000
  H   H578      1.0  0.23904  0.55608  0.96513  1.0000
  S   S88       1.0  0.14305  0.61340  0.85935  1.0000
  H   H579      1.0  0.03394  0.55072  0.45117  1.0000
  H   H580      1.0  0.22120  0.66385  0.27320  1.0000
  C   C349      1.0  0.19111  0.56121  0.09059  1.0000
  Fe  Fe47      1.0  0.23308  0.66561  0.89564  1.0000
  C   C350      1.0  0.10220  0.62091  0.05466  1.0000
  C   C351      1.0  0.12574  0.61252  0.52765  1.0000
  H   H581      1.0  0.24142  0.62680  0.10551  1.0000
  C   C352      1.0  0.20837  0.65622  0.37413  1.0000
  C   C353      1.0  0.02102  0.55011  0.24910  1.0000
  H   H582      1.0  0.12091  0.61320  0.50836  1.0000
  H   H583      1.0  0.18587  0.56397  0.07568  1.0000
  C   C354      1.0  0.02289  0.55882  0.45799  1.0000
  H   H584      1.0  0.12671  0.56535  0.25401  1.0000
  C   C355      1.0  0.03044  0.55400  0.47417  1.0000
  C   C356      1.0  0.05964  0.50713  0.10725  1.0000
  Fe  Fe48      1.0  0.16371  0.61998  0.47485  1.0000
  S   S89       1.0  0.22069  0.66466  0.86634  1.0000
  C   C357      1.0  0.12851  0.62496  0.93317  1.0000
  H   H585      1.0  0.23085  0.56503  0.82912  1.0000
  H   H586      1.0  0.24178  0.64547  0.86508  1.0000
  N   N19       1.0  0.12679  0.60206  0.54132  1.0000
  C   C358      1.0  0.17399  0.59560  0.53355  1.0000
  S   S90       1.0  0.16060  0.63049  0.42357  1.0000
  C   C359      1.0  0.01259  0.52969  0.55504  1.0000
  C   C360      1.0  0.04269  0.50708  0.87332  1.0000
  H   H587      1.0  0.19866  0.56478  0.06928  1.0000
  H   H588      1.0  0.04012  0.57323  0.42937  1.0000
  H   H589      1.0  0.11332  0.50325  0.91164  1.0000
  H   H590      1.0  0.13730  0.58744  0.52051  1.0000
  Fe  Fe49      1.0  0.09761  0.50403  0.23820  1.0000
  H   H591      1.0  0.12957  0.50415  0.03793  1.0000
  H   H592      1.0  0.12717  0.58863  0.22803  1.0000
  H   H593      1.0  0.12927  0.58226  0.32170  1.0000
  C   C361      1.0  0.23670  0.56103  0.82219  1.0000
  C   C362      1.0  0.21353  0.63440  0.25264  1.0000
  H   H594      1.0  0.13890  0.58364  0.26195  1.0000
  H   H595      1.0  0.22988  0.60144  0.36390  1.0000
  C   C363      1.0  0.13122  0.57686  0.34444  1.0000
  H   H596      1.0  0.13929  0.57836  0.33633  1.0000
  C   C364      1.0  0.12971  0.59896  0.50402  1.0000
  C   C365      1.0  0.11704  0.59575  0.57118  1.0000
  S   S91       1.0  0.17902  0.62059  0.43779  1.0000
  H   H597      1.0  0.13910  0.59146  0.19129  1.0000
  H   H598      1.0  0.12747  0.56107  0.37395  1.0000
  C   C366      1.0  0.24697  0.64251  0.09426  1.0000
  H   H599      1.0  0.14378  0.55098  0.28187  1.0000
  C   C367      1.0  0.13288  0.58535  0.21329  1.0000
  H   H600      1.0  0.08097  0.51123  0.63220  1.0000
  H   H601      1.0  0.09500  0.61547  0.06738  1.0000
  C   C368      1.0  0.03033  0.55785  0.22057  1.0000
  C   C369      1.0  0.19856  0.65177  0.83224  1.0000
  H   H602      1.0  0.22577  0.64404  0.19982  1.0000
  H   H603      1.0  0.10498  0.62119  0.08024  1.0000
  S   S92       1.0  0.24144  0.57980  0.12663  1.0000
  H   H604      1.0  0.12215  0.61463  0.55448  1.0000
  H   H605      1.0  0.14283  0.57693  0.22845  1.0000
  H   H606      1.0  0.14544  0.57120  0.29351  1.0000
  H   H607      1.0  0.21550  0.64928  0.21362  1.0000
  H   H608      1.0  0.22443  0.59397  0.74345  1.0000
  C   C370      1.0  0.12658  0.56632  0.34702  1.0000
  C   C371      1.0  0.13636  0.57899  0.24523  1.0000
  C   C372      1.0  0.10338  0.58469  0.01765  1.0000
  C   C373      1.0  0.23323  0.61124  0.03727  1.0000
  H   H609      1.0  0.11862  0.56598  0.35429  1.0000
  C   C374      1.0  0.10949  0.61786  0.02389  1.0000
  H   H610      1.0  0.12130  0.57203  0.28433  1.0000
  S   S93       1.0  0.16114  0.61598  0.75141  1.0000
  H   H611      1.0  0.22495  0.63201  0.27971  1.0000
  H   H612      1.0  0.10121  0.62829  0.04025  1.0000
  C   C375      1.0  0.10708  0.59553  0.01210  1.0000
  H   H613      1.0  0.11664  0.62326  0.01367  1.0000
  H   H614      1.0  0.20606  0.61413  0.37072  1.0000
  H   H615      1.0  0.20775  0.63183  0.85711  1.0000
  H   H616      1.0  0.22430  0.61660  0.36367  1.0000
  H   H617      1.0  0.09514  0.61741  0.93581  1.0000
  H   H618      1.0  0.22958  0.54342  0.94632  1.0000
  H   H619      1.0  0.11740  0.58801  0.58309  1.0000
  H   H620      1.0  0.19403  0.64704  0.67974  1.0000
  C   C376      1.0  0.06629  0.51372  0.64064  1.0000
  C   C377      1.0  0.22857  0.61288  0.00294  1.0000
  H   H621      1.0  0.10219  0.59714  0.03765  1.0000
  H   H622      1.0  0.18091  0.64285  0.56824  1.0000
  H   H623      1.0  0.09805  0.61405  0.99873  1.0000
  C   C378      1.0  0.10603  0.61767  0.98690  1.0000
  H   H624      1.0  0.08057  0.52312  0.60186  1.0000
  C   C379      1.0  0.11087  0.61754  0.91623  1.0000
  H   H625      1.0  0.10649  0.62548  0.97047  1.0000
  H   H626      1.0  0.21196  0.63663  0.33057  1.0000
  Fe  Fe50      1.0  0.15791  0.61970  0.80926  1.0000
  H   H627      1.0  0.17064  0.57760  0.86987  1.0000
  H   H628      1.0  0.22419  0.66517  0.65317  1.0000
  S   S94       1.0  0.01116  0.54063  0.76381  1.0000
  H   H629      1.0  0.14928  0.52111  0.33803  1.0000
  H   H630      1.0  0.20509  0.59721  0.31787  1.0000
  H   H631      1.0  0.11458  0.59649  0.01409  1.0000
  N   N20       1.0  0.13029  0.56331  0.30988  1.0000
  H   H632      1.0  0.12466  0.63028  0.94360  1.0000
  H   H633      1.0  0.14284  0.63372  0.92410  1.0000
  C   C380      1.0  0.17666  0.57379  0.87070  1.0000
  H   H634      1.0  0.12318  0.61145  0.98423  1.0000
  C   C381      1.0  0.10907  0.54008  0.33746  1.0000
  C   C382      1.0  0.20040  0.60252  0.31985  1.0000
  H   H635      1.0  0.14227  0.55949  0.32975  1.0000
  C   C383      1.0  0.21625  0.66102  0.33787  1.0000
  H   H636      1.0  0.18603  0.60326  0.31399  1.0000
  N   N21       1.0  0.11145  0.61292  0.95816  1.0000
  H   H637      1.0  0.12742  0.54773  0.34300  1.0000
  S   S95       1.0  0.16745  0.63533  0.77966  1.0000
  H   H638      1.0  0.14257  0.56082  0.24292  1.0000
  H   H639      1.0  0.18815  0.59110  0.32594  1.0000
  H   H640      1.0  0.04186  0.50815  0.44164  1.0000
  C   C384      1.0  0.18422  0.57703  0.66903  1.0000
  C   C385      1.0  0.23439  0.60870  0.34199  1.0000
  C   C386      1.0  0.18608  0.58099  0.86536  1.0000
  S   S96       1.0  0.11196  0.50784  0.25279  1.0000
  C   C387      1.0  0.10052  0.61573  0.91185  1.0000
  H   H641      1.0  0.18734  0.61139  0.59171  1.0000
  C   C388      1.0  0.21673  0.61202  0.94874  1.0000
  H   H642      1.0  0.22836  0.63222  0.14710  1.0000
  H   H643      1.0  0.24146  0.58022  0.77019  1.0000
  H   H644      1.0  0.21591  0.60474  0.33978  1.0000
  H   H645      1.0  0.15732  0.62331  0.67234  1.0000
  H   H646      1.0  0.11120  0.55037  0.36868  1.0000
  H   H647      1.0  0.24852  0.57341  0.74319  1.0000
  H   H648      1.0  0.20578  0.65405  0.27278  1.0000
  C   C389      1.0  0.10671  0.60209  0.97133  1.0000
  H   H649      1.0  0.22069  0.63074  0.34593  1.0000
  H   H650      1.0  0.11377  0.62566  0.90578  1.0000
  C   C390      1.0  0.05796  0.50730  0.38706  1.0000
  C   C391      1.0  0.22020  0.61189  0.31632  1.0000
  C   C392      1.0  0.22796  0.61585  0.33385  1.0000
  C   C393      1.0  0.12819  0.56966  0.27389  1.0000
  S   S97       1.0  0.16997  0.61386  0.82799  1.0000
  H   H651      1.0  0.19769  0.60231  0.35191  1.0000
  H   H652      1.0  0.10858  0.58237  0.99538  1.0000
  H   H653      1.0  0.01601  0.50750  0.71844  1.0000
  H   H654      1.0  0.05313  0.51122  0.71819  1.0000
  H   H655      1.0  0.09878  0.60087  0.97464  1.0000
  C   C394      1.0  0.03697  0.51908  0.64526  1.0000
  C   C395      1.0  0.19159  0.59894  0.30779  1.0000
  H   H656      1.0  0.24528  0.60568  0.05168  1.0000
  H   H657      1.0  0.24048  0.63477  0.05908  1.0000
  C   C396      1.0  0.12216  0.61425  0.95428  1.0000
  H   H658      1.0  0.19209  0.58023  0.65105  1.0000
  C   C397      1.0  0.13830  0.62612  0.94123  1.0000
  H   H659      1.0  0.12990  0.58094  0.19649  1.0000
  Fe  Fe51      1.0  0.17575  0.63039  0.38562  1.0000
  C   C398      1.0  0.11367  0.55031  0.33686  1.0000
  H   H660      1.0  0.11564  0.61489  0.89365  1.0000
  H   H661      1.0  0.09318  0.62041  0.86773  1.0000
  C   C399      1.0  0.04647  0.56013  0.09641  1.0000
  H   H662      1.0  0.18259  0.60009  0.87185  1.0000
  H   H663      1.0  0.21900  0.64785  0.77503  1.0000
  H   H664      1.0  0.11002  0.59901  0.94741  1.0000
  C   C400      1.0  0.17832  0.60012  0.56065  1.0000
  H   H665      1.0  0.10257  0.58020  0.04895  1.0000
  H   H666      1.0  0.16637  0.59036  0.61296  1.0000
  H   H667      1.0  0.13714  0.62476  0.97413  1.0000
  H   H668      1.0  0.03024  0.55891  0.18910  1.0000
  Fe  Fe52      1.0  0.17374  0.61134  0.76803  1.0000
  H   H669      1.0  0.20058  0.62178  0.34131  1.0000
  H   H670      1.0  0.13014  0.62694  0.89969  1.0000
  S   S98       1.0  0.15819  0.61798  0.54304  1.0000
  C   C401      1.0  0.20786  0.62064  0.34303  1.0000
  H   H671      1.0  0.10272  0.63002  0.86683  1.0000
  C   C402      1.0  0.19871  0.64956  0.33751  1.0000
  Fe  Fe53      1.0  0.23767  0.66386  0.97640  1.0000
  H   H672      1.0  0.22408  0.61010  0.28895  1.0000
  H   H673      1.0  0.09611  0.58335  0.01329  1.0000
  H   H674      1.0  0.18330  0.61265  0.90377  1.0000
  H   H675      1.0  0.04148  0.55036  0.15756  1.0000
  H   H676      1.0  0.10958  0.59285  0.52828  1.0000
  H   H677      1.0  0.18322  0.59301  0.82405  1.0000
  H   H678      1.0  0.11328  0.51182  0.63831  1.0000
  C   C403      1.0  0.21276  0.62986  0.35117  1.0000
  H   H679      1.0  0.12554  0.60974  0.93649  1.0000
  H   H680      1.0  0.19055  0.60446  0.92098  1.0000
  H   H681      1.0  0.18992  0.58590  0.79995  1.0000
  H   H682      1.0  0.17489  0.63478  0.52357  1.0000
  H   H683      1.0  0.22354  0.64818  0.24382  1.0000
  H   H684      1.0  0.21018  0.61223  0.26138  1.0000
  H   H685      1.0  0.15971  0.55937  0.22840  1.0000
  C   C404      1.0  0.20800  0.62957  0.39476  1.0000
  H   H686      1.0  0.18461  0.58389  0.89126  1.0000
  S   S99       1.0  0.23334  0.61410  0.84056  1.0000
  H   H687      1.0  0.18958  0.61169  0.83426  1.0000
  H   H688      1.0  0.00562  0.51593  0.26613  1.0000
  C   C405      1.0  0.18964  0.60568  0.86053  1.0000
  S   S100      1.0  0.18786  0.64269  0.33496  1.0000
  H   H689      1.0  0.22084  0.55287  0.89400  1.0000
  H   H690      1.0  0.21166  0.63621  0.39961  1.0000
  H   H691      1.0  0.20084  0.61729  0.28561  1.0000
  H   H692      1.0  0.21040  0.60100  0.72977  1.0000
  C   C406      1.0  0.19003  0.61002  0.89420  1.0000
  H   H693      1.0  0.20870  0.62296  0.41682  1.0000
  H   H694      1.0  0.19171  0.57678  0.86745  1.0000
  H   H695      1.0  0.19307  0.60753  0.77807  1.0000
  C   C407      1.0  0.12501  0.55270  0.32003  1.0000
  N   N22       1.0  0.19878  0.59692  0.81432  1.0000
  C   C408      1.0  0.15766  0.62146  0.61455  1.0000
  C   C409      1.0  0.21058  0.60944  0.03932  1.0000
  C   C410      1.0  0.15671  0.56285  0.25134  1.0000
  H   H696      1.0  0.17129  0.58751  0.54791  1.0000
  S   S101      1.0  0.18446  0.62590  0.73619  1.0000
  H   H697      1.0  0.19779  0.59642  0.73638  1.0000
  H   H698      1.0  0.18234  0.56932  0.66958  1.0000
  H   H699      1.0  0.19836  0.59392  0.10722  1.0000
  H   H700      1.0  0.21941  0.63529  0.71855  1.0000
  S   S102      1.0  0.19208  0.63356  0.82236  1.0000
  H   H701      1.0  0.20534  0.61188  0.77303  1.0000
  C   C411      1.0  0.21950  0.62757  0.27113  1.0000
  H   H702      1.0  0.21373  0.60638  0.09758  1.0000
  H   H703      1.0  0.05448  0.55301  0.13281  1.0000
  C   C412      1.0  0.18413  0.61534  0.64633  1.0000
  H   H704      1.0  0.19680  0.60064  0.14294  1.0000
  C   C413      1.0  0.14556  0.55912  0.26846  1.0000
  H   H705      1.0  0.12693  0.55033  0.29262  1.0000
  H   H706      1.0  0.19695  0.61380  0.70379  1.0000
  H   H707      1.0  0.18053  0.59362  0.68006  1.0000
  H   H708      1.0  0.19638  0.61644  0.88248  1.0000
  H   H709      1.0  0.20528  0.60703  0.83974  1.0000
  C   C414      1.0  0.19850  0.60115  0.84827  1.0000
  H   H710      1.0  0.20407  0.54477  0.89468  1.0000
  C   C415      1.0  0.20002  0.60515  0.77610  1.0000
  H   H711      1.0  0.22434  0.62700  0.11271  1.0000
  H   H712      1.0  0.21895  0.64349  0.87425  1.0000
  C   C416      1.0  0.23947  0.62211  0.86025  1.0000
  H   H713      1.0  0.16512  0.60254  0.59677  1.0000
  H   H714      1.0  0.21191  0.63454  0.07959  1.0000
  C   C417      1.0  0.19827  0.60129  0.11043  1.0000
  C   C418      1.0  0.21803  0.62020  0.96832  1.0000
  C   C419      1.0  0.18054  0.59375  0.64905  1.0000
  C   C420      1.0  0.13462  0.60192  0.56167  1.0000
  H   H715      1.0  0.19368  0.64676  0.40213  1.0000
  H   H716      1.0  0.10097  0.53869  0.34878  1.0000
  H   H717      1.0  0.19857  0.59549  0.87586  1.0000
  C   C421      1.0  0.16122  0.62582  0.64006  1.0000
  H   H718      1.0  0.13942  0.59127  0.44705  1.0000
  H   H719      1.0  0.21101  0.60199  0.03767  1.0000
  C   C422      1.0  0.20711  0.59193  0.80869  1.0000
  C   C423      1.0  0.24414  0.63457  0.21153  1.0000
  N   N23       1.0  0.17436  0.60048  0.63467  1.0000
  H   H720      1.0  0.20644  0.58633  0.83768  1.0000
  H   H721      1.0  0.12420  0.58285  0.53285  1.0000
  C   C424      1.0  0.13085  0.58831  0.51047  1.0000
  C   C425      1.0  0.18063  0.61090  0.61648  1.0000
  C   C426      1.0  0.17052  0.59813  0.60254  1.0000
  H   H722      1.0  0.22431  0.58640  0.79214  1.0000
  H   H723      1.0  0.20668  0.58766  0.78755  1.0000
  C   C427      1.0  0.19969  0.65041  0.37407  1.0000
  H   H724      1.0  0.21931  0.59997  0.82085  1.0000
  H   H725      1.0  0.16000  0.56100  0.27598  1.0000
  H   H726      1.0  0.12643  0.58650  0.45912  1.0000
  H   H727      1.0  0.14040  0.62109  0.52045  1.0000
  S   S103      1.0  0.17444  0.63909  0.65529  1.0000
  C   C428      1.0  0.13963  0.50476  0.68505  1.0000
  H   H728      1.0  0.21837  0.60601  0.77262  1.0000
  H   H729      1.0  0.06726  0.51963  0.30721  1.0000
  H   H730      1.0  0.12723  0.50534  0.49959  1.0000
  C   C429      1.0  0.11575  0.50351  0.93806  1.0000
  C   C430      1.0  0.23846  0.66606  0.06998  1.0000
  H   H731      1.0  0.03585  0.52624  0.64864  1.0000
  H   H732      1.0  0.22989  0.64934  0.73524  1.0000
  H   H733      1.0  0.13048  0.51882  0.24956  1.0000
  H   H734      1.0  0.01056  0.54592  0.48698  1.0000
  H   H735      1.0  0.10730  0.51316  0.38612  1.0000
  H   H736      1.0  0.11480  0.52522  0.57759  1.0000
  H   H737      1.0  0.19053  0.65852  0.67426  1.0000
  H   H738      1.0  0.03538  0.51609  0.41754  1.0000
  H   H739      1.0  0.01563  0.56059  0.60485  1.0000
  H   H740      1.0  0.23649  0.54246  0.82131  1.0000
  H   H741      1.0  0.06995  0.51755  0.94485  1.0000
  C   C431      1.0  0.06640  0.50373  0.36294  1.0000
  H   H742      1.0  0.13370  0.51080  0.73235  1.0000
  C   C432      1.0  0.05148  0.50313  0.72570  1.0000
  H   H743      1.0  0.04052  0.50829  0.37250  1.0000
  S   S104      1.0  0.00568  0.51821  0.75773  1.0000
  H   H744      1.0  0.05900  0.50978  0.98550  1.0000
  H   H745      1.0  0.15498  0.51631  0.29862  1.0000
  H   H746      1.0  0.04111  0.52035  0.61295  1.0000
  C   C433      1.0  0.05945  0.50364  0.77973  1.0000
  C   C434      1.0  0.14936  0.50499  0.69348  1.0000
  C   C435      1.0  0.24227  0.55019  0.95670  1.0000
  H   H747      1.0  0.24077  0.54043  0.92236  1.0000
  C   C436      1.0  0.24877  0.64069  0.22837  1.0000
  C   C437      1.0  0.24232  0.60723  0.02595  1.0000
  H   H748      1.0  0.24163  0.57541  0.05423  1.0000
  C   C438      1.0  0.23436  0.66453  0.11174  1.0000
  C   C439      1.0  0.15407  0.51619  0.33032  1.0000
  H   H749      1.0  0.24045  0.60027  0.01943  1.0000
  H   H750      1.0  0.20412  0.66585  0.83764  1.0000
  H   H751      1.0  0.24543  0.64108  0.12721  1.0000
  H   H752      1.0  0.13545  0.50732  0.42838  1.0000
  H   H753      1.0  0.22183  0.65900  0.44215  1.0000
  H   H754      1.0  0.06543  0.50308  0.33440  1.0000
  H   H755      1.0  0.24000  0.65978  0.60143  1.0000
  H   H756      1.0  0.10918  0.50400  0.96092  1.0000
  H   H757      1.0  0.24821  0.64818  0.22171  1.0000
  H   H758      1.0  0.10467  0.50744  0.70307  1.0000
  C   C440      1.0  0.22782  0.66804  0.73919  1.0000
  Fe  Fe54      1.0  0.24686  0.58473  0.25057  1.0000
  H   H759      1.0  0.14925  0.50594  0.39074  1.0000
  H   H760      1.0  0.06811  0.50442  0.96051  1.0000
  H   H761      1.0  0.07372  0.50442  0.07999  1.0000
  H   H762      1.0  0.14124  0.50623  0.65191  1.0000
  H   H763      1.0  0.24808  0.61267  0.99877  1.0000
  C   C441      1.0  0.20392  0.65829  0.68971  1.0000
  C   C442      1.0  0.11830  0.50299  0.70932  1.0000
  H   H764      1.0  0.10500  0.50357  0.75388  1.0000
  H   H765      1.0  0.06933  0.50387  0.02678  1.0000
  H   H766      1.0  0.23322  0.66696  0.47134  1.0000
  H   H767      1.0  0.23628  0.66816  0.16399  1.0000
  S   S105      1.0  0.02414  0.50232  0.78387  1.0000
  H   H768      1.0  0.24908  0.70879  0.31123  1.0000
  H   H769      1.0  0.24342  0.68100  0.46249  1.0000
  H   H770      1.0  0.24069  0.67119  0.37836  1.0000
  C   C443      1.0  0.23802  0.69150  0.99781  1.0000
  H   H771      1.0  0.24087  0.70896  0.07355  1.0000
  H   H772      1.0  0.22699  0.68144  0.05378  1.0000
  H   H773      1.0  0.23979  0.71129  0.94302  1.0000
  C   C444      1.0  0.24669  0.69996  0.46427  1.0000
  C   C445      1.0  0.24844  0.71351  0.05640  1.0000
  H   H774      1.0  0.24515  0.69442  0.49452  1.0000
  C   C446      1.0  0.24764  0.71519  0.93027  1.0000
  C   C447      1.0  0.23892  0.67392  0.40480  1.0000
  H   H775      1.0  0.23842  0.69645  0.04858  1.0000
  H   H776      1.0  0.24405  0.72722  0.05572  1.0000
  Fe  Fe55      1.0  0.24159  0.67141  0.28953  1.0000
  C   C448      1.0  0.22769  0.68503  0.02150  1.0000
  H   H777      1.0  0.24612  0.70006  0.28614  1.0000
  C   C449      1.0  0.24930  0.72318  0.06574  1.0000
  C   C450      1.0  0.24018  0.69432  0.35220  1.0000
  C   C451      1.0  0.24414  0.68650  0.43310  1.0000
  H   H778      1.0  0.23721  0.69731  0.37684  1.0000
  H   H779      1.0  0.23480  0.70442  0.01186  1.0000
  C   C452      1.0  0.24901  0.67521  0.11084  1.0000
  H   H780      1.0  0.24635  0.72081  0.87023  1.0000
  H   H781      1.0  0.23201  0.67633  0.40580  1.0000
  C   C453      1.0  0.24892  0.68986  0.35780  1.0000
  H   H782      1.0  0.22611  0.67918  0.00815  1.0000
  C   C454      1.0  0.24024  0.69993  0.01515  1.0000
  C   C455      1.0  0.24801  0.67178  0.04930  1.0000
  S   S106      1.0  0.23616  0.67652  0.92845  1.0000
  H   H783      1.0  0.23421  0.68871  0.35150  1.0000
  H   H784      1.0  0.23669  0.68783  0.43687  1.0000
  H   H785      1.0  0.23361  0.67983  0.75905  1.0000
  H   H786      1.0  0.23690  0.70569  0.30841  1.0000
  C   C456      1.0  0.22704  0.67728  0.75115  1.0000
  H   H787      1.0  0.22049  0.67569  0.77824  1.0000
  N   N24       1.0  0.24718  0.68239  0.39876  1.0000
  H   H788      1.0  0.21743  0.67026  0.70702  1.0000
  H   H789      1.0  0.24758  0.72165  0.09904  1.0000
  H   H790      1.0  0.24834  0.72258  0.93389  1.0000
  C   C457      1.0  0.24331  0.70273  0.31201  1.0000
  H   H791      1.0  0.22214  0.68944  0.02013  1.0000
  H   H792      1.0  0.22658  0.68328  0.72568  1.0000
  H   H793      1.0  0.23980  0.70200  0.46169  1.0000
  H   H794      1.0  0.23845  0.69442  0.96552  1.0000
  H   H795      1.0  0.24329  0.68681  0.99947  1.0000
  H   H796      1.0  0.24512  0.71915  0.00144  1.0000
  H   H797      1.0  0.23452  0.67000  0.71253  1.0000
  C   C458      1.0  0.23963  0.66909  0.13219  1.0000
  H   H798      1.0  0.46842  0.02848  0.40668  1.0000
  C   C459      1.0  0.48895  0.08767  0.45121  1.0000
  H   H799      1.0  0.49723  0.00613  0.36749  1.0000
  C   C460      1.0  0.48843  0.03212  0.33300  1.0000
  H   H800      1.0  0.46295  0.01645  0.54830  1.0000
  H   H801      1.0  0.45927  0.02839  0.47447  1.0000
  H   H802      1.0  0.43731  0.00259  0.49451  1.0000
  H   H803      1.0  0.44970  0.03564  0.40603  1.0000
  C   C461      1.0  0.45325  0.00537  0.46507  1.0000
  C   C462      1.0  0.49140  0.01711  0.83618  1.0000
  S   S107      1.0  0.46853  0.01064  0.79315  1.0000
  C   C463      1.0  0.48533  0.02344  0.36650  1.0000
  H   H804      1.0  0.46053  0.04228  0.41178  1.0000
  C   C464      1.0  0.45508  0.01582  0.55195  1.0000
  C   C465      1.0  0.49140  0.07329  0.96268  1.0000
  H   H805      1.0  0.45769  0.02186  0.40116  1.0000
  H   H806      1.0  0.48526  0.01212  0.49247  1.0000
  H   H807      1.0  0.48887  0.03842  0.27120  1.0000
  C   C466      1.0  0.45152  0.00949  0.52773  1.0000
  C   C467      1.0  0.48984  0.02538  0.84811  1.0000
  H   H808      1.0  0.44790  0.02295  0.47196  1.0000
  C   C468      1.0  0.48181  0.02905  0.84247  1.0000
  N   N25       1.0  0.45710  0.01283  0.48282  1.0000
  H   H809      1.0  0.45390  0.02331  0.54179  1.0000
  H   H810      1.0  0.47784  0.00797  0.39080  1.0000
  C   C469      1.0  0.45579  0.02286  0.46309  1.0000
  H   H811      1.0  0.47431  0.07848  0.46640  1.0000
  H   H812      1.0  0.48692  0.02360  0.39393  1.0000
  C   C470      1.0  0.47543  0.02448  0.82565  1.0000
  C   C471      1.0  0.47692  0.01615  0.81411  1.0000
  C   C472      1.0  0.48658  0.03180  0.29725  1.0000
  H   H813      1.0  0.46924  0.02740  0.82173  1.0000
  C   C473      1.0  0.48016  0.01460  0.36488  1.0000
  C   C474      1.0  0.47802  0.01435  0.32960  1.0000
  C   C475      1.0  0.48137  0.02297  0.29569  1.0000
  C   C476      1.0  0.46789  0.01358  0.47526  1.0000
  H   H814      1.0  0.47980  0.02286  0.26814  1.0000
  H   H815      1.0  0.48047  0.03539  0.85126  1.0000
  C   C477      1.0  0.44943  0.01132  0.59740  1.0000
  H   H816      1.0  0.44365  0.00943  0.53278  1.0000
  H   H817      1.0  0.47136  0.02000  0.48212  1.0000
  S   S108      1.0  0.49817  0.05010  0.03350  1.0000
  C   C478      1.0  0.45776  0.03672  0.39897  1.0000
  H   H818      1.0  0.47163  0.01504  0.44259  1.0000
  C   C479      1.0  0.48501  0.01254  0.81936  1.0000
  H   H819      1.0  0.49171  0.06589  0.98039  1.0000
  H   H820      1.0  0.46125  0.03956  0.36539  1.0000
  C   C480      1.0  0.46031  0.02700  0.41599  1.0000
  C   C481      1.0  0.44267  0.00490  0.46343  1.0000
  H   H821      1.0  0.45096  0.00409  0.60983  1.0000
  H   H822      1.0  0.49762  0.01422  0.83985  1.0000
  H   H823      1.0  0.49345  0.07992  0.00691  1.0000
  C   C482      1.0  0.48177  0.00571  0.48567  1.0000
  H   H824      1.0  0.48636  0.00626  0.81022  1.0000
  H   H825      1.0  0.48962  0.08291  0.36555  1.0000
  S   S109      1.0  0.49379  0.04330  0.33848  1.0000
  H   H826      1.0  0.44142  0.01036  0.60320  1.0000
  H   H827      1.0  0.44194  0.01209  0.44565  1.0000
  H   H828      1.0  0.45821  0.00657  0.43387  1.0000
  H   H829      1.0  0.49193  0.05104  0.11481  1.0000
  H   H830      1.0  0.47489  0.08761  0.49149  1.0000
  H   H831      1.0  0.49211  0.09040  0.29246  1.0000
  H   H832      1.0  0.47919  0.07676  0.50826  1.0000
  S   S110      1.0  0.49818  0.03080  0.86949  1.0000
  C   C483      1.0  0.47872  0.08226  0.48115  1.0000
  H   H833      1.0  0.48360  0.07362  0.96963  1.0000
  H   H834      1.0  0.49286  0.09148  0.46740  1.0000
  H   H835      1.0  0.45180  0.01621  0.61375  1.0000
  H   H836      1.0  0.46790  0.00287  0.53143  1.0000
  S   S111      1.0  0.47130  0.00347  0.32636  1.0000
  C   C484      1.0  0.47067  0.00437  0.49812  1.0000
  C   C485      1.0  0.49460  0.08039  0.43710  1.0000
  H   H837      1.0  0.49296  0.09975  0.31645  1.0000
  H   H838      1.0  0.49684  0.01080  0.31642  1.0000
  H   H839      1.0  0.49548  0.07561  0.46494  1.0000
  C   C486      1.0  0.49705  0.08123  0.97408  1.0000
  H   H840      1.0  0.48971  0.07541  0.42800  1.0000
  H   H841      1.0  0.48488  0.00678  0.45272  1.0000
  H   H842      1.0  0.49450  0.07444  0.92964  1.0000
  S   S112      1.0  0.49731  0.05491  0.91913  1.0000
  H   H843      1.0  0.48799  0.09316  0.42548  1.0000
  H   H844      1.0  0.49622  0.08838  0.95643  1.0000
  C   C487      1.0  0.49718  0.08651  0.34456  1.0000
  C   C488      1.0  0.49652  0.09411  0.30743  1.0000
  C   C489      1.0  0.49962  0.05478  0.10129  1.0000
  C   C490      1.0  0.49984  0.00576  0.33617  1.0000
  H   H845      1.0  0.48674  0.47768  0.65099  1.0000
  H   H846      1.0  0.33672  0.49877  0.83901  1.0000
  H   H847      1.0  0.45450  0.43937  0.35465  1.0000
  H   H848      1.0  0.43431  0.45864  0.48466  1.0000
  C   C491      1.0  0.45497  0.42128  0.56529  1.0000
  H   H849      1.0  0.43997  0.42114  0.59200  1.0000
  H   H850      1.0  0.43043  0.41068  0.65818  1.0000
  H   H851      1.0  0.46798  0.39998  0.37234  1.0000
  H   H852      1.0  0.46660  0.43673  0.23137  1.0000
  H   H853      1.0  0.40633  0.43958  0.25668  1.0000
  C   C492      1.0  0.46889  0.49439  0.37466  1.0000
  S   S113      1.0  0.43990  0.48738  0.92542  1.0000
  C   C493      1.0  0.46340  0.43337  0.26502  1.0000
  Fe  Fe56      1.0  0.46580  0.45118  0.49204  1.0000
  S   S114      1.0  0.45773  0.44282  0.46143  1.0000
  S   S115      1.0  0.45868  0.45381  0.55092  1.0000
  Fe  Fe57      1.0  0.48520  0.45606  0.42604  1.0000
  S   S116      1.0  0.47915  0.44806  0.38943  1.0000
  C   C494      1.0  0.46847  0.40870  0.41194  1.0000
  Fe  Fe58      1.0  0.46647  0.45504  0.40355  1.0000
  S   S117      1.0  0.46144  0.46134  0.34999  1.0000
  Fe  Fe59      1.0  0.47091  0.43645  0.44941  1.0000
  S   S118      1.0  0.46882  0.42020  0.46073  1.0000
  S   S119      1.0  0.47330  0.46410  0.43498  1.0000
  S   S120      1.0  0.47820  0.44377  0.48474  1.0000
  Fe  Fe60      1.0  0.45847  0.45429  0.80703  1.0000
  S   S121      1.0  0.46796  0.46091  0.74158  1.0000
  S   S122      1.0  0.44390  0.45833  0.82166  1.0000
  Fe  Fe61      1.0  0.47360  0.44374  0.83119  1.0000
  S   S123      1.0  0.48418  0.44963  0.76789  1.0000
  S   S124      1.0  0.47709  0.43326  0.88151  1.0000
  Fe  Fe62      1.0  0.47995  0.46377  0.76750  1.0000
  C   C495      1.0  0.49357  0.43372  0.54983  1.0000
  Fe  Fe63      1.0  0.47116  0.44611  0.74815  1.0000
  S   S125      1.0  0.47316  0.43835  0.70115  1.0000
  S   S126      1.0  0.47033  0.45830  0.83254  1.0000
  S   S127      1.0  0.46068  0.43908  0.81174  1.0000
  C   C496      1.0  0.46353  0.45015  0.59072  1.0000
  C   C497      1.0  0.46906  0.44311  0.59191  1.0000
  C   C498      1.0  0.47215  0.43968  0.62561  1.0000
  C   C499      1.0  0.46976  0.44332  0.65826  1.0000
  C   C500      1.0  0.46434  0.45046  0.65692  1.0000
  C   C501      1.0  0.46123  0.45386  0.62320  1.0000
  H   H854      1.0  0.47069  0.44004  0.56762  1.0000
  H   H855      1.0  0.47626  0.43408  0.62668  1.0000
  H   H856      1.0  0.46234  0.45321  0.68221  1.0000
  H   H857      1.0  0.45690  0.45928  0.62259  1.0000
  H   H858      1.0  0.48660  0.46600  0.47835  1.0000
  H   H859      1.0  0.34426  0.49042  0.85074  1.0000
  C   C502      1.0  0.47197  0.40636  0.37627  1.0000
  C   C503      1.0  0.49088  0.42355  0.89927  1.0000
  C   C504      1.0  0.48915  0.43168  0.87309  1.0000
  H   H860      1.0  0.36076  0.49745  0.85726  1.0000
  H   H861      1.0  0.44893  0.41974  0.25711  1.0000
  H   H862      1.0  0.44005  0.44700  0.36279  1.0000
  H   H863      1.0  0.47264  0.41288  0.74879  1.0000
  C   C505      1.0  0.48803  0.44391  0.27729  1.0000
  C   C506      1.0  0.47343  0.41712  0.41661  1.0000
  H   H864      1.0  0.46623  0.48050  0.46266  1.0000
  H   H865      1.0  0.47088  0.43638  0.34499  1.0000
  H   H866      1.0  0.45822  0.49295  0.79254  1.0000
  C   C507      1.0  0.48588  0.42032  0.35151  1.0000
  C   C508      1.0  0.48204  0.42299  0.38609  1.0000
  H   H867      1.0  0.42546  0.43441  0.69023  1.0000
  C   C509      1.0  0.46218  0.48631  0.46549  1.0000
  H   H868      1.0  0.45872  0.49608  0.85033  1.0000
  H   H869      1.0  0.48586  0.42943  0.38987  1.0000
  C   C510      1.0  0.44079  0.47941  0.89614  1.0000
  C   C511      1.0  0.43606  0.47977  0.86701  1.0000
  C   C512      1.0  0.43698  0.47323  0.84443  1.0000
  C   C513      1.0  0.44276  0.46644  0.85037  1.0000
  C   C514      1.0  0.44753  0.46614  0.87933  1.0000
  C   C515      1.0  0.44650  0.47257  0.90225  1.0000
  H   H870      1.0  0.45694  0.42012  0.76464  1.0000
  H   H871      1.0  0.43325  0.47346  0.82218  1.0000
  H   H872      1.0  0.45184  0.46082  0.88469  1.0000
  H   H873      1.0  0.45009  0.47220  0.92500  1.0000
  C   C516      1.0  0.43774  0.47871  0.35757  1.0000
  C   C517      1.0  0.43635  0.46992  0.38873  1.0000
  C   C518      1.0  0.44370  0.46466  0.38738  1.0000
  C   C519      1.0  0.45239  0.46807  0.35440  1.0000
  C   C520      1.0  0.45369  0.47673  0.32286  1.0000
  C   C521      1.0  0.44652  0.48216  0.32498  1.0000
  H   H874      1.0  0.42957  0.46718  0.41400  1.0000
  H   H875      1.0  0.44253  0.45784  0.41131  1.0000
  H   H876      1.0  0.46038  0.47939  0.29714  1.0000
  H   H877      1.0  0.44788  0.48909  0.30161  1.0000
  H   H878      1.0  0.45523  0.48470  0.22252  1.0000
  H   H879      1.0  0.41955  0.48043  0.26848  1.0000
  H   H880      1.0  0.44480  0.42518  0.41418  1.0000
  H   H881      1.0  0.44144  0.47681  0.44600  1.0000
  H   H882      1.0  0.46924  0.42012  0.26727  1.0000
  N   N26       1.0  0.42854  0.46356  0.27782  1.0000
  H   H883      1.0  0.45230  0.46547  0.44807  1.0000
  H   H884      1.0  0.46486  0.46651  0.24824  1.0000
  C   C522      1.0  0.45287  0.48186  0.20001  1.0000
  H   H885      1.0  0.47907  0.41741  0.84875  1.0000
  H   H886      1.0  0.48696  0.44119  0.31029  1.0000
  H   H887      1.0  0.49579  0.44458  0.82030  1.0000
  C   C523      1.0  0.46633  0.43272  0.33039  1.0000
  H   H888      1.0  0.49809  0.49223  0.61322  1.0000
  H   H889      1.0  0.47519  0.49339  0.38577  1.0000
  H   H890      1.0  0.41166  0.46999  0.26590  1.0000
  H   H891      1.0  0.49033  0.40445  0.75954  1.0000
  H   H892      1.0  0.38030  0.49042  0.94319  1.0000
  C   C524      1.0  0.47192  0.49466  0.33039  1.0000
  H   H893      1.0  0.47237  0.45188  0.29733  1.0000
  C   C525      1.0  0.45632  0.41823  0.25000  1.0000
  N   N27       1.0  0.46964  0.43809  0.28528  1.0000
  H   H894      1.0  0.49814  0.40074  0.46516  1.0000
  C   C526      1.0  0.47711  0.41237  0.83224  1.0000
  H   H895      1.0  0.46240  0.42440  0.56527  1.0000
  C   C527      1.0  0.42109  0.49821  0.06932  1.0000
  H   H896      1.0  0.43757  0.49068  0.42555  1.0000
  C   C528      1.0  0.46729  0.41367  0.82559  1.0000
  H   H897      1.0  0.45817  0.40520  0.88808  1.0000
  C   C529      1.0  0.40623  0.47423  0.31851  1.0000
  C   C530      1.0  0.47885  0.40954  0.73984  1.0000
  H   H898      1.0  0.40093  0.46704  0.33650  1.0000
  Fe  Fe64      1.0  0.42828  0.50143  0.21817  1.0000
  H   H899      1.0  0.45693  0.50197  0.42969  1.0000
  H   H900      1.0  0.42857  0.48880  0.10094  1.0000
  C   C531      1.0  0.49441  0.41251  0.80833  1.0000
  C   C532      1.0  0.45088  0.49525  0.44093  1.0000
  H   H901      1.0  0.44111  0.49230  0.03838  1.0000
  N   N28       1.0  0.43930  0.42213  0.67082  1.0000
  C   C533      1.0  0.46207  0.42208  0.27464  1.0000
  H   H902      1.0  0.40233  0.47925  0.30347  1.0000
  C   C534      1.0  0.48333  0.50120  0.80107  1.0000
  H   H903      1.0  0.46604  0.49620  0.31722  1.0000
  H   H904      1.0  0.44900  0.46678  0.23729  1.0000
  H   H905      1.0  0.45201  0.47866  0.52834  1.0000
  C   C535      1.0  0.45811  0.48529  0.51115  1.0000
  C   C536      1.0  0.43601  0.47302  0.25105  1.0000
  H   H906      1.0  0.49697  0.43429  0.42171  1.0000
  H   H907      1.0  0.46031  0.42168  0.21690  1.0000
  H   H908      1.0  0.49348  0.42573  0.49036  1.0000
  H   H909      1.0  0.47542  0.40481  0.85393  1.0000
  C   C537      1.0  0.47260  0.45549  0.23429  1.0000
  C   C538      1.0  0.45550  0.43200  0.35394  1.0000
  H   H910      1.0  0.43728  0.45276  0.28337  1.0000
  H   H911      1.0  0.42058  0.44539  0.34425  1.0000
  C   C539      1.0  0.42077  0.41305  0.70862  1.0000
  C   C540      1.0  0.48555  0.47252  0.63430  1.0000
  H   H912      1.0  0.48198  0.42594  0.75533  1.0000
  S   S128      1.0  0.48486  0.40927  0.30103  1.0000
  H   H913      1.0  0.43079  0.45653  0.23146  1.0000
  H   H914      1.0  0.43968  0.46167  0.30702  1.0000
  H   H915      1.0  0.42537  0.45404  0.36574  1.0000
  C   C541      1.0  0.48802  0.42440  0.76723  1.0000
  C   C542      1.0  0.43318  0.44282  0.36145  1.0000
  C   C543      1.0  0.41475  0.47300  0.28629  1.0000
  H   H916      1.0  0.46759  0.42519  0.33649  1.0000
  H   H917      1.0  0.47253  0.49076  0.51508  1.0000
  N   N29       1.0  0.45479  0.48616  0.44326  1.0000
  H   H918      1.0  0.46793  0.45323  0.21701  1.0000
  C   C544      1.0  0.47237  0.46608  0.23254  1.0000
  C   C545      1.0  0.44540  0.47197  0.22136  1.0000
  H   H919      1.0  0.46093  0.44874  0.29063  1.0000
  H   H920      1.0  0.43501  0.43810  0.34229  1.0000
  C   C546      1.0  0.44714  0.42428  0.59414  1.0000
  C   C547      1.0  0.46984  0.48748  0.81342  1.0000
  C   C548      1.0  0.44883  0.46720  0.47583  1.0000
  C   C549      1.0  0.49297  0.47204  0.46768  1.0000
  H   H921      1.0  0.43619  0.46007  0.53067  1.0000
  C   C550      1.0  0.49914  0.40532  0.43366  1.0000
  H   H922      1.0  0.47867  0.39944  0.79688  1.0000
  C   C551      1.0  0.43284  0.43611  0.69330  1.0000
  H   H923      1.0  0.45392  0.46708  0.49353  1.0000
  H   H924      1.0  0.43279  0.47794  0.23162  1.0000
  H   H925      1.0  0.48667  0.47895  0.51094  1.0000
  C   C552      1.0  0.49743  0.43582  0.69460  1.0000
  H   H926      1.0  0.45541  0.49184  0.51465  1.0000
  H   H927      1.0  0.44172  0.45179  0.50812  1.0000
  C   C553      1.0  0.45019  0.41652  0.76055  1.0000
  H   H928      1.0  0.46242  0.47902  0.40335  1.0000
  H   H929      1.0  0.46779  0.48432  0.89254  1.0000
  H   H930      1.0  0.45037  0.42897  0.34008  1.0000
  H   H931      1.0  0.44017  0.40938  0.71588  1.0000
  H   H932      1.0  0.33738  0.49472  0.88976  1.0000
  C   C554      1.0  0.46874  0.44854  0.27894  1.0000
  H   H933      1.0  0.43163  0.48501  0.86219  1.0000
  H   H934      1.0  0.49735  0.46981  0.67555  1.0000
  H   H935      1.0  0.40995  0.45096  0.29323  1.0000
  H   H936      1.0  0.40952  0.45215  0.22389  1.0000
  H   H937      1.0  0.42361  0.46982  0.32527  1.0000
  H   H938      1.0  0.49238  0.41594  0.45403  1.0000
  S   S129      1.0  0.42839  0.48515  0.36004  1.0000
  H   H939      1.0  0.46811  0.42103  0.80422  1.0000
  C   C555      1.0  0.47751  0.47493  0.61630  1.0000
  H   H940      1.0  0.49900  0.43567  0.26233  1.0000
  C   C556      1.0  0.44624  0.47730  0.46493  1.0000
  H   H941      1.0  0.41830  0.44463  0.21884  1.0000
  H   H942      1.0  0.48218  0.43983  0.23314  1.0000
  H   H943      1.0  0.45543  0.41015  0.25774  1.0000
  C   C557      1.0  0.44048  0.41732  0.71138  1.0000
  H   H944      1.0  0.45795  0.41810  0.30726  1.0000
  H   H945      1.0  0.41497  0.45952  0.32841  1.0000
  H   H946      1.0  0.40896  0.47745  0.33932  1.0000
  H   H947      1.0  0.41871  0.44342  0.28845  1.0000
  H   H948      1.0  0.48086  0.42996  0.27663  1.0000
  H   H949      1.0  0.49934  0.42142  0.71997  1.0000
  C   C558      1.0  0.42741  0.44985  0.34439  1.0000
  C   C559      1.0  0.43365  0.45708  0.30150  1.0000
  H   H950      1.0  0.44658  0.49497  0.47192  1.0000
  H   H951      1.0  0.49975  0.44628  0.22083  1.0000
  H   H952      1.0  0.49914  0.45976  0.65890  1.0000
  N   N30       1.0  0.47375  0.49476  0.83191  1.0000
  H   H953      1.0  0.42871  0.43801  0.39276  1.0000
  C   C560      1.0  0.48009  0.43766  0.26686  1.0000
  H   H954      1.0  0.45724  0.42830  0.41363  1.0000
  H   H955      1.0  0.47120  0.48335  0.73989  1.0000
  C   C561      1.0  0.41239  0.44632  0.24081  1.0000
  H   H956      1.0  0.44965  0.48728  0.18286  1.0000
  H   H957      1.0  0.48121  0.39731  0.71727  1.0000
  C   C562      1.0  0.42050  0.46618  0.30635  1.0000
  C   C563      1.0  0.42482  0.45883  0.25054  1.0000
  H   H958      1.0  0.46443  0.40789  0.81402  1.0000
  C   C564      1.0  0.48216  0.48210  0.86658  1.0000
  H   H959      1.0  0.49662  0.41842  0.82068  1.0000
  H   H960      1.0  0.47472  0.47089  0.20038  1.0000
  C   C565      1.0  0.44746  0.42073  0.63833  1.0000
  H   H961      1.0  0.44147  0.47803  0.49323  1.0000
  H   H962      1.0  0.48863  0.42954  0.78500  1.0000
  H   H963      1.0  0.46314  0.48413  0.56330  1.0000
  H   H964      1.0  0.46396  0.48131  0.83720  1.0000
  C   C566      1.0  0.48350  0.40647  0.77392  1.0000
  C   C567      1.0  0.37285  0.50031  0.91286  1.0000
  H   H965      1.0  0.45448  0.48537  0.38463  1.0000
  H   H966      1.0  0.48786  0.47177  0.90446  1.0000
  H   H967      1.0  0.48963  0.48640  0.84665  1.0000
  H   H968      1.0  0.47214  0.40322  0.70261  1.0000
  C   C568      1.0  0.45249  0.42539  0.39798  1.0000
  C   C569      1.0  0.44822  0.49574  0.01372  1.0000
  C   C570      1.0  0.46629  0.50072  0.84117  1.0000
  H   H969      1.0  0.45600  0.43489  0.27258  1.0000
  C   C571      1.0  0.43966  0.45895  0.50134  1.0000
  H   H970      1.0  0.46760  0.50164  0.37517  1.0000
  H   H971      1.0  0.49196  0.40928  0.00368  1.0000
  H   H972      1.0  0.49362  0.44007  0.56139  1.0000
  C   C572      1.0  0.41621  0.44960  0.27188  1.0000
  H   H973      1.0  0.43831  0.47711  0.27031  1.0000
  H   H974      1.0  0.48486  0.41852  0.92498  1.0000
  H   H975      1.0  0.44360  0.46933  0.19743  1.0000
  H   H976      1.0  0.48792  0.45178  0.26878  1.0000
  H   H977      1.0  0.38841  0.50109  0.90278  1.0000
  H   H978      1.0  0.42267  0.46429  0.22829  1.0000
  H   H979      1.0  0.48025  0.45549  0.21865  1.0000
  C   C573      1.0  0.48075  0.41210  0.34616  1.0000
  S   S130      1.0  0.49100  0.47815  0.74133  1.0000
  H   H980      1.0  0.47742  0.46886  0.24742  1.0000
  C   C574      1.0  0.46608  0.48440  0.53118  1.0000
  H   H981      1.0  0.47567  0.48401  0.80056  1.0000
  C   C575      1.0  0.49310  0.40253  0.84098  1.0000
  H   H982      1.0  0.45022  0.40870  0.76411  1.0000
  H   H983      1.0  0.49155  0.46367  0.81246  1.0000
  H   H984      1.0  0.47054  0.47356  0.64117  1.0000
  H   H985      1.0  0.49298  0.40229  0.42443  1.0000
  S   S131      1.0  0.44010  0.49803  0.24429  1.0000
  H   H986      1.0  0.45473  0.42409  0.53385  1.0000
  H   H987      1.0  0.43435  0.41744  0.73702  1.0000
  Fe  Fe65      1.0  0.43127  0.49907  0.91794  1.0000
  H   H988      1.0  0.47960  0.47642  0.85397  1.0000
  C   C576      1.0  0.38144  0.49545  0.91227  1.0000
  H   H989      1.0  0.45303  0.41778  0.39948  1.0000
  H   H990      1.0  0.44857  0.43241  0.58264  1.0000
  H   H991      1.0  0.46845  0.47749  0.53104  1.0000
  C   C577      1.0  0.48287  0.47673  0.90800  1.0000
  H   H992      1.0  0.47029  0.49861  0.75662  1.0000
  C   C578      1.0  0.46550  0.49161  0.77928  1.0000
  H   H993      1.0  0.46181  0.40410  0.43552  1.0000
  C   C579      1.0  0.46403  0.48434  0.75651  1.0000
  H   H994      1.0  0.45939  0.47711  0.77802  1.0000
  C   C580      1.0  0.45979  0.48585  0.40140  1.0000
  H   H995      1.0  0.40957  0.41633  0.68091  1.0000
  H   H996      1.0  0.45943  0.48101  0.17827  1.0000
  C   C581      1.0  0.49827  0.44336  0.25417  1.0000
  C   C582      1.0  0.49803  0.47866  0.77333  1.0000
  H   H997      1.0  0.45250  0.41342  0.85986  1.0000
  H   H998      1.0  0.47636  0.47031  0.59718  1.0000
  H   H999      1.0  0.48585  0.48208  0.92130  1.0000
  H   H1000     1.0  0.48279  0.46499  0.65689  1.0000
  H   H1001     1.0  0.46177  0.41830  0.87837  1.0000
  C   C583      1.0  0.42441  0.49432  0.10197  1.0000
  C   C584      1.0  0.45949  0.41256  0.86549  1.0000
  H   H1002     1.0  0.47958  0.48277  0.59717  1.0000
  H   H1003     1.0  0.49839  0.42353  0.02319  1.0000
  H   H1004     1.0  0.46921  0.39518  0.75396  1.0000
  C   C585      1.0  0.47514  0.40075  0.72779  1.0000
  H   H1005     1.0  0.48438  0.41505  0.71222  1.0000
  N   N31       1.0  0.48564  0.41390  0.79473  1.0000
  H   H1006     1.0  0.42996  0.44932  0.70633  1.0000
  H   H1007     1.0  0.45472  0.42475  0.63696  1.0000
  H   H1008     1.0  0.43243  0.43240  0.72499  1.0000
  S   S132      1.0  0.42713  0.49286  0.17520  1.0000
  C   C586      1.0  0.42964  0.41716  0.66866  1.0000
  H   H1009     1.0  0.45663  0.42143  0.69599  1.0000
  Fe  Fe66      1.0  0.42977  0.49749  0.30334  1.0000
  C   C587      1.0  0.49771  0.42763  0.73078  1.0000
  H   H1010     1.0  0.49273  0.42470  0.32875  1.0000
  H   H1011     1.0  0.44708  0.49563  0.98461  1.0000
  H   H1012     1.0  0.44379  0.41693  0.78453  1.0000
  H   H1013     1.0  0.43932  0.43641  0.63226  1.0000
  C   C588      1.0  0.47506  0.48894  0.87078  1.0000
  C   C589      1.0  0.49302  0.47934  0.48631  1.0000
  H   H1014     1.0  0.44773  0.43671  0.65897  1.0000
  C   C590      1.0  0.49697  0.43817  0.84005  1.0000
  C   C591      1.0  0.49959  0.41094  0.00428  1.0000
  H   H1015     1.0  0.46794  0.49334  0.45092  1.0000
  H   H1016     1.0  0.49970  0.40655  0.03445  1.0000
  H   H1017     1.0  0.48932  0.39628  0.83420  1.0000
  H   H1018     1.0  0.47347  0.48755  0.32806  1.0000
  H   H1019     1.0  0.45359  0.49132  0.01901  1.0000
  H   H1020     1.0  0.49246  0.43288  0.67975  1.0000
  H   H1021     1.0  0.41976  0.41848  0.72480  1.0000
  H   H1022     1.0  0.45040  0.42970  0.71617  1.0000
  H   H1023     1.0  0.44269  0.44918  0.69169  1.0000
  H   H1024     1.0  0.42187  0.40646  0.72945  1.0000
  C   C592      1.0  0.49492  0.47285  0.60061  1.0000
  H   H1025     1.0  0.35321  0.49914  0.90101  1.0000
  H   H1026     1.0  0.48875  0.40254  0.87139  1.0000
  H   H1027     1.0  0.41178  0.40423  0.68504  1.0000
  H   H1028     1.0  0.43659  0.45137  0.65369  1.0000
  H   H1029     1.0  0.49950  0.44320  0.48804  1.0000
  S   S133      1.0  0.41497  0.49769  0.94190  1.0000
  C   C593      1.0  0.44996  0.42188  0.71829  1.0000
  H   H1030     1.0  0.49919  0.41996  0.40075  1.0000
  C   C594      1.0  0.41124  0.40991  0.70033  1.0000
  H   H1031     1.0  0.40509  0.40675  0.72951  1.0000
  H   H1032     1.0  0.49475  0.44177  0.70453  1.0000
  S   S134      1.0  0.41738  0.49988  0.27837  1.0000
  H   H1033     1.0  0.45365  0.41315  0.57411  1.0000
  H   H1034     1.0  0.46262  0.49895  0.90615  1.0000
  H   H1035     1.0  0.38210  0.49111  0.89103  1.0000
  C   C595      1.0  0.43572  0.44717  0.68557  1.0000
  H   H1036     1.0  0.48465  0.50050  0.56460  1.0000
  C   C596      1.0  0.44021  0.43301  0.66219  1.0000
  H   H1037     1.0  0.42743  0.42224  0.64534  1.0000
  H   H1038     1.0  0.44762  0.41282  0.64594  1.0000
  H   H1039     1.0  0.49524  0.42769  0.57139  1.0000
  H   H1040     1.0  0.49902  0.44175  0.34744  1.0000
  H   H1041     1.0  0.47555  0.47222  0.92913  1.0000
  H   H1042     1.0  0.49302  0.46592  0.59369  1.0000
  H   H1043     1.0  0.46033  0.48715  0.73420  1.0000
  H   H1044     1.0  0.47864  0.50063  0.31231  1.0000
  H   H1045     1.0  0.49902  0.44510  0.93751  1.0000
  H   H1046     1.0  0.42275  0.49575  0.04306  1.0000
  H   H1047     1.0  0.44795  0.49802  0.38230  1.0000
  H   H1048     1.0  0.48829  0.49661  0.79088  1.0000
  C   C597      1.0  0.49668  0.47046  0.80689  1.0000
  C   C598      1.0  0.44405  0.49696  0.41461  1.0000
  H   H1049     1.0  0.49581  0.47895  0.57256  1.0000
  H   H1050     1.0  0.36603  0.49442  0.92338  1.0000
  C   C599      1.0  0.34165  0.49681  0.85699  1.0000
  H   H1051     1.0  0.47776  0.49383  0.88637  1.0000
  C   C600      1.0  0.42245  0.49760  0.13578  1.0000
  C   C601      1.0  0.49925  0.41597  0.43146  1.0000
  H   H1052     1.0  0.48611  0.43119  0.54862  1.0000
  Fe  Fe67      1.0  0.47782  0.54529  0.33975  1.0000
  S   S135      1.0  0.48273  0.55174  0.38310  1.0000
  S   S136      1.0  0.47194  0.52904  0.35587  1.0000
  Fe  Fe68      1.0  0.47432  0.56298  0.36522  1.0000
  S   S137      1.0  0.46432  0.56721  0.41430  1.0000
  S   S138      1.0  0.46835  0.55566  0.32635  1.0000
  S   S139      1.0  0.43389  0.51768  0.20138  1.0000
  H   H1053     1.0  0.44409  0.52536  0.01965  1.0000
  Fe  Fe69      1.0  0.44462  0.51403  0.23338  1.0000
  S   S140      1.0  0.46036  0.52206  0.20778  1.0000
  H   H1054     1.0  0.41135  0.54248  0.01664  1.0000
  Fe  Fe70      1.0  0.44390  0.61315  0.41079  1.0000
  S   S141      1.0  0.43756  0.60441  0.47697  1.0000
  S   S142      1.0  0.45235  0.60766  0.36231  1.0000
  Fe  Fe71      1.0  0.43569  0.63065  0.42284  1.0000
  S   S143      1.0  0.42859  0.62321  0.49016  1.0000
  S   S144      1.0  0.43533  0.64599  0.38858  1.0000
  Fe  Fe72      1.0  0.44258  0.61848  0.48813  1.0000
  S   S145      1.0  0.45069  0.61800  0.53370  1.0000
  Fe  Fe73      1.0  0.42427  0.60994  0.47308  1.0000
  S   S146      1.0  0.40927  0.59996  0.50058  1.0000
  S   S147      1.0  0.45012  0.62691  0.42180  1.0000
  S   S148      1.0  0.43017  0.61772  0.40591  1.0000
  Fe  Fe74      1.0  0.37293  0.56676  0.36521  1.0000
  S   S149      1.0  0.37782  0.57533  0.40252  1.0000
  S   S150      1.0  0.36773  0.57290  0.31213  1.0000
  Fe  Fe75      1.0  0.38026  0.54901  0.40190  1.0000
  S   S151      1.0  0.38562  0.55598  0.44316  1.0000
  S   S152      1.0  0.38215  0.53379  0.40142  1.0000
  Fe  Fe76      1.0  0.37170  0.56104  0.45448  1.0000
  S   S153      1.0  0.36289  0.56161  0.51546  1.0000
  Fe  Fe77      1.0  0.39129  0.56960  0.38906  1.0000
  S   S154      1.0  0.40649  0.57854  0.37342  1.0000
  S   S155      1.0  0.36560  0.55285  0.41806  1.0000
  S   S156      1.0  0.38713  0.56233  0.34679  1.0000
  Fe  Fe78      1.0  0.46947  0.55752  0.98916  1.0000
  S   S157      1.0  0.47632  0.56713  0.92448  1.0000
  S   S158      1.0  0.45387  0.54909  0.01036  1.0000
  Fe  Fe79      1.0  0.48213  0.57821  0.94984  1.0000
  S   S159      1.0  0.48023  0.59366  0.92762  1.0000
  S   S160      1.0  0.47427  0.56899  0.01505  1.0000
  Fe  Fe80      1.0  0.43322  0.61887  0.75429  1.0000
  S   S161      1.0  0.44362  0.62420  0.78459  1.0000
  S   S162      1.0  0.43128  0.62723  0.69537  1.0000
  Fe  Fe81      1.0  0.42360  0.59997  0.82446  1.0000
  S   S163      1.0  0.43309  0.60347  0.86061  1.0000
  S   S164      1.0  0.41198  0.58599  0.84739  1.0000
  Fe  Fe82      1.0  0.43046  0.61863  0.84145  1.0000
  H   H1055     1.0  0.26932  0.61856  0.10325  1.0000
  Fe  Fe83      1.0  0.44533  0.60857  0.80143  1.0000
  S   S165      1.0  0.45990  0.60427  0.79197  1.0000
  S   S166      1.0  0.41997  0.61460  0.81014  1.0000
  S   S167      1.0  0.43596  0.60378  0.76646  1.0000
  Fe  Fe84      1.0  0.37995  0.56933  0.74299  1.0000
  S   S168      1.0  0.37153  0.56320  0.80930  1.0000
  S   S169      1.0  0.39117  0.58370  0.71709  1.0000
  Fe  Fe85      1.0  0.37138  0.55157  0.72515  1.0000
  S   S170      1.0  0.36226  0.54361  0.79079  1.0000
  S   S171      1.0  0.37445  0.54507  0.67408  1.0000
  Fe  Fe86      1.0  0.35885  0.55824  0.79020  1.0000
  S   S172      1.0  0.34401  0.55853  0.82950  1.0000
  Fe  Fe87      1.0  0.37556  0.54915  0.80591  1.0000
  S   S173      1.0  0.38017  0.54132  0.85868  1.0000
  S   S174      1.0  0.36691  0.56577  0.72320  1.0000
  S   S175      1.0  0.38495  0.55567  0.74094  1.0000
  Fe  Fe88      1.0  0.43609  0.52133  0.89259  1.0000
  H   H1056     1.0  0.44069  0.58138  0.36163  1.0000
  S   S176      1.0  0.44863  0.53461  0.86620  1.0000
  Fe  Fe89      1.0  0.41767  0.51054  0.88540  1.0000
  S   S177      1.0  0.40881  0.51294  0.84240  1.0000
  S   S178      1.0  0.42048  0.52198  0.91447  1.0000
  H   H1057     1.0  0.46324  0.51907  0.84813  1.0000
  Fe  Fe90      1.0  0.31329  0.60787  0.23623  1.0000
  S   S179      1.0  0.32558  0.61648  0.17867  1.0000
  S   S180      1.0  0.29895  0.61154  0.23123  1.0000
  Fe  Fe91      1.0  0.32756  0.59939  0.27563  1.0000
  S   S181      1.0  0.34069  0.60744  0.22065  1.0000
  S   S182      1.0  0.32992  0.59018  0.33212  1.0000
  Fe  Fe92      1.0  0.33398  0.62031  0.21813  1.0000
  S   S183      1.0  0.34384  0.63559  0.19498  1.0000
  Fe  Fe93      1.0  0.33108  0.60287  0.18634  1.0000
  S   S184      1.0  0.33745  0.59884  0.13038  1.0000
  S   S185      1.0  0.32137  0.61274  0.27565  1.0000
  S   S186      1.0  0.31828  0.59380  0.24150  1.0000
  Fe  Fe94      1.0  0.48192  0.56496  0.27528  1.0000
  H   H1058     1.0  0.38866  0.55754  0.26743  1.0000
  S   S187      1.0  0.25898  0.58027  0.27392  1.0000
  Fe  Fe95      1.0  0.41908  0.50931  0.96905  1.0000
  S   S188      1.0  0.43520  0.51349  0.29444  1.0000
  S   S189      1.0  0.48718  0.57318  0.31323  1.0000
  H   H1059     1.0  0.43687  0.51389  0.05708  1.0000
  H   H1060     1.0  0.38201  0.55921  0.94579  1.0000
  H   H1061     1.0  0.46313  0.61257  0.41295  1.0000
  S   S190      1.0  0.48142  0.57368  0.21395  1.0000
  H   H1062     1.0  0.49449  0.53686  0.41313  1.0000
  Fe  Fe96      1.0  0.31220  0.59601  0.98202  1.0000
  S   S191      1.0  0.30525  0.60863  0.96878  1.0000
  S   S192      1.0  0.30673  0.58659  0.04786  1.0000
  Fe  Fe97      1.0  0.32458  0.60121  0.89400  1.0000
  S   S193      1.0  0.31823  0.61416  0.87387  1.0000
  S   S194      1.0  0.33764  0.59952  0.84766  1.0000
  Fe  Fe98      1.0  0.32026  0.61756  0.92855  1.0000
  S   S195      1.0  0.32535  0.63305  0.92901  1.0000
  Fe  Fe99      1.0  0.30370  0.60407  0.91571  1.0000
  S   S196      1.0  0.28916  0.60559  0.90636  1.0000
  S   S197      1.0  0.32741  0.60528  0.94653  1.0000
  S   S198      1.0  0.30983  0.59079  0.93124  1.0000
  C   C602      1.0  0.26269  0.58371  0.90807  1.0000
  C   C603      1.0  0.26169  0.59231  0.91735  1.0000
  C   C604      1.0  0.26981  0.59868  0.91832  1.0000
  C   C605      1.0  0.27905  0.59654  0.91023  1.0000
  C   C606      1.0  0.28002  0.58773  0.90273  1.0000
  C   C607      1.0  0.27186  0.58135  0.90159  1.0000
  C   C608      1.0  0.44929  0.54225  0.28919  1.0000
  H   H1063     1.0  0.26895  0.60543  0.92449  1.0000
  H   H1064     1.0  0.28712  0.58602  0.89628  1.0000
  H   H1065     1.0  0.39241  0.53383  0.48483  1.0000
  C   C609      1.0  0.40816  0.53966  0.96431  1.0000
  H   H1066     1.0  0.36866  0.52132  0.89784  1.0000
  H   H1067     1.0  0.38499  0.55746  0.89679  1.0000
  C   C610      1.0  0.33741  0.63617  0.93005  1.0000
  C   C611      1.0  0.34372  0.63010  0.92277  1.0000
  Fe  Fe100     1.0  0.42388  0.51606  0.26379  1.0000
  H   H1068     1.0  0.42781  0.52673  0.05740  1.0000
  H   H1069     1.0  0.34132  0.62365  0.91530  1.0000
  C   C612      1.0  0.41381  0.56745  0.27651  1.0000
  C   C613      1.0  0.32888  0.59437  0.10949  1.0000
  C   C614      1.0  0.33213  0.59411  0.06967  1.0000
  C   C615      1.0  0.32535  0.59146  0.05097  1.0000
  C   C616      1.0  0.31531  0.58878  0.07243  1.0000
  C   C617      1.0  0.31211  0.58836  0.11319  1.0000
  C   C618      1.0  0.31887  0.59137  0.13146  1.0000
  H   H1070     1.0  0.33988  0.59630  0.05276  1.0000
  H   H1071     1.0  0.32786  0.59157  0.01988  1.0000
  H   H1072     1.0  0.30439  0.58596  0.13034  1.0000
  H   H1073     1.0  0.31632  0.59137  0.16248  1.0000
  C   C619      1.0  0.34816  0.64093  0.22739  1.0000
  H   H1074     1.0  0.33351  0.55052  0.33578  1.0000
  H   H1075     1.0  0.27518  0.64565  0.01542  1.0000
  C   C620      1.0  0.36868  0.54874  0.29309  1.0000
  H   H1076     1.0  0.40749  0.55243  0.34902  1.0000
  C   C621      1.0  0.34258  0.63872  0.26814  1.0000
  C   C622      1.0  0.29833  0.63040  0.81003  1.0000
  H   H1077     1.0  0.27453  0.62431  0.29950  1.0000
  H   H1078     1.0  0.42096  0.55561  0.28430  1.0000
  H   H1079     1.0  0.33555  0.63346  0.28058  1.0000
  C   C623      1.0  0.45915  0.57359  0.86850  1.0000
  H   H1080     1.0  0.45979  0.59280  0.93412  1.0000
  C   C624      1.0  0.33721  0.61872  0.02367  1.0000
  H   H1081     1.0  0.40037  0.53992  0.97487  1.0000
  C   C625      1.0  0.27018  0.58896  0.26059  1.0000
  C   C626      1.0  0.27134  0.59890  0.23998  1.0000
  C   C627      1.0  0.28025  0.60569  0.23064  1.0000
  C   C628      1.0  0.28809  0.60261  0.24181  1.0000
  C   C629      1.0  0.28699  0.59266  0.26186  1.0000
  C   C630      1.0  0.27804  0.58587  0.27133  1.0000
  H   H1082     1.0  0.42711  0.56661  0.28992  1.0000
  H   H1083     1.0  0.28106  0.61334  0.21471  1.0000
  H   H1084     1.0  0.29296  0.59020  0.27061  1.0000
  H   H1085     1.0  0.27719  0.57818  0.28726  1.0000
  C   C631      1.0  0.38880  0.53413  0.85250  1.0000
  C   C632      1.0  0.39330  0.53318  0.81474  1.0000
  C   C633      1.0  0.39954  0.52674  0.81176  1.0000
  C   C634      1.0  0.40155  0.52148  0.84621  1.0000
  C   C635      1.0  0.39730  0.52270  0.88364  1.0000
  C   C636      1.0  0.39081  0.52886  0.88686  1.0000
  H   H1086     1.0  0.39178  0.53720  0.78806  1.0000
  H   H1087     1.0  0.40280  0.52581  0.78275  1.0000
  H   H1088     1.0  0.39870  0.51856  0.91044  1.0000
  H   H1089     1.0  0.38718  0.52939  0.91631  1.0000
  C   C637      1.0  0.34207  0.56995  0.83365  1.0000
  C   C638      1.0  0.34830  0.57879  0.80578  1.0000
  C   C639      1.0  0.34667  0.58780  0.80988  1.0000
  C   C640      1.0  0.33888  0.58805  0.84206  1.0000
  C   C641      1.0  0.33260  0.57921  0.86986  1.0000
  C   C642      1.0  0.33419  0.57019  0.86555  1.0000
  H   H1090     1.0  0.35431  0.57868  0.78079  1.0000
  H   H1091     1.0  0.35145  0.59461  0.78789  1.0000
  H   H1092     1.0  0.32658  0.57932  0.89476  1.0000
  H   H1093     1.0  0.32932  0.56336  0.88711  1.0000
  C   C643      1.0  0.40663  0.58540  0.80985  1.0000
  C   C644      1.0  0.40048  0.57658  0.81412  1.0000
  C   C645      1.0  0.39607  0.57598  0.78469  1.0000
  C   C646      1.0  0.39752  0.58430  0.75152  1.0000
  C   C647      1.0  0.40377  0.59313  0.74684  1.0000
  C   C648      1.0  0.40840  0.59366  0.77588  1.0000
  H   H1094     1.0  0.39917  0.57017  0.83995  1.0000
  H   H1095     1.0  0.39164  0.56903  0.78760  1.0000
  H   H1096     1.0  0.40500  0.59957  0.72095  1.0000
  H   H1097     1.0  0.41326  0.60048  0.77202  1.0000
  C   C649      1.0  0.47420  0.59577  0.89089  1.0000
  C   C650      1.0  0.46408  0.59517  0.90223  1.0000
  C   C651      1.0  0.45952  0.59769  0.87230  1.0000
  C   C652      1.0  0.46509  0.60090  0.83099  1.0000
  C   C653      1.0  0.47516  0.60141  0.81988  1.0000
  C   C654      1.0  0.47970  0.59895  0.84963  1.0000
  C   C655      1.0  0.35091  0.64211  0.08867  1.0000
  H   H1098     1.0  0.45170  0.59704  0.88112  1.0000
  H   H1099     1.0  0.47952  0.60390  0.78804  1.0000
  H   H1100     1.0  0.48753  0.59963  0.84064  1.0000
  C   C656      1.0  0.45221  0.54498  0.97076  1.0000
  C   C657      1.0  0.46037  0.54443  0.94133  1.0000
  C   C658      1.0  0.45920  0.54110  0.90960  1.0000
  C   C659      1.0  0.44989  0.53850  0.90671  1.0000
  C   C660      1.0  0.44166  0.53893  0.93634  1.0000
  C   C661      1.0  0.44284  0.54225  0.96828  1.0000
  H   H1101     1.0  0.46760  0.54641  0.94339  1.0000
  H   H1102     1.0  0.46547  0.54032  0.88782  1.0000
  H   H1103     1.0  0.43443  0.53678  0.93446  1.0000
  H   H1104     1.0  0.43651  0.54268  0.99103  1.0000
  C   C662      1.0  0.36645  0.55728  0.55889  1.0000
  C   C663      1.0  0.36196  0.55924  0.59460  1.0000
  C   C664      1.0  0.36447  0.55570  0.62995  1.0000
  C   C665      1.0  0.37142  0.55007  0.62991  1.0000
  C   C666      1.0  0.37590  0.54809  0.59425  1.0000
  C   C667      1.0  0.37348  0.55174  0.55880  1.0000
  H   H1105     1.0  0.35649  0.56350  0.59497  1.0000
  H   H1106     1.0  0.36092  0.55722  0.65731  1.0000
  H   H1107     1.0  0.38123  0.54367  0.59410  1.0000
  H   H1108     1.0  0.37690  0.55007  0.53175  1.0000
  C   C668      1.0  0.35725  0.57774  0.31852  1.0000
  C   C669      1.0  0.35475  0.58207  0.28413  1.0000
  C   C670      1.0  0.34640  0.58591  0.28798  1.0000
  C   C671      1.0  0.34050  0.58547  0.32630  1.0000
  C   C672      1.0  0.34301  0.58113  0.36074  1.0000
  C   C673      1.0  0.35136  0.57727  0.35691  1.0000
  H   H1109     1.0  0.35922  0.58238  0.25440  1.0000
  H   H1110     1.0  0.34443  0.58903  0.26139  1.0000
  H   H1111     1.0  0.33845  0.58072  0.39051  1.0000
  H   H1112     1.0  0.35321  0.57390  0.38365  1.0000
  C   C674      1.0  0.44504  0.62032  0.57901  1.0000
  C   C675      1.0  0.43689  0.62439  0.58322  1.0000
  C   C676      1.0  0.43267  0.62638  0.61918  1.0000
  C   C677      1.0  0.43645  0.62415  0.65152  1.0000
  C   C678      1.0  0.44445  0.61986  0.64774  1.0000
  C   C679      1.0  0.44879  0.61804  0.61143  1.0000
  H   H1113     1.0  0.43386  0.62604  0.55878  1.0000
  H   H1114     1.0  0.42640  0.62957  0.62213  1.0000
  H   H1115     1.0  0.44743  0.61815  0.67245  1.0000
  H   H1116     1.0  0.45507  0.61486  0.60848  1.0000
  C   C680      1.0  0.28352  0.61655  0.32946  1.0000
  H   H1117     1.0  0.26474  0.56937  0.10408  1.0000
  C   C681      1.0  0.29353  0.56764  0.99686  1.0000
  C   C682      1.0  0.48751  0.57181  0.10028  1.0000
  H   H1118     1.0  0.48860  0.57667  0.07012  1.0000
  C   C683      1.0  0.43367  0.52661  0.07162  1.0000
  C   C684      1.0  0.36353  0.63185  0.08792  1.0000
  S   S199      1.0  0.48209  0.55059  0.98990  1.0000
  H   H1119     1.0  0.49110  0.59713  0.43132  1.0000
  H   H1120     1.0  0.29682  0.56751  0.96551  1.0000
  C   C685      1.0  0.40850  0.59271  0.46946  1.0000
  C   C686      1.0  0.39939  0.58748  0.47177  1.0000
  C   C687      1.0  0.39877  0.58263  0.44346  1.0000
  C   C688      1.0  0.40726  0.58301  0.41310  1.0000
  C   C689      1.0  0.41641  0.58768  0.41259  1.0000
  C   C690      1.0  0.41702  0.59258  0.44058  1.0000
  H   H1121     1.0  0.39280  0.58744  0.49448  1.0000
  H   H1122     1.0  0.39169  0.57886  0.44457  1.0000
  H   H1123     1.0  0.42302  0.58779  0.38980  1.0000
  H   H1124     1.0  0.42410  0.59635  0.43933  1.0000
  C   C691      1.0  0.40726  0.53002  0.30257  1.0000
  C   C692      1.0  0.40255  0.52236  0.33929  1.0000
  C   C693      1.0  0.39481  0.52355  0.36938  1.0000
  C   C694      1.0  0.39180  0.53241  0.36306  1.0000
  C   C695      1.0  0.39646  0.53999  0.32618  1.0000
  C   C696      1.0  0.40414  0.53880  0.29611  1.0000
  H   H1125     1.0  0.40488  0.51555  0.34453  1.0000
  H   H1126     1.0  0.39119  0.51762  0.39778  1.0000
  H   H1127     1.0  0.39411  0.54676  0.32077  1.0000
  H   H1128     1.0  0.29042  0.55994  0.01761  1.0000
  C   C697      1.0  0.46065  0.57821  0.39898  1.0000
  C   C698      1.0  0.45359  0.58060  0.42743  1.0000
  C   C699      1.0  0.45080  0.58950  0.41627  1.0000
  C   C700      1.0  0.45516  0.59614  0.37678  1.0000
  C   C701      1.0  0.46205  0.59364  0.34814  1.0000
  C   C702      1.0  0.46475  0.58468  0.35912  1.0000
  H   H1129     1.0  0.45028  0.57555  0.45813  1.0000
  H   H1130     1.0  0.44526  0.59120  0.43817  1.0000
  H   H1131     1.0  0.46537  0.59869  0.31742  1.0000
  H   H1132     1.0  0.47010  0.58285  0.33684  1.0000
  C   C703      1.0  0.46912  0.52690  0.31413  1.0000
  C   C704      1.0  0.47314  0.53398  0.27552  1.0000
  C   C705      1.0  0.47073  0.53231  0.24245  1.0000
  C   C706      1.0  0.46410  0.52365  0.24820  1.0000
  C   C707      1.0  0.46008  0.51654  0.28676  1.0000
  C   C708      1.0  0.46266  0.51816  0.31957  1.0000
  H   H1133     1.0  0.47803  0.54077  0.27105  1.0000
  H   H1134     1.0  0.47378  0.53783  0.21270  1.0000
  H   H1135     1.0  0.45498  0.50979  0.29127  1.0000
  H   H1136     1.0  0.45950  0.51277  0.34929  1.0000
  N   N32       1.0  0.47147  0.57056  0.80873  1.0000
  C   C709      1.0  0.46810  0.57755  0.77906  1.0000
  C   C710      1.0  0.48040  0.57616  0.81370  1.0000
  C   C711      1.0  0.47373  0.56228  0.79278  1.0000
  C   C712      1.0  0.45847  0.57316  0.77294  1.0000
  H   H1137     1.0  0.26800  0.60930  0.36005  1.0000
  H   H1138     1.0  0.25471  0.59419  0.92296  1.0000
  C   C713      1.0  0.45531  0.58106  0.74505  1.0000
  H   H1139     1.0  0.47376  0.58033  0.74842  1.0000
  H   H1140     1.0  0.46735  0.58426  0.78778  1.0000
  H   H1141     1.0  0.48278  0.57134  0.83705  1.0000
  H   H1142     1.0  0.39039  0.64694  0.86637  1.0000
  H   H1143     1.0  0.46679  0.55716  0.79649  1.0000
  H   H1144     1.0  0.45571  0.57801  0.84868  1.0000
  H   H1145     1.0  0.45948  0.56731  0.75887  1.0000
  H   H1146     1.0  0.45237  0.56990  0.80209  1.0000
  C   C714      1.0  0.47967  0.54648  0.80261  1.0000
  H   H1147     1.0  0.46318  0.50379  0.17825  1.0000
  H   H1148     1.0  0.49858  0.51300  0.35172  1.0000
  H   H1149     1.0  0.35096  0.52182  0.95884  1.0000
  C   C715      1.0  0.35862  0.62268  0.83929  1.0000
  H   H1150     1.0  0.44836  0.57778  0.74146  1.0000
  H   H1151     1.0  0.45408  0.58703  0.75822  1.0000
  H   H1152     1.0  0.46099  0.58428  0.71456  1.0000
  C   C716      1.0  0.35926  0.59685  0.16676  1.0000
  H   H1153     1.0  0.37137  0.60479  0.11292  1.0000
  H   H1154     1.0  0.41775  0.57055  0.24329  1.0000
  H   H1155     1.0  0.35114  0.59532  0.17787  1.0000
  H   H1156     1.0  0.36130  0.58980  0.16694  1.0000
  H   H1157     1.0  0.34295  0.64174  0.09888  1.0000
  C   C717      1.0  0.44019  0.50608  0.41605  1.0000
  C   C718      1.0  0.46360  0.56616  0.84985  1.0000
  H   H1158     1.0  0.49592  0.51605  0.49045  1.0000
  N   N33       1.0  0.40744  0.57517  0.60794  1.0000
  C   C719      1.0  0.41443  0.57116  0.58096  1.0000
  C   C720      1.0  0.40490  0.56879  0.65161  1.0000
  C   C721      1.0  0.39813  0.57431  0.59684  1.0000
  C   C722      1.0  0.41134  0.58583  0.60318  1.0000
  C   C723      1.0  0.42259  0.58955  0.59179  1.0000
  C   C724      1.0  0.41632  0.57559  0.53459  1.0000
  C   C725      1.0  0.38939  0.57675  0.62463  1.0000
  C   C726      1.0  0.41348  0.56860  0.66929  1.0000
  C   C727      1.0  0.41028  0.56129  0.71234  1.0000
  C   C728      1.0  0.42522  0.59963  0.59658  1.0000
  C   C729      1.0  0.42464  0.57229  0.50969  1.0000
  C   C730      1.0  0.38176  0.57881  0.60363  1.0000
  H   H1159     1.0  0.41159  0.56307  0.58921  1.0000
  H   H1160     1.0  0.42164  0.57205  0.58585  1.0000
  H   H1161     1.0  0.39944  0.57131  0.67201  1.0000
  H   H1162     1.0  0.40134  0.56108  0.65550  1.0000
  H   H1163     1.0  0.39550  0.56674  0.59640  1.0000
  H   H1164     1.0  0.39958  0.57935  0.56550  1.0000
  H   H1165     1.0  0.40923  0.59083  0.57943  1.0000
  H   H1166     1.0  0.40778  0.58739  0.63153  1.0000
  H   H1167     1.0  0.42625  0.59031  0.55966  1.0000
  H   H1168     1.0  0.42581  0.58454  0.61043  1.0000
  H   H1169     1.0  0.40971  0.57311  0.52685  1.0000
  H   H1170     1.0  0.41820  0.58371  0.52476  1.0000
  H   H1171     1.0  0.39177  0.58330  0.63297  1.0000
  H   H1172     1.0  0.38576  0.57039  0.65292  1.0000
  H   H1173     1.0  0.41960  0.56649  0.65046  1.0000
  H   H1174     1.0  0.41612  0.57592  0.67163  1.0000
  H   H1175     1.0  0.40691  0.55381  0.71324  1.0000
  H   H1176     1.0  0.41674  0.56090  0.72284  1.0000
  H   H1177     1.0  0.40498  0.56376  0.73365  1.0000
  H   H1178     1.0  0.42272  0.60514  0.57617  1.0000
  H   H1179     1.0  0.42185  0.59931  0.62855  1.0000
  H   H1180     1.0  0.43327  0.60204  0.58844  1.0000
  H   H1181     1.0  0.42580  0.57566  0.47677  1.0000
  H   H1182     1.0  0.43157  0.57464  0.51542  1.0000
  H   H1183     1.0  0.42277  0.56417  0.51736  1.0000
  H   H1184     1.0  0.37969  0.57278  0.59181  1.0000
  H   H1185     1.0  0.37510  0.57941  0.62559  1.0000
  H   H1186     1.0  0.38474  0.58582  0.57785  1.0000
  H   H1187     1.0  0.46925  0.58355  0.11376  1.0000
  N   N34       1.0  0.36780  0.58506  0.87783  1.0000
  C   C731      1.0  0.37494  0.59167  0.88854  1.0000
  C   C732      1.0  0.35784  0.58712  0.89157  1.0000
  C   C733      1.0  0.36760  0.57449  0.89856  1.0000
  C   C734      1.0  0.37083  0.58692  0.83255  1.0000
  C   C735      1.0  0.37216  0.59766  0.80567  1.0000
  C   C736      1.0  0.38590  0.59182  0.87056  1.0000
  C   C737      1.0  0.35874  0.56662  0.90114  1.0000
  C   C738      1.0  0.35352  0.58540  0.93779  1.0000
  C   C739      1.0  0.34276  0.58575  0.94945  1.0000
  C   C740      1.0  0.37621  0.59887  0.76056  1.0000
  C   C741      1.0  0.39224  0.59805  0.88670  1.0000
  C   C742      1.0  0.35991  0.55620  0.91810  1.0000
  H   H1188     1.0  0.37319  0.58947  0.92215  1.0000
  H   H1189     1.0  0.37414  0.59937  0.87936  1.0000
  H   H1190     1.0  0.35803  0.59491  0.87636  1.0000
  H   H1191     1.0  0.35251  0.58278  0.88194  1.0000
  H   H1192     1.0  0.36774  0.57333  0.93013  1.0000
  H   H1193     1.0  0.37437  0.57260  0.88276  1.0000
  H   H1194     1.0  0.37774  0.58461  0.82184  1.0000
  H   H1195     1.0  0.36534  0.58222  0.82506  1.0000
  H   H1196     1.0  0.37732  0.60296  0.81198  1.0000
  H   H1197     1.0  0.36505  0.59975  0.81076  1.0000
  H   H1198     1.0  0.38711  0.58430  0.87873  1.0000
  H   H1199     1.0  0.38853  0.59504  0.83691  1.0000
  H   H1200     1.0  0.35786  0.56756  0.87096  1.0000
  H   H1201     1.0  0.35180  0.56716  0.92153  1.0000
  H   H1202     1.0  0.35399  0.57819  0.95651  1.0000
  H   H1203     1.0  0.35754  0.59124  0.94603  1.0000
  H   H1204     1.0  0.33831  0.57975  0.94349  1.0000
  H   H1205     1.0  0.33991  0.58482  0.98233  1.0000
  H   H1206     1.0  0.34192  0.59292  0.93177  1.0000
  H   H1207     1.0  0.38384  0.59797  0.75288  1.0000
  H   H1208     1.0  0.37162  0.59338  0.75255  1.0000
  H   H1209     1.0  0.37630  0.60634  0.74196  1.0000
  H   H1210     1.0  0.40011  0.59885  0.87082  1.0000
  H   H1211     1.0  0.39088  0.60550  0.88127  1.0000
  H   H1212     1.0  0.39071  0.59449  0.91977  1.0000
  H   H1213     1.0  0.36013  0.55475  0.94961  1.0000
  H   H1214     1.0  0.35359  0.55081  0.91848  1.0000
  H   H1215     1.0  0.36671  0.55510  0.89885  1.0000
  N   N35       1.0  0.41306  0.55291  0.89315  1.0000
  C   C743      1.0  0.41815  0.56362  0.87174  1.0000
  C   C744      1.0  0.41462  0.54978  0.93396  1.0000
  C   C745      1.0  0.41716  0.54657  0.86918  1.0000
  C   C746      1.0  0.41710  0.54929  0.82462  1.0000
  C   C747      1.0  0.42950  0.56618  0.85801  1.0000
  C   C748      1.0  0.42286  0.54341  0.80192  1.0000
  C   C749      1.0  0.43363  0.57731  0.83927  1.0000
  H   H1216     1.0  0.41581  0.56800  0.89197  1.0000
  H   H1217     1.0  0.41588  0.56666  0.84476  1.0000
  H   H1218     1.0  0.41344  0.55536  0.94957  1.0000
  H   H1219     1.0  0.42239  0.54946  0.92982  1.0000
  H   H1220     1.0  0.42477  0.54641  0.86915  1.0000
  H   H1221     1.0  0.41288  0.53882  0.88404  1.0000
  H   H1222     1.0  0.42042  0.55718  0.80737  1.0000
  H   H1223     1.0  0.40948  0.54755  0.82401  1.0000
  H   H1224     1.0  0.43210  0.56358  0.88422  1.0000
  H   H1225     1.0  0.43258  0.56279  0.83485  1.0000
  H   H1226     1.0  0.40857  0.53376  0.95041  1.0000
  H   H1227     1.0  0.39727  0.55530  0.95453  1.0000
  H   H1228     1.0  0.39970  0.56537  0.90894  1.0000
  H   H1229     1.0  0.41999  0.53539  0.81832  1.0000
  H   H1230     1.0  0.42217  0.54494  0.77108  1.0000
  H   H1231     1.0  0.43074  0.54547  0.79885  1.0000
  H   H1232     1.0  0.43093  0.58105  0.86165  1.0000
  H   H1233     1.0  0.44173  0.57914  0.82995  1.0000
  H   H1234     1.0  0.43146  0.58023  0.81199  1.0000
  H   H1235     1.0  0.40623  0.52978  0.02424  1.0000
  H   H1236     1.0  0.46939  0.62910  0.95416  1.0000
  C   C750      1.0  0.27092  0.61254  0.82234  1.0000
  H   H1237     1.0  0.33924  0.61517  0.05057  1.0000
  N   N36       1.0  0.45757  0.51696  0.05317  1.0000
  C   C751      1.0  0.46338  0.52448  0.01213  1.0000
  C   C752      1.0  0.44902  0.52063  0.07297  1.0000
  C   C753      1.0  0.46417  0.51635  0.07920  1.0000
  H   H1238     1.0  0.48568  0.53866  0.48276  1.0000
  H   H1239     1.0  0.26578  0.56887  0.17254  1.0000
  C   C754      1.0  0.47346  0.52275  0.99114  1.0000
  H   H1240     1.0  0.37378  0.52609  0.82494  1.0000
  C   C755      1.0  0.44101  0.52136  0.05256  1.0000
  H   H1241     1.0  0.44549  0.57521  0.32634  1.0000
  C   C756      1.0  0.47739  0.52837  0.94552  1.0000
  H   H1242     1.0  0.42877  0.52786  0.33834  1.0000
  H   H1243     1.0  0.46485  0.53197  0.01493  1.0000
  H   H1244     1.0  0.45908  0.52507  0.99089  1.0000
  H   H1245     1.0  0.44499  0.51566  0.10454  1.0000
  H   H1246     1.0  0.45173  0.52798  0.07540  1.0000
  H   H1247     1.0  0.46765  0.52385  0.07791  1.0000
  H   H1248     1.0  0.47035  0.51321  0.06699  1.0000
  C   C757      1.0  0.28336  0.63721  0.16752  1.0000
  S   S200      1.0  0.25267  0.57587  0.90399  1.0000
  H   H1249     1.0  0.42118  0.65642  0.81523  1.0000
  C   C758      1.0  0.26109  0.62695  0.07045  1.0000
  H   H1250     1.0  0.47894  0.52532  0.00469  1.0000
  H   H1251     1.0  0.47301  0.51484  0.99540  1.0000
  H   H1252     1.0  0.28791  0.65668  0.80556  1.0000
  H   H1253     1.0  0.45493  0.51432  0.14130  1.0000
  H   H1254     1.0  0.28046  0.62677  0.78573  1.0000
  H   H1255     1.0  0.29455  0.63079  0.21197  1.0000
  H   H1256     1.0  0.35925  0.53273  0.91946  1.0000
  H   H1257     1.0  0.48444  0.52668  0.93173  1.0000
  C   C759      1.0  0.42546  0.52624  0.37158  1.0000
  H   H1258     1.0  0.27808  0.63355  0.34892  1.0000
  C   C760      1.0  0.25969  0.64655  0.02825  1.0000
  H   H1259     1.0  0.25612  0.65254  0.01780  1.0000
  H   H1260     1.0  0.47210  0.51453  0.14156  1.0000
  N   N37       1.0  0.36127  0.62202  0.33006  1.0000
  C   C761      1.0  0.36250  0.62403  0.28551  1.0000
  C   C762      1.0  0.35053  0.62015  0.35341  1.0000
  C   C763      1.0  0.36651  0.63122  0.33480  1.0000
  C   C764      1.0  0.36546  0.61360  0.34743  1.0000
  C   C765      1.0  0.36534  0.60514  0.32892  1.0000
  C   C766      1.0  0.37315  0.62836  0.25588  1.0000
  C   C767      1.0  0.36490  0.63116  0.37919  1.0000
  C   C768      1.0  0.34335  0.61181  0.34906  1.0000
  C   C769      1.0  0.33274  0.61179  0.37013  1.0000
  C   C770      1.0  0.36841  0.59664  0.35401  1.0000
  C   C771      1.0  0.37390  0.62779  0.21353  1.0000
  C   C772      1.0  0.37203  0.63978  0.38078  1.0000
  H   H1261     1.0  0.35819  0.62935  0.27588  1.0000
  H   H1262     1.0  0.35941  0.61732  0.27962  1.0000
  H   H1263     1.0  0.34932  0.61828  0.38660  1.0000
  H   H1264     1.0  0.34801  0.62702  0.34456  1.0000
  H   H1265     1.0  0.36431  0.63774  0.31883  1.0000
  H   H1266     1.0  0.37457  0.63270  0.31991  1.0000
  H   H1267     1.0  0.37329  0.61633  0.34423  1.0000
  H   H1268     1.0  0.36166  0.61026  0.38084  1.0000
  H   H1269     1.0  0.37059  0.60774  0.29752  1.0000
  H   H1270     1.0  0.35803  0.60223  0.32748  1.0000
  H   H1271     1.0  0.37552  0.63626  0.25260  1.0000
  H   H1272     1.0  0.37831  0.62443  0.26716  1.0000
  H   H1273     1.0  0.36595  0.62428  0.39818  1.0000
  H   H1274     1.0  0.35738  0.63189  0.39297  1.0000
  H   H1275     1.0  0.34409  0.61265  0.31688  1.0000
  H   H1276     1.0  0.34450  0.60456  0.36389  1.0000
  H   H1277     1.0  0.32766  0.60569  0.36751  1.0000
  H   H1278     1.0  0.33142  0.61073  0.40294  1.0000
  H   H1279     1.0  0.33106  0.61880  0.35561  1.0000
  H   H1280     1.0  0.36259  0.59280  0.38383  1.0000
  H   H1281     1.0  0.36964  0.59128  0.33757  1.0000
  H   H1282     1.0  0.37534  0.59930  0.35931  1.0000
  H   H1283     1.0  0.36878  0.63166  0.20143  1.0000
  H   H1284     1.0  0.38147  0.63140  0.19247  1.0000
  H   H1285     1.0  0.37213  0.62002  0.21449  1.0000
  C   C773      1.0  0.27068  0.65010  0.00172  1.0000
  H   H1286     1.0  0.37093  0.64688  0.36369  1.0000
  C   C774      1.0  0.42986  0.60425  0.30777  1.0000
  H   H1287     1.0  0.26721  0.62934  0.04133  1.0000
  C   C775      1.0  0.37468  0.51674  0.78748  1.0000
  H   H1288     1.0  0.41261  0.56334  0.35519  1.0000
  H   H1289     1.0  0.43376  0.55437  0.38181  1.0000
  H   H1290     1.0  0.39940  0.54419  0.41390  1.0000
  H   H1291     1.0  0.39846  0.54375  0.91114  1.0000
  H   H1292     1.0  0.31290  0.63911  0.79931  1.0000
  C   C776      1.0  0.39579  0.62703  0.88181  1.0000
  C   C777      1.0  0.39461  0.62307  0.92697  1.0000
  H   H1293     1.0  0.40076  0.63449  0.86948  1.0000
  H   H1294     1.0  0.39932  0.62215  0.86701  1.0000
  H   H1295     1.0  0.38930  0.61579  0.94174  1.0000
  H   H1296     1.0  0.40177  0.62215  0.93052  1.0000
  H   H1297     1.0  0.46483  0.57867  0.87322  1.0000
  H   H1298     1.0  0.27999  0.56954  0.98744  1.0000
  H   H1299     1.0  0.40661  0.56265  0.28147  1.0000
  C   C778      1.0  0.40232  0.55165  0.89785  1.0000
  C   C779      1.0  0.39674  0.55732  0.92346  1.0000
  C   C780      1.0  0.41137  0.53669  0.00191  1.0000
  C   C781      1.0  0.48526  0.57522  0.13379  1.0000
  C   C782      1.0  0.25519  0.56502  0.00814  1.0000
  H   H1300     1.0  0.47865  0.58216  0.82570  1.0000
  H   H1301     1.0  0.49478  0.53341  0.50097  1.0000
  C   C783      1.0  0.48395  0.56903  0.17295  1.0000
  H   H1302     1.0  0.45748  0.56072  0.84903  1.0000
  H   H1303     1.0  0.25425  0.62520  0.06341  1.0000
  C   C784      1.0  0.44594  0.54147  0.25324  1.0000
  H   H1304     1.0  0.40131  0.55408  0.86758  1.0000
  H   H1305     1.0  0.41881  0.53532  0.99359  1.0000
  C   C785      1.0  0.36338  0.60418  0.12360  1.0000
  H   H1306     1.0  0.36222  0.59971  0.18789  1.0000
  H   H1307     1.0  0.35408  0.64651  0.05590  1.0000
  H   H1308     1.0  0.49804  0.51804  0.75215  1.0000
  H   H1309     1.0  0.47727  0.55413  0.84634  1.0000
  H   H1310     1.0  0.46651  0.56180  0.87223  1.0000
  C   C786      1.0  0.41462  0.55729  0.34417  1.0000
  H   H1311     1.0  0.26061  0.58216  0.02786  1.0000
  C   C787      1.0  0.38588  0.55513  0.92729  1.0000
  H   H1312     1.0  0.38244  0.54714  0.94224  1.0000
  H   H1313     1.0  0.43030  0.52278  0.10482  1.0000
  C   C788      1.0  0.45129  0.56837  0.90989  1.0000
  H   H1314     1.0  0.44577  0.56247  0.90828  1.0000
  H   H1315     1.0  0.37125  0.55393  0.30806  1.0000
  C   C789      1.0  0.41987  0.56158  0.29753  1.0000
  H   H1316     1.0  0.29942  0.57123  0.00610  1.0000
  H   H1317     1.0  0.39212  0.62833  0.94245  1.0000
  H   H1318     1.0  0.45469  0.56511  0.93266  1.0000
  H   H1319     1.0  0.44754  0.57375  0.92029  1.0000
  C   C790      1.0  0.35541  0.53448  0.30242  1.0000
  H   H1320     1.0  0.40511  0.62807  0.80070  1.0000
  H   H1321     1.0  0.36212  0.61624  0.14861  1.0000
  C   C791      1.0  0.28553  0.57332  0.99777  1.0000
  H   H1322     1.0  0.26991  0.58021  0.99026  1.0000
  H   H1323     1.0  0.27766  0.56605  0.06196  1.0000
  H   H1324     1.0  0.46638  0.56535  0.14651  1.0000
  H   H1325     1.0  0.46947  0.50813  0.48608  1.0000
  C   C792      1.0  0.34001  0.55686  0.32129  1.0000
  C   C793      1.0  0.32616  0.61782  0.03566  1.0000
  H   H1326     1.0  0.32257  0.60991  0.04728  1.0000
  C   C794      1.0  0.28084  0.57374  0.04110  1.0000
  H   H1327     1.0  0.28886  0.58079  0.97549  1.0000
  C   C795      1.0  0.26618  0.57776  0.02370  1.0000
  Fe  Fe101     1.0  0.37660  0.65553  0.95015  1.0000
  H   H1328     1.0  0.39489  0.61424  0.30998  1.0000
  H   H1329     1.0  0.45327  0.63026  0.95465  1.0000
  H   H1330     1.0  0.28698  0.57654  0.05109  1.0000
  H   H1331     1.0  0.41258  0.57362  0.28839  1.0000
  H   H1332     1.0  0.32734  0.63057  0.05416  1.0000
  H   H1333     1.0  0.40885  0.51352  0.10712  1.0000
  C   C796      1.0  0.35027  0.64696  0.94110  1.0000
  C   C797      1.0  0.26022  0.56693  0.03836  1.0000
  N   N38       1.0  0.27339  0.57987  0.04521  1.0000
  H   H1334     1.0  0.31975  0.63576  0.24366  1.0000
  H   H1335     1.0  0.40090  0.61240  0.78568  1.0000
  C   C798      1.0  0.42598  0.53572  0.38235  1.0000
  H   H1336     1.0  0.32438  0.62124  0.00802  1.0000
  C   C799      1.0  0.47990  0.55603  0.81287  1.0000
  H   H1337     1.0  0.25618  0.64034  0.02049  1.0000
  C   C800      1.0  0.26786  0.57744  0.08975  1.0000
  H   H1338     1.0  0.28254  0.59231  0.99319  1.0000
  H   H1339     1.0  0.28050  0.57782  0.11246  1.0000
  H   H1340     1.0  0.46246  0.53390  0.11802  1.0000
  C   C801      1.0  0.36100  0.61426  0.12212  1.0000
  H   H1341     1.0  0.42963  0.60741  0.95299  1.0000
  H   H1342     1.0  0.46713  0.50684  0.81327  1.0000
  H   H1343     1.0  0.42351  0.53314  0.17369  1.0000
  H   H1344     1.0  0.47321  0.54136  0.12081  1.0000
  H   H1345     1.0  0.45868  0.57095  0.17678  1.0000
  H   H1346     1.0  0.43731  0.53430  0.06670  1.0000
  S   S201      1.0  0.41727  0.52922  0.26420  1.0000
  H   H1347     1.0  0.41537  0.63434  0.42927  1.0000
  H   H1348     1.0  0.28342  0.60928  0.03441  1.0000
  C   C802      1.0  0.45415  0.50683  0.05076  1.0000
  C   C803      1.0  0.27878  0.59057  0.02627  1.0000
  C   C804      1.0  0.27384  0.58072  0.11558  1.0000
  H   H1349     1.0  0.26137  0.58064  0.09386  1.0000
  H   H1350     1.0  0.28481  0.59219  0.03879  1.0000
  H   H1351     1.0  0.27380  0.64972  0.33236  1.0000
  C   C805      1.0  0.46734  0.54139  0.10660  1.0000
  H   H1352     1.0  0.45615  0.54901  0.09938  1.0000
  H   H1353     1.0  0.44109  0.53955  0.13276  1.0000
  H   H1354     1.0  0.35298  0.61308  0.12803  1.0000
  H   H1355     1.0  0.36001  0.60102  0.10420  1.0000
  C   C806      1.0  0.41526  0.64113  0.40801  1.0000
  C   C807      1.0  0.26773  0.57703  0.16067  1.0000
  C   C808      1.0  0.42617  0.54056  0.15046  1.0000
  H   H1356     1.0  0.47076  0.54344  0.07333  1.0000
  H   H1357     1.0  0.43509  0.55915  0.32980  1.0000
  H   H1358     1.0  0.48485  0.51088  0.42662  1.0000
  H   H1359     1.0  0.27272  0.57468  0.89466  1.0000
  C   C809      1.0  0.27238  0.59809  0.03002  1.0000
  H   H1360     1.0  0.26754  0.59792  0.01104  1.0000
  H   H1361     1.0  0.27612  0.58886  0.10611  1.0000
  C   C810      1.0  0.46146  0.54876  0.11626  1.0000
  C   C811      1.0  0.43701  0.54475  0.14299  1.0000
  H   H1362     1.0  0.43928  0.55185  0.11804  1.0000
  H   H1363     1.0  0.42167  0.54545  0.16089  1.0000
  C   C812      1.0  0.43015  0.55816  0.36076  1.0000
  H   H1364     1.0  0.43724  0.64722  0.93355  1.0000
  C   C813      1.0  0.29074  0.63591  0.22456  1.0000
  H   H1365     1.0  0.47881  0.53641  0.93994  1.0000
  C   C814      1.0  0.48911  0.50889  0.81402  1.0000
  H   H1366     1.0  0.48943  0.60885  0.53686  1.0000
  C   C815      1.0  0.48932  0.58114  0.77442  1.0000
  H   H1367     1.0  0.35587  0.61636  0.05885  1.0000
  H   H1368     1.0  0.32112  0.63860  0.00808  1.0000
  C   C816      1.0  0.45482  0.63337  0.92143  1.0000
  H   H1369     1.0  0.47264  0.61719  0.45450  1.0000
  H   H1370     1.0  0.26775  0.59660  0.06182  1.0000
  H   H1371     1.0  0.27198  0.57980  0.17845  1.0000
  H   H1372     1.0  0.41176  0.64751  0.65182  1.0000
  H   H1373     1.0  0.46663  0.55610  0.10434  1.0000
  H   H1374     1.0  0.42514  0.53991  0.12181  1.0000
  N   N39       1.0  0.42015  0.55188  0.36883  1.0000
  H   H1375     1.0  0.42610  0.54492  0.32488  1.0000
  C   C817      1.0  0.43033  0.56849  0.36554  1.0000
  H   H1376     1.0  0.27404  0.61381  0.01631  1.0000
  C   C818      1.0  0.42135  0.54284  0.35707  1.0000
  C   C819      1.0  0.44077  0.57406  0.35777  1.0000
  H   H1377     1.0  0.41254  0.55590  0.42022  1.0000
  H   H1378     1.0  0.41420  0.53865  0.35804  1.0000
  H   H1379     1.0  0.26533  0.60136  0.23163  1.0000
  H   H1380     1.0  0.37091  0.60870  0.04141  1.0000
  H   H1381     1.0  0.39795  0.61907  0.74210  1.0000
  H   H1382     1.0  0.26486  0.56163  0.04227  1.0000
  C   C820      1.0  0.27877  0.60853  0.01508  1.0000
  H   H1383     1.0  0.45158  0.56202  0.11854  1.0000
  H   H1384     1.0  0.45306  0.53786  0.17439  1.0000
  H   H1385     1.0  0.43785  0.53870  0.26466  1.0000
  H   H1386     1.0  0.41215  0.64394  0.26338  1.0000
  H   H1387     1.0  0.48458  0.58271  0.12933  1.0000
  H   H1388     1.0  0.44242  0.61588  0.97484  1.0000
  C   C821      1.0  0.46604  0.50498  0.87655  1.0000
  H   H1389     1.0  0.28352  0.61039  0.98313  1.0000
  C   C822      1.0  0.43874  0.54590  0.18224  1.0000
  C   C823      1.0  0.45644  0.54590  0.16279  1.0000
  H   H1390     1.0  0.43686  0.53828  0.20359  1.0000
  C   C824      1.0  0.41440  0.54925  0.41336  1.0000
  C   C825      1.0  0.40455  0.54141  0.42912  1.0000
  H   H1391     1.0  0.40550  0.53443  0.42365  1.0000
  H   H1392     1.0  0.42593  0.56790  0.39671  1.0000
  H   H1393     1.0  0.36277  0.52222  0.81680  1.0000
  H   H1394     1.0  0.36459  0.61978  0.97086  1.0000
  H   H1395     1.0  0.45640  0.55524  0.21739  1.0000
  H   H1396     1.0  0.30076  0.64189  0.00814  1.0000
  H   H1397     1.0  0.46537  0.57673  0.08353  1.0000
  H   H1398     1.0  0.41892  0.54677  0.43271  1.0000
  H   H1399     1.0  0.42741  0.57306  0.34372  1.0000
  H   H1400     1.0  0.27549  0.63635  0.90220  1.0000
  C   C826      1.0  0.34915  0.55355  0.30300  1.0000
  H   H1401     1.0  0.33857  0.56240  0.29700  1.0000
  N   N40       1.0  0.36646  0.62259  0.08317  1.0000
  C   C827      1.0  0.31327  0.63774  0.02440  1.0000
  C   C828      1.0  0.36360  0.62073  0.04788  1.0000
  C   C829      1.0  0.36993  0.61556  0.02221  1.0000
  C   C830      1.0  0.48886  0.56229  0.10559  1.0000
  H   H1402     1.0  0.38722  0.61722  0.82692  1.0000
  H   H1403     1.0  0.32503  0.63325  0.11687  1.0000
  C   C831      1.0  0.40243  0.61967  0.76219  1.0000
  N   N41       1.0  0.44889  0.55128  0.17765  1.0000
  C   C832      1.0  0.45090  0.56173  0.15020  1.0000
  H   H1404     1.0  0.43318  0.54951  0.19626  1.0000
  H   H1405     1.0  0.46254  0.54679  0.17563  1.0000
  C   C833      1.0  0.25518  0.62746  0.25984  1.0000
  C   C834      1.0  0.26310  0.65277  0.08067  1.0000
  H   H1406     1.0  0.43970  0.66304  0.47701  1.0000
  H   H1407     1.0  0.39869  0.54572  0.48265  1.0000
  C   C835      1.0  0.30917  0.63453  0.78496  1.0000
  H   H1408     1.0  0.26198  0.53894  0.80830  1.0000
  C   C836      1.0  0.30742  0.64264  0.25488  1.0000
  H   H1409     1.0  0.28458  0.62296  0.91426  1.0000
  C   C837      1.0  0.39973  0.53897  0.47489  1.0000
  H   H1410     1.0  0.41518  0.50701  0.16380  1.0000
  H   H1411     1.0  0.46419  0.63603  0.77187  1.0000
  H   H1412     1.0  0.38117  0.63143  0.04868  1.0000
  H   H1413     1.0  0.45739  0.54479  0.27928  1.0000
  C   C838      1.0  0.44558  0.63700  0.91690  1.0000
  C   C839      1.0  0.28307  0.63743  0.88169  1.0000
  H   H1414     1.0  0.36090  0.52604  0.44008  1.0000
  H   H1415     1.0  0.44595  0.54748  0.30254  1.0000
  H   H1416     1.0  0.30338  0.62985  0.11914  1.0000
  C   C840      1.0  0.40028  0.62753  0.78201  1.0000
  H   H1417     1.0  0.44334  0.62010  0.89833  1.0000
  C   C841      1.0  0.46304  0.57832  0.11259  1.0000
  H   H1418     1.0  0.44457  0.56495  0.15986  1.0000
  H   H1419     1.0  0.37248  0.50427  0.93537  1.0000
  H   H1420     1.0  0.47230  0.60823  0.96209  1.0000
  C   C842      1.0  0.44445  0.61129  0.95539  1.0000
  C   C843      1.0  0.47835  0.60130  0.49453  1.0000
  H   H1421     1.0  0.36525  0.63360  0.11380  1.0000
  C   C844      1.0  0.46013  0.56886  0.14869  1.0000
  H   H1422     1.0  0.44920  0.53592  0.24213  1.0000
  H   H1423     1.0  0.45681  0.58189  0.11340  1.0000
  H   H1424     1.0  0.40427  0.53540  0.49175  1.0000
  H   H1425     1.0  0.43897  0.63082  0.93229  1.0000
  H   H1426     1.0  0.40230  0.63466  0.75712  1.0000
  C   C845      1.0  0.35254  0.52684  0.92749  1.0000
  Fe  Fe102     1.0  0.25609  0.65977  0.26320  1.0000
  H   H1427     1.0  0.40003  0.64206  0.80896  1.0000
  H   H1428     1.0  0.49703  0.50281  0.39676  1.0000
  H   H1429     1.0  0.41027  0.62169  0.74334  1.0000
  H   H1430     1.0  0.44433  0.57962  0.56710  1.0000
  H   H1431     1.0  0.37875  0.61754  0.13450  1.0000
  C   C846      1.0  0.36896  0.51950  0.82414  1.0000
  C   C847      1.0  0.38572  0.62720  0.87566  1.0000
  H   H1432     1.0  0.38129  0.61947  0.88899  1.0000
  C   C848      1.0  0.44893  0.55159  0.21915  1.0000
  C   C849      1.0  0.37743  0.62446  0.07446  1.0000
  H   H1433     1.0  0.38043  0.61868  0.06431  1.0000
  H   H1434     1.0  0.44607  0.64019  0.88474  1.0000
  H   H1435     1.0  0.47785  0.59351  0.51129  1.0000
  N   N42       1.0  0.38590  0.63151  0.83248  1.0000
  H   H1436     1.0  0.31258  0.64888  0.97204  1.0000
  H   H1437     1.0  0.38188  0.63113  0.89527  1.0000
  H   H1438     1.0  0.44399  0.55615  0.22988  1.0000
  H   H1439     1.0  0.45754  0.51766  0.51133  1.0000
  C   C850      1.0  0.44699  0.58695  0.54318  1.0000
  H   H1440     1.0  0.45864  0.58271  0.50633  1.0000
  C   C851      1.0  0.38927  0.62506  0.80732  1.0000
  H   H1441     1.0  0.35792  0.62750  0.92000  1.0000
  H   H1442     1.0  0.45140  0.61237  0.89388  1.0000
  H   H1443     1.0  0.38067  0.51374  0.86363  1.0000
  H   H1444     1.0  0.44269  0.58718  0.52207  1.0000
  C   C852      1.0  0.39000  0.65602  0.10502  1.0000
  H   H1445     1.0  0.46173  0.58783  0.54282  1.0000
  C   C853      1.0  0.46902  0.51505  0.46514  1.0000
  H   H1446     1.0  0.46758  0.60367  0.54546  1.0000
  N   N43       1.0  0.40653  0.61441  0.33651  1.0000
  C   C854      1.0  0.30829  0.64145  0.99292  1.0000
  H   H1447     1.0  0.31648  0.63786  0.29223  1.0000
  C   C855      1.0  0.45785  0.58863  0.52011  1.0000
  H   H1448     1.0  0.45314  0.51048  0.48333  1.0000
  C   C856      1.0  0.35318  0.63235  0.92504  1.0000
  H   H1449     1.0  0.44581  0.59267  0.55788  1.0000
  C   C857      1.0  0.48602  0.59747  0.41327  1.0000
  C   C858      1.0  0.41457  0.60924  0.34049  1.0000
  H   H1450     1.0  0.45473  0.63388  0.84548  1.0000
  H   H1451     1.0  0.42606  0.59635  0.31811  1.0000
  H   H1452     1.0  0.29391  0.61320  0.14865  1.0000
  C   C859      1.0  0.46181  0.59888  0.48668  1.0000
  C   C860      1.0  0.46088  0.63148  0.85476  1.0000
  H   H1453     1.0  0.45778  0.59874  0.46471  1.0000
  H   H1454     1.0  0.45943  0.60450  0.50018  1.0000
  C   C861      1.0  0.47123  0.61418  0.40121  1.0000
  C   C862      1.0  0.40898  0.64278  0.29637  1.0000
  C   C863      1.0  0.35251  0.63172  0.09541  1.0000
  C   C864      1.0  0.26219  0.61742  0.09760  1.0000
  H   H1455     1.0  0.38543  0.62527  0.78433  1.0000
  C   C865      1.0  0.49453  0.53186  0.44250  1.0000
  Fe  Fe103     1.0  0.39231  0.66449  0.32308  1.0000
  H   H1456     1.0  0.25447  0.56532  0.06814  1.0000
  H   H1457     1.0  0.40377  0.64753  0.30039  1.0000
  H   H1458     1.0  0.41186  0.65397  0.58109  1.0000
  H   H1459     1.0  0.26636  0.65719  0.81476  1.0000
  H   H1460     1.0  0.41495  0.64507  0.30808  1.0000
  H   H1461     1.0  0.47383  0.58733  0.46261  1.0000
  C   C866      1.0  0.37554  0.63185  0.83347  1.0000
  C   C867      1.0  0.44277  0.64864  0.49116  1.0000
  H   H1462     1.0  0.44711  0.53491  0.31286  1.0000
  H   H1463     1.0  0.46981  0.51405  0.43509  1.0000
  H   H1464     1.0  0.39284  0.59642  0.34885  1.0000
  H   H1465     1.0  0.35440  0.64585  0.10629  1.0000
  C   C868      1.0  0.47526  0.59492  0.44144  1.0000
  N   N44       1.0  0.45765  0.62610  0.89998  1.0000
  N   N45       1.0  0.47270  0.60185  0.46492  1.0000
  H   H1466     1.0  0.39852  0.60048  0.25645  1.0000
  C   C869      1.0  0.44913  0.61756  0.91003  1.0000
  H   H1467     1.0  0.35593  0.51960  0.33588  1.0000
  C   C870      1.0  0.27430  0.62353  0.81474  1.0000
  H   H1468     1.0  0.34947  0.62865  0.07506  1.0000
  H   H1469     1.0  0.37552  0.63587  0.80248  1.0000
  C   C871      1.0  0.43517  0.60371  0.96223  1.0000
  H   H1470     1.0  0.39031  0.58973  0.29638  1.0000
  C   C872      1.0  0.40152  0.61130  0.30872  1.0000
  H   H1471     1.0  0.39814  0.62997  0.30523  1.0000
  C   C873      1.0  0.40363  0.63201  0.31951  1.0000
  C   C874      1.0  0.39318  0.59781  0.28773  1.0000
  C   C875      1.0  0.47493  0.62490  0.37374  1.0000
  H   H1472     1.0  0.26426  0.60925  0.84955  1.0000
  H   H1473     1.0  0.48301  0.62676  0.35930  1.0000
  H   H1474     1.0  0.43688  0.59865  0.94453  1.0000
  S   S202      1.0  0.25375  0.66604  0.94740  1.0000
  H   H1475     1.0  0.43196  0.59928  0.99496  1.0000
  C   C876      1.0  0.39813  0.60004  0.31772  1.0000
  H   H1476     1.0  0.48418  0.54225  0.81741  1.0000
  H   H1477     1.0  0.41601  0.63301  0.95118  1.0000
  H   H1478     1.0  0.48860  0.54873  0.14904  1.0000
  C   C877      1.0  0.38648  0.55322  0.24875  1.0000
  H   H1479     1.0  0.42704  0.61844  0.28683  1.0000
  H   H1480     1.0  0.25172  0.61397  0.24629  1.0000
  H   H1481     1.0  0.48048  0.59772  0.57157  1.0000
  H   H1482     1.0  0.47645  0.61466  0.51080  1.0000
  C   C878      1.0  0.47537  0.61235  0.43710  1.0000
  H   H1483     1.0  0.47040  0.62187  0.83535  1.0000
  C   C879      1.0  0.45884  0.51680  0.48081  1.0000
  H   H1484     1.0  0.39967  0.63151  0.35116  1.0000
  C   C880      1.0  0.37747  0.54479  0.27455  1.0000
  C   C881      1.0  0.48163  0.51419  0.53354  1.0000
  H   H1485     1.0  0.38695  0.60134  0.28794  1.0000
  H   H1486     1.0  0.30861  0.62250  0.02924  1.0000
  H   H1487     1.0  0.41559  0.62728  0.28637  1.0000
  C   C882      1.0  0.41098  0.62534  0.31871  1.0000
  C   C883      1.0  0.46688  0.50768  0.14520  1.0000
  H   H1488     1.0  0.39552  0.62249  0.08482  1.0000
  H   H1489     1.0  0.29546  0.64343  0.20746  1.0000
  H   H1490     1.0  0.40546  0.64254  0.54821  1.0000
  H   H1491     1.0  0.26806  0.62681  0.81107  1.0000
  H   H1492     1.0  0.40442  0.59656  0.31480  1.0000
  H   H1493     1.0  0.25454  0.58260  0.75954  1.0000
  H   H1494     1.0  0.47039  0.59427  0.42284  1.0000
  H   H1495     1.0  0.41616  0.62766  0.33412  1.0000
  C   C884      1.0  0.42081  0.66332  0.45243  1.0000
  C   C885      1.0  0.47537  0.60668  0.52610  1.0000
  H   H1496     1.0  0.43299  0.60575  0.33104  1.0000
  H   H1497     1.0  0.39270  0.55020  0.23619  1.0000
  C   C886      1.0  0.42406  0.64795  0.38337  1.0000
  H   H1498     1.0  0.48346  0.61527  0.42457  1.0000
  H   H1499     1.0  0.26899  0.63722  0.09053  1.0000
  H   H1500     1.0  0.40632  0.61458  0.27641  1.0000
  H   H1501     1.0  0.47337  0.60958  0.38190  1.0000
  C   C887      1.0  0.31719  0.64092  0.25962  1.0000
  H   H1502     1.0  0.28250  0.61894  0.27055  1.0000
  H   H1503     1.0  0.26934  0.64204  0.95986  1.0000
  H   H1504     1.0  0.41970  0.60870  0.27766  1.0000
  H   H1505     1.0  0.25021  0.55755  0.02115  1.0000
  C   C888      1.0  0.42274  0.61067  0.30027  1.0000
  H   H1506     1.0  0.27574  0.62865  0.22958  1.0000
  C   C889      1.0  0.40266  0.61519  0.40992  1.0000
  H   H1507     1.0  0.39247  0.61459  0.37580  1.0000
  H   H1508     1.0  0.38494  0.55820  0.22307  1.0000
  S   S203      1.0  0.38753  0.65696  0.28223  1.0000
  S   S204      1.0  0.41123  0.51023  0.03060  1.0000
  C   C890      1.0  0.27439  0.65993  0.79891  1.0000
  H   H1509     1.0  0.36710  0.55331  0.26662  1.0000
  H   H1510     1.0  0.44962  0.60715  0.96539  1.0000
  H   H1511     1.0  0.47294  0.62991  0.39136  1.0000
  C   C891      1.0  0.30828  0.62691  0.05029  1.0000
  H   H1512     1.0  0.42655  0.64080  0.82107  1.0000
  C   C892      1.0  0.42386  0.65674  0.35585  1.0000
  C   C893      1.0  0.32294  0.62285  0.06803  1.0000
  H   H1513     1.0  0.28012  0.65208  0.94099  1.0000
  H   H1514     1.0  0.37823  0.63010  0.12520  1.0000
  H   H1515     1.0  0.45810  0.52353  0.45941  1.0000
  H   H1516     1.0  0.30744  0.60785  0.08006  1.0000
  H   H1517     1.0  0.35280  0.65348  0.94803  1.0000
  C   C894      1.0  0.41323  0.50818  0.10556  1.0000
  H   H1518     1.0  0.41145  0.60125  0.35660  1.0000
  C   C895      1.0  0.39902  0.61174  0.37808  1.0000
  H   H1519     1.0  0.35792  0.60791  0.00807  1.0000
  Fe  Fe104     1.0  0.37507  0.66433  0.29036  1.0000
  C   C896      1.0  0.27675  0.64273  0.82552  1.0000
  H   H1520     1.0  0.41836  0.61179  0.36004  1.0000
  H   H1521     1.0  0.39625  0.60361  0.39174  1.0000
  H   H1522     1.0  0.37673  0.50371  0.84800  1.0000
  H   H1523     1.0  0.26073  0.56546  0.97939  1.0000
  H   H1524     1.0  0.32546  0.61942  0.09387  1.0000
  H   H1525     1.0  0.40627  0.62312  0.39837  1.0000
  C   C897      1.0  0.35560  0.51983  0.27673  1.0000
  H   H1526     1.0  0.36781  0.65773  0.22362  1.0000
  C   C898      1.0  0.35210  0.54672  0.33671  1.0000
  H   H1527     1.0  0.29609  0.63220  0.88786  1.0000
  H   H1528     1.0  0.37955  0.53983  0.29834  1.0000
  C   C899      1.0  0.39220  0.64189  0.81283  1.0000
  H   H1529     1.0  0.47718  0.53009  0.43438  1.0000
  H   H1530     1.0  0.33588  0.64944  0.94443  1.0000
  H   H1531     1.0  0.35475  0.55132  0.35376  1.0000
  C   C900      1.0  0.34071  0.64466  0.93902  1.0000
  H   H1532     1.0  0.29509  0.62546  0.79576  1.0000
  H   H1533     1.0  0.39708  0.61559  0.47133  1.0000
  C   C901      1.0  0.35611  0.52194  0.42761  1.0000
  H   H1534     1.0  0.34747  0.51802  0.28545  1.0000
  H   H1535     1.0  0.34757  0.54983  0.28155  1.0000
  H   H1536     1.0  0.37568  0.54085  0.25408  1.0000
  H   H1537     1.0  0.37075  0.63955  0.41280  1.0000
  N   N46       1.0  0.35957  0.54117  0.32263  1.0000
  H   H1538     1.0  0.48505  0.51461  0.81763  1.0000
  H   H1539     1.0  0.27819  0.64130  0.28021  1.0000
  C   C902      1.0  0.29551  0.60960  0.12500  1.0000
  H   H1540     1.0  0.42361  0.64506  0.63471  1.0000
  H   H1541     1.0  0.36705  0.52619  0.29556  1.0000
  H   H1542     1.0  0.36617  0.54086  0.36972  1.0000
  H   H1543     1.0  0.44742  0.50260  0.07701  1.0000
  H   H1544     1.0  0.35511  0.56029  0.28541  1.0000
  C   C903      1.0  0.38110  0.62487  0.11074  1.0000
  S   S205      1.0  0.43503  0.50977  0.94951  1.0000
  C   C904      1.0  0.45925  0.51012  0.12477  1.0000
  C   C905      1.0  0.36198  0.53564  0.35922  1.0000
  H   H1545     1.0  0.37085  0.61626  0.83613  1.0000
  H   H1546     1.0  0.38885  0.61770  0.44233  1.0000
  H   H1547     1.0  0.36009  0.51714  0.41360  1.0000
  S   S206      1.0  0.43360  0.51082  0.85912  1.0000
  C   C906      1.0  0.28074  0.64902  0.33879  1.0000
  H   H1548     1.0  0.47471  0.52631  0.48745  1.0000
  C   C907      1.0  0.30672  0.61168  0.10315  1.0000
  C   C908      1.0  0.39941  0.66212  0.08433  1.0000
  H   H1549     1.0  0.34952  0.51722  0.45322  1.0000
  H   H1550     1.0  0.25434  0.54904  0.84628  1.0000
  H   H1551     1.0  0.39042  0.60541  0.46225  1.0000
  C   C909      1.0  0.46481  0.62554  0.82667  1.0000
  C   C910      1.0  0.41680  0.64913  0.58752  1.0000
  H   H1552     1.0  0.32286  0.64798  0.24608  1.0000
  H   H1553     1.0  0.49728  0.54509  0.21375  1.0000
  C   C911      1.0  0.36230  0.51597  0.89806  1.0000
  H   H1554     1.0  0.48787  0.58770  0.75483  1.0000
  H   H1555     1.0  0.34933  0.53379  0.41225  1.0000
  C   C912      1.0  0.36079  0.65245  0.23614  1.0000
  C   C913      1.0  0.35304  0.52910  0.39651  1.0000
  C   C914      1.0  0.40629  0.64322  0.40598  1.0000
  H   H1556     1.0  0.36706  0.53099  0.35146  1.0000
  H   H1557     1.0  0.49094  0.57612  0.75660  1.0000
  H   H1558     1.0  0.40798  0.61109  0.41842  1.0000
  H   H1559     1.0  0.34516  0.54150  0.35839  1.0000
  H   H1560     1.0  0.34763  0.52483  0.38717  1.0000
  C   C915      1.0  0.39419  0.61334  0.44874  1.0000
  C   C916      1.0  0.35029  0.50561  0.84498  1.0000
  C   C917      1.0  0.25389  0.53710  0.82246  1.0000
  H   H1561     1.0  0.27679  0.60874  0.82680  1.0000
  H   H1562     1.0  0.43065  0.66206  0.33684  1.0000
  H   H1563     1.0  0.29876  0.63038  0.30700  1.0000
  H   H1564     1.0  0.35880  0.52464  0.24449  1.0000
  C   C918      1.0  0.35720  0.64787  0.21139  1.0000
  C   C919      1.0  0.35652  0.64076  0.93406  1.0000
  H   H1565     1.0  0.37726  0.62059  0.00439  1.0000
  H   H1566     1.0  0.27645  0.63719  0.16013  1.0000
  H   H1567     1.0  0.36606  0.61856  0.88291  1.0000
  H   H1568     1.0  0.27610  0.65974  0.76727  1.0000
  C   C920      1.0  0.41701  0.63803  0.92144  1.0000
  H   H1569     1.0  0.30040  0.62670  0.06308  1.0000
  C   C921      1.0  0.36529  0.61300  0.99188  1.0000
  H   H1570     1.0  0.47150  0.62605  0.34938  1.0000
  H   H1571     1.0  0.35682  0.53862  0.26982  1.0000
  H   H1572     1.0  0.48384  0.55457  0.20858  1.0000
  C   C922      1.0  0.41368  0.64668  0.91820  1.0000
  H   H1573     1.0  0.39949  0.63803  0.42585  1.0000
  H   H1574     1.0  0.36998  0.60937  0.97369  1.0000
  H   H1575     1.0  0.45943  0.51517  0.90285  1.0000
  H   H1576     1.0  0.47167  0.62758  0.76290  1.0000
  N   N47       1.0  0.31215  0.62240  0.08386  1.0000
  H   H1577     1.0  0.30998  0.60786  0.12570  1.0000
  S   S207      1.0  0.42577  0.62491  0.89253  1.0000
  H   H1578     1.0  0.36145  0.64971  0.17969  1.0000
  C   C923      1.0  0.35898  0.52488  0.30447  1.0000
  H   H1579     1.0  0.28046  0.63121  0.96576  1.0000
  H   H1580     1.0  0.39469  0.62835  0.12341  1.0000
  H   H1581     1.0  0.34727  0.53206  0.31600  1.0000
  H   H1582     1.0  0.34105  0.56027  0.34440  1.0000
  C   C924      1.0  0.29288  0.63877  0.81149  1.0000
  H   H1583     1.0  0.48192  0.61941  0.93643  1.0000
  C   C925      1.0  0.39229  0.62792  0.09710  1.0000
  H   H1584     1.0  0.30787  0.63649  0.97451  1.0000
  H   H1585     1.0  0.47333  0.62752  0.88794  1.0000
  H   H1586     1.0  0.44397  0.56995  0.37973  1.0000
  C   C926      1.0  0.28218  0.62342  0.29118  1.0000
  H   H1587     1.0  0.43048  0.64635  0.56137  1.0000
  C   C927      1.0  0.35512  0.65040  0.27667  1.0000
  H   H1588     1.0  0.29791  0.62575  0.84044  1.0000
  H   H1589     1.0  0.29038  0.61406  0.32068  1.0000
  H   H1590     1.0  0.45622  0.65859  0.44592  1.0000
  H   H1591     1.0  0.39509  0.63528  0.07335  1.0000
  H   H1592     1.0  0.30872  0.64584  0.22192  1.0000
  C   C928      1.0  0.42161  0.63583  0.88652  1.0000
  H   H1593     1.0  0.42218  0.53364  0.41547  1.0000
  H   H1594     1.0  0.28703  0.64506  0.87632  1.0000
  C   C929      1.0  0.48154  0.60559  0.55443  1.0000
  H   H1595     1.0  0.29170  0.64077  0.93852  1.0000
  H   H1596     1.0  0.26905  0.61135  0.79585  1.0000
  H   H1597     1.0  0.26814  0.66763  0.11237  1.0000
  H   H1598     1.0  0.41301  0.65896  0.51711  1.0000
  C   C930      1.0  0.41877  0.64988  0.62628  1.0000
  S   S208      1.0  0.36854  0.64298  0.93607  1.0000
  H   H1599     1.0  0.29221  0.62832  0.96075  1.0000
  H   H1600     1.0  0.37973  0.63943  0.36779  1.0000
  C   C931      1.0  0.46947  0.63215  0.78240  1.0000
  C   C932      1.0  0.36801  0.62170  0.84940  1.0000
  C   C933      1.0  0.34597  0.64360  0.29243  1.0000
  H   H1601     1.0  0.36790  0.63826  0.06039  1.0000
  H   H1602     1.0  0.31255  0.64253  0.04361  1.0000
  H   H1603     1.0  0.36380  0.62780  0.02535  1.0000
  H   H1604     1.0  0.35805  0.51289  0.27950  1.0000
  H   H1605     1.0  0.41023  0.64833  0.94533  1.0000
  H   H1606     1.0  0.25029  0.55315  0.94137  1.0000
  C   C934      1.0  0.27726  0.62558  0.85054  1.0000
  H   H1607     1.0  0.38012  0.52240  0.72145  1.0000
  H   H1608     1.0  0.41772  0.52205  0.38127  1.0000
  C   C935      1.0  0.41520  0.65338  0.87994  1.0000
  H   H1609     1.0  0.43553  0.50509  0.44739  1.0000
  C   C936      1.0  0.47713  0.52389  0.46057  1.0000
  C   C937      1.0  0.28827  0.63080  0.90577  1.0000
  C   C938      1.0  0.42071  0.66070  0.49722  1.0000
  H   H1610     1.0  0.44300  0.64202  0.96980  1.0000
  C   C939      1.0  0.48756  0.59018  0.38987  1.0000
  H   H1611     1.0  0.48541  0.58251  0.41104  1.0000
  H   H1612     1.0  0.48183  0.52150  0.53729  1.0000
  C   C940      1.0  0.41989  0.65123  0.84493  1.0000
  S   S209      1.0  0.38890  0.65018  0.96784  1.0000
  H   H1613     1.0  0.34817  0.62720  0.12726  1.0000
  C   C941      1.0  0.42296  0.64240  0.84817  1.0000
  H   H1614     1.0  0.43598  0.60585  0.27916  1.0000
  C   C942      1.0  0.42649  0.65199  0.55172  1.0000
  H   H1615     1.0  0.30214  0.62729  0.26201  1.0000
  H   H1616     1.0  0.45426  0.50314  0.12853  1.0000
  H   H1617     1.0  0.43904  0.64081  0.49971  1.0000
  H   H1618     1.0  0.25310  0.55181  0.79609  1.0000
  H   H1619     1.0  0.25700  0.63156  0.12407  1.0000
  H   H1620     1.0  0.26090  0.57967  0.16543  1.0000
  H   H1621     1.0  0.28648  0.65590  0.32044  1.0000
  H   H1622     1.0  0.40435  0.65908  0.80930  1.0000
  H   H1623     1.0  0.41950  0.65664  0.44360  1.0000
  H   H1624     1.0  0.28148  0.62024  0.86048  1.0000
  N   N48       1.0  0.28942  0.63335  0.26946  1.0000
  H   H1625     1.0  0.27788  0.64173  0.21923  1.0000
  C   C943      1.0  0.40607  0.65201  0.37841  1.0000
  H   H1626     1.0  0.26176  0.61164  0.08292  1.0000
  H   H1627     1.0  0.49052  0.50545  0.84263  1.0000
  H   H1628     1.0  0.47925  0.60950  0.57664  1.0000
  H   H1629     1.0  0.42211  0.63671  0.53209  1.0000
  H   H1630     1.0  0.26890  0.64004  0.84472  1.0000
  C   C944      1.0  0.25420  0.63717  0.25303  1.0000
  H   H1631     1.0  0.42316  0.64184  0.48025  1.0000
  H   H1632     1.0  0.46667  0.63832  0.84667  1.0000
  C   C945      1.0  0.35384  0.52119  0.89707  1.0000
  H   H1633     1.0  0.48643  0.50715  0.48941  1.0000
  H   H1634     1.0  0.31005  0.63902  0.75346  1.0000
  C   C946      1.0  0.44397  0.64491  0.93686  1.0000
  H   H1635     1.0  0.46109  0.63991  0.91093  1.0000
  C   C947      1.0  0.48483  0.50797  0.56696  1.0000
  H   H1636     1.0  0.32132  0.64625  0.14477  1.0000
  H   H1637     1.0  0.37244  0.63606  0.85331  1.0000
  H   H1638     1.0  0.27690  0.64260  0.79468  1.0000
  H   H1639     1.0  0.40769  0.54473  0.26766  1.0000
  C   C948      1.0  0.46707  0.62163  0.95237  1.0000
  C   C949      1.0  0.47470  0.61598  0.96064  1.0000
  H   H1640     1.0  0.35292  0.61567  0.85539  1.0000
  H   H1641     1.0  0.27949  0.64804  0.37149  1.0000
  H   H1642     1.0  0.49727  0.58981  0.80187  1.0000
  H   H1643     1.0  0.30891  0.64360  0.14392  1.0000
  H   H1644     1.0  0.49539  0.59183  0.37137  1.0000
  C   C950      1.0  0.40907  0.64063  0.52118  1.0000
  C   C951      1.0  0.40462  0.62977  0.52931  1.0000
  N   N49       1.0  0.42564  0.65258  0.51039  1.0000
  H   H1645     1.0  0.45236  0.50932  0.87799  1.0000
  H   H1646     1.0  0.41302  0.64137  0.59418  1.0000
  S   S210      1.0  0.49096  0.55397  0.28548  1.0000
  C   C952      1.0  0.31849  0.63590  0.11331  1.0000
  N   N50       1.0  0.28269  0.63601  0.84211  1.0000
  H   H1647     1.0  0.26158  0.64502  0.14443  1.0000
  S   S211      1.0  0.38346  0.65019  0.08009  1.0000
  H   H1648     1.0  0.39189  0.64495  0.78150  1.0000
  C   C953      1.0  0.29932  0.63290  0.27447  1.0000
  H   H1649     1.0  0.46633  0.61524  0.90503  1.0000
  H   H1650     1.0  0.49887  0.55162  0.47872  1.0000
  C   C954      1.0  0.26129  0.63506  0.09112  1.0000
  S   S212      1.0  0.49332  0.55839  0.06348  1.0000
  Fe  Fe105     1.0  0.38622  0.65789  0.01401  1.0000
  H   H1651     1.0  0.29274  0.64194  0.77997  1.0000
  H   H1652     1.0  0.29436  0.59548  0.16879  1.0000
  H   H1653     1.0  0.40774  0.62753  0.50244  1.0000
  C   C955      1.0  0.27993  0.65371  0.82180  1.0000
  H   H1654     1.0  0.31277  0.62837  0.78356  1.0000
  H   H1655     1.0  0.29765  0.64479  0.81623  1.0000
  C   C956      1.0  0.28548  0.64121  0.28394  1.0000
  H   H1656     1.0  0.32093  0.64185  0.08378  1.0000
  H   H1657     1.0  0.29020  0.64863  0.26465  1.0000
  C   C957      1.0  0.46624  0.62251  0.90962  1.0000
  C   C958      1.0  0.48816  0.51475  0.49085  1.0000
  H   H1658     1.0  0.34633  0.53037  0.92665  1.0000
  C   C959      1.0  0.41489  0.65872  0.35300  1.0000
  H   H1659     1.0  0.40602  0.62506  0.55601  1.0000
  H   H1660     1.0  0.47609  0.63764  0.77882  1.0000
  H   H1661     1.0  0.29168  0.61224  0.10303  1.0000
  H   H1662     1.0  0.26129  0.65961  0.06491  1.0000
  S   S213      1.0  0.39464  0.65449  0.37819  1.0000
  H   H1663     1.0  0.25082  0.57047  0.00104  1.0000
  H   H1664     1.0  0.25615  0.61476  0.12713  1.0000
  C   C960      1.0  0.28397  0.64017  0.32902  1.0000
  H   H1665     1.0  0.27117  0.65395  0.06731  1.0000
  C   C961      1.0  0.43594  0.65543  0.48063  1.0000
  H   H1666     1.0  0.25928  0.62461  0.27930  1.0000
  C   C962      1.0  0.27220  0.64965  0.95882  1.0000
  H   H1667     1.0  0.45870  0.50948  0.98440  1.0000
  H   H1668     1.0  0.31305  0.63465  0.17725  1.0000
  H   H1669     1.0  0.44631  0.51273  0.40561  1.0000
  Fe  Fe106     1.0  0.48951  0.56116  0.92696  1.0000
  Fe  Fe107     1.0  0.48762  0.56297  0.01068  1.0000
  H   H1670     1.0  0.35516  0.52657  0.86689  1.0000
  H   H1671     1.0  0.30541  0.64813  0.26978  1.0000
  C   C963      1.0  0.31024  0.62727  0.11654  1.0000
  H   H1672     1.0  0.27816  0.65457  0.85242  1.0000
  H   H1673     1.0  0.38220  0.51648  0.78832  1.0000
  H   H1674     1.0  0.46006  0.61782  0.97708  1.0000
  H   H1675     1.0  0.36001  0.62436  0.80610  1.0000
  H   H1676     1.0  0.29079  0.63969  0.33659  1.0000
  C   C964      1.0  0.28123  0.63573  0.21283  1.0000
  N   N51       1.0  0.48728  0.52214  0.45425  1.0000
  H   H1677     1.0  0.49928  0.55207  0.42795  1.0000
  H   H1678     1.0  0.39657  0.62851  0.53571  1.0000
  C   C965      1.0  0.38968  0.64932  0.83558  1.0000
  C   C966      1.0  0.48491  0.55939  0.17847  1.0000
  C   C967      1.0  0.29098  0.59859  0.14560  1.0000
  H   H1679     1.0  0.35574  0.62863  0.84866  1.0000
  H   H1680     1.0  0.45683  0.64594  0.46409  1.0000
  H   H1681     1.0  0.48270  0.54809  0.76923  1.0000
  H   H1682     1.0  0.44510  0.64979  0.51678  1.0000
  C   C968      1.0  0.31518  0.64036  0.14693  1.0000
  H   H1683     1.0  0.43574  0.65558  0.44986  1.0000
  H   H1684     1.0  0.48315  0.59076  0.36901  1.0000
  H   H1685     1.0  0.28300  0.59730  0.16108  1.0000
  H   H1686     1.0  0.43381  0.53917  0.37596  1.0000
  H   H1687     1.0  0.45025  0.65146  0.92197  1.0000
  H   H1688     1.0  0.34128  0.62656  0.01064  1.0000
  C   C969      1.0  0.38566  0.65451  0.14644  1.0000
  C   C970      1.0  0.28810  0.63295  0.94511  1.0000
  H   H1689     1.0  0.30895  0.62180  0.14682  1.0000
  H   H1690     1.0  0.34153  0.64206  0.32367  1.0000
  H   H1691     1.0  0.47558  0.61596  0.99027  1.0000
  H   H1692     1.0  0.45028  0.64942  0.42895  1.0000
  C   C971      1.0  0.26111  0.65224  0.12573  1.0000
  H   H1693     1.0  0.29200  0.59470  0.12274  1.0000
  H   H1694     1.0  0.47214  0.52622  0.93030  1.0000
  H   H1695     1.0  0.28390  0.62024  0.35229  1.0000
  H   H1696     1.0  0.26838  0.65460  0.94298  1.0000
  H   H1697     1.0  0.28867  0.64436  0.14894  1.0000
  H   H1698     1.0  0.34685  0.51566  0.90579  1.0000
  H   H1699     1.0  0.45866  0.61982  0.82797  1.0000
  S   S214      1.0  0.25976  0.64488  0.27510  1.0000
  C   C972      1.0  0.45209  0.65082  0.45523  1.0000
  H   H1700     1.0  0.33941  0.61501  0.00072  1.0000
  H   H1701     1.0  0.27351  0.65789  0.99889  1.0000
  H   H1702     1.0  0.40708  0.64496  0.49542  1.0000
  S   S215      1.0  0.35921  0.65610  0.30872  1.0000
  H   H1703     1.0  0.48810  0.60491  0.39050  1.0000
  C   C973      1.0  0.42040  0.64275  0.51066  1.0000
  H   H1704     1.0  0.43092  0.65913  0.55021  1.0000
  C   C974      1.0  0.48969  0.51829  0.41867  1.0000
  H   H1705     1.0  0.27041  0.62350  0.87679  1.0000
  H   H1706     1.0  0.48630  0.60452  0.47785  1.0000
  C   C975      1.0  0.45990  0.51261  0.87621  1.0000
  H   H1707     1.0  0.36848  0.52474  0.74378  1.0000
  H   H1708     1.0  0.27630  0.60244  0.37643  1.0000
  H   H1709     1.0  0.28635  0.63114  0.15973  1.0000
  C   C976      1.0  0.37577  0.52438  0.74720  1.0000
  H   H1710     1.0  0.38702  0.65837  0.19862  1.0000
  H   H1711     1.0  0.40557  0.66417  0.46356  1.0000
  H   H1712     1.0  0.27468  0.60319  0.32808  1.0000
  H   H1713     1.0  0.38215  0.65025  0.83864  1.0000
  H   H1714     1.0  0.47205  0.54187  0.81401  1.0000
  H   H1715     1.0  0.48821  0.52309  0.39219  1.0000
  Fe  Fe108     1.0  0.39837  0.66465  0.92466  1.0000
  C   C977      1.0  0.27508  0.60733  0.34966  1.0000
  C   C978      1.0  0.41550  0.50518  0.07101  1.0000
  H   H1716     1.0  0.35401  0.50765  0.81174  1.0000
  H   H1717     1.0  0.42807  0.66806  0.43164  1.0000
  S   S216      1.0  0.49616  0.57320  0.94713  1.0000
  H   H1718     1.0  0.41478  0.66554  0.33186  1.0000
  C   C979      1.0  0.48754  0.55609  0.14479  1.0000
  H   H1719     1.0  0.47765  0.56509  0.75944  1.0000
  S   S217      1.0  0.49648  0.55614  0.87402  1.0000
  Fe  Fe109     1.0  0.49515  0.56130  0.32756  1.0000
  N   N52       1.0  0.25778  0.64398  0.07343  1.0000
  H   H1720     1.0  0.42430  0.66759  0.50083  1.0000
  S   S218      1.0  0.41175  0.66465  0.87528  1.0000
  H   H1721     1.0  0.47982  0.50728  0.59730  1.0000
  S   S219      1.0  0.25518  0.64286  0.91173  1.0000
  H   H1722     1.0  0.25296  0.56594  0.80455  1.0000
  H   H1723     1.0  0.25474  0.62281  0.91668  1.0000
  C   C980      1.0  0.49903  0.51415  0.78127  1.0000
  H   H1724     1.0  0.37962  0.53176  0.74548  1.0000
  C   C981      1.0  0.37432  0.50758  0.87030  1.0000
  H   H1725     1.0  0.47339  0.50850  0.87565  1.0000
  C   C982      1.0  0.39666  0.65946  0.81241  1.0000
  H   H1726     1.0  0.44649  0.51046  0.00539  1.0000
  H   H1727     1.0  0.25372  0.65341  0.13834  1.0000
  H   H1728     1.0  0.48768  0.56018  0.80196  1.0000
  H   H1729     1.0  0.37096  0.50944  0.78796  1.0000
  H   H1730     1.0  0.42229  0.65758  0.62212  1.0000
  N   N53       1.0  0.36557  0.51150  0.86494  1.0000
  C   C983      1.0  0.25082  0.62140  0.24155  1.0000
  C   C984      1.0  0.49316  0.53748  0.47371  1.0000
  C   C985      1.0  0.35756  0.50308  0.86844  1.0000
  S   S220      1.0  0.37308  0.66205  0.00046  1.0000
  H   H1731     1.0  0.35971  0.51026  0.92856  1.0000
  H   H1732     1.0  0.37842  0.64977  0.16249  1.0000
  H   H1733     1.0  0.26662  0.65971  0.16255  1.0000
  H   H1734     1.0  0.42949  0.52160  0.38747  1.0000
  H   H1735     1.0  0.47388  0.51070  0.53891  1.0000
  H   H1736     1.0  0.34731  0.51184  0.85047  1.0000
  C   C986      1.0  0.49849  0.58460  0.78451  1.0000
  C   C987      1.0  0.26846  0.66022  0.13004  1.0000
  H   H1737     1.0  0.27602  0.65926  0.11949  1.0000
  C   C988      1.0  0.41682  0.50452  0.13764  1.0000
  H   H1738     1.0  0.49239  0.51146  0.56443  1.0000
  C   C989      1.0  0.39054  0.65936  0.16694  1.0000
  H   H1739     1.0  0.43568  0.50724  0.39564  1.0000
  H   H1740     1.0  0.39600  0.66241  0.78175  1.0000
  S   S221      1.0  0.25052  0.59496  0.18722  1.0000
  S   S222      1.0  0.25427  0.66750  0.30982  1.0000
  H   H1741     1.0  0.39484  0.66464  0.82934  1.0000
  H   H1742     1.0  0.25188  0.53138  0.85267  1.0000
  C   C990      1.0  0.45199  0.50634  0.01131  1.0000
  H   H1743     1.0  0.40284  0.66319  0.05245  1.0000
  H   H1744     1.0  0.27657  0.66768  0.79780  1.0000
  H   H1745     1.0  0.48213  0.50542  0.77296  1.0000
  H   H1746     1.0  0.45968  0.50244  0.05386  1.0000
  H   H1747     1.0  0.37035  0.66682  0.11263  1.0000
  C   C991      1.0  0.40443  0.66675  0.10517  1.0000
  C   C992      1.0  0.39993  0.66548  0.14635  1.0000
  H   H1748     1.0  0.47098  0.50286  0.13196  1.0000
  H   H1749     1.0  0.49924  0.58944  0.22891  1.0000
  C   C993      1.0  0.25058  0.54633  0.82702  1.0000
  C   C994      1.0  0.25018  0.62535  0.89895  1.0000
  C   C995      1.0  0.41303  0.66887  0.44527  1.0000
  H   H1750     1.0  0.25049  0.53410  0.80271  1.0000
  Fe  Fe110     1.0  0.40684  0.74938  0.30190  1.0000
  S   S223      1.0  0.41765  0.76426  0.27143  1.0000
  S   S224      1.0  0.41080  0.73452  0.31081  1.0000
  Fe  Fe111     1.0  0.38935  0.75827  0.31910  1.0000
  S   S225      1.0  0.39843  0.77380  0.29014  1.0000
  S   S226      1.0  0.37292  0.75482  0.34696  1.0000
  Fe  Fe112     1.0  0.40643  0.76821  0.24138  1.0000
  S   S227      1.0  0.40965  0.77667  0.17479  1.0000
  Fe  Fe113     1.0  0.40900  0.76898  0.32236  1.0000
  S   S228      1.0  0.41386  0.77736  0.36290  1.0000
  S   S229      1.0  0.39640  0.75315  0.26811  1.0000
  S   S230      1.0  0.39912  0.75366  0.35535  1.0000
  C   C996      1.0  0.38709  0.83317  0.86685  1.0000
  S   S231      1.0  0.40595  0.67191  0.17122  1.0000
  S   S232      1.0  0.38313  0.67780  0.23683  1.0000
  H   H1751     1.0  0.26059  0.68075  0.05339  1.0000
  Fe  Fe114     1.0  0.38839  0.68411  0.28018  1.0000
  S   S233      1.0  0.38712  0.69996  0.27045  1.0000
  S   S234      1.0  0.40192  0.67816  0.27223  1.0000
  Fe  Fe115     1.0  0.33322  0.74123  0.26488  1.0000
  S   S235      1.0  0.32068  0.74090  0.31791  1.0000
  S   S236      1.0  0.34606  0.73445  0.26556  1.0000
  Fe  Fe116     1.0  0.32644  0.75414  0.20271  1.0000
  S   S237      1.0  0.31361  0.75537  0.25073  1.0000
  S   S238      1.0  0.33130  0.76023  0.13380  1.0000
  Fe  Fe117     1.0  0.32412  0.75737  0.28631  1.0000
  S   S239      1.0  0.32439  0.76825  0.32339  1.0000
  Fe  Fe118     1.0  0.31124  0.73888  0.27842  1.0000
  S   S240      1.0  0.33702  0.75754  0.23519  1.0000
  S   S241      1.0  0.32365  0.73779  0.22869  1.0000
  Fe  Fe119     1.0  0.32970  0.73519  0.92662  1.0000
  S   S242      1.0  0.32371  0.73728  0.87452  1.0000
  S   S243      1.0  0.34429  0.73123  0.92077  1.0000
  Fe  Fe120     1.0  0.31292  0.74080  0.97887  1.0000
  H   H1752     1.0  0.25110  0.68651  0.33336  1.0000
  H   H1753     1.0  0.33817  0.74095  0.14940  1.0000
  H   H1754     1.0  0.40020  0.75017  0.82031  1.0000
  C   C997      1.0  0.28286  0.69005  0.12153  1.0000
  Fe  Fe121     1.0  0.32106  0.75118  0.88763  1.0000
  S   S244      1.0  0.32551  0.76640  0.83946  1.0000
  N   N54       1.0  0.37610  0.76339  0.83243  1.0000
  S   S245      1.0  0.32784  0.74938  0.93695  1.0000
  H   H1755     1.0  0.44581  0.83192  0.98191  1.0000
  H   H1756     1.0  0.41411  0.67572  0.45328  1.0000
  H   H1757     1.0  0.28966  0.73279  0.01625  1.0000
  H   H1758     1.0  0.28842  0.69291  0.09071  1.0000
  C   C998      1.0  0.30248  0.71868  0.16355  1.0000
  H   H1759     1.0  0.28597  0.68572  0.14336  1.0000
  Fe  Fe122     1.0  0.38393  0.67607  0.95680  1.0000
  S   S246      1.0  0.37899  0.68979  0.96496  1.0000
  S   S247      1.0  0.34664  0.82203  0.52562  1.0000
  C   C999      1.0  0.39452  0.81335  0.46466  1.0000
  H   H1760     1.0  0.25810  0.69438  0.43369  1.0000
  H   H1761     1.0  0.29871  0.72119  0.18868  1.0000
  Fe  Fe123     1.0  0.38542  0.75432  0.98080  1.0000
  S   S248      1.0  0.39604  0.76597  0.98844  1.0000
  S   S249      1.0  0.36923  0.75318  0.00381  1.0000
  Fe  Fe124     1.0  0.40114  0.74531  0.94055  1.0000
  S   S250      1.0  0.41331  0.75630  0.94419  1.0000
  S   S251      1.0  0.40437  0.73383  0.90986  1.0000
  Fe  Fe125     1.0  0.40322  0.75374  0.00736  1.0000
  S   S252      1.0  0.40741  0.74963  0.06424  1.0000
  Fe  Fe126     1.0  0.40528  0.76784  0.92469  1.0000
  S   S253      1.0  0.41079  0.78273  0.87399  1.0000
  S   S254      1.0  0.39175  0.74190  0.00508  1.0000
  S   S255      1.0  0.39394  0.75701  0.91585  1.0000
  H   H1762     1.0  0.27361  0.71417  0.85257  1.0000
  H   H1763     1.0  0.36020  0.74408  0.10604  1.0000
  H   H1764     1.0  0.34323  0.76388  0.74686  1.0000
  H   H1765     1.0  0.35655  0.67450  0.99881  1.0000
  C   C1000     1.0  0.27473  0.68102  0.38038  1.0000
  S   S256      1.0  0.44471  0.81513  0.35570  1.0000
  S   S257      1.0  0.29563  0.72895  0.29793  1.0000
  H   H1766     1.0  0.40043  0.68510  0.10320  1.0000
  H   H1767     1.0  0.33178  0.79086  0.39819  1.0000
  C   C1001     1.0  0.42768  0.81369  0.63581  1.0000
  H   H1768     1.0  0.41249  0.80723  0.75271  1.0000
  H   H1769     1.0  0.43978  0.83120  0.92278  1.0000
  H   H1770     1.0  0.38569  0.67645  0.11250  1.0000
  C   C1002     1.0  0.40791  0.80277  0.27890  1.0000
  H   H1771     1.0  0.44805  0.81360  0.95521  1.0000
  H   H1772     1.0  0.38588  0.74224  0.13456  1.0000
  H   H1773     1.0  0.41792  0.68157  0.99667  1.0000
  H   H1774     1.0  0.40235  0.68244  0.04075  1.0000
  H   H1775     1.0  0.38525  0.82578  0.57788  1.0000
  H   H1776     1.0  0.33673  0.75313  0.06574  1.0000
  S   S258      1.0  0.25536  0.68230  0.13306  1.0000
  C   C1003     1.0  0.36456  0.76211  0.19988  1.0000
  C   C1004     1.0  0.25114  0.69598  0.43021  1.0000
  H   H1777     1.0  0.31614  0.80117  0.61699  1.0000
  H   H1778     1.0  0.38199  0.69341  0.08509  1.0000
  H   H1779     1.0  0.37964  0.74595  0.81232  1.0000
  H   H1780     1.0  0.27641  0.70235  0.11295  1.0000
  Fe  Fe127     1.0  0.30883  0.72928  0.92178  1.0000
  C   C1005     1.0  0.40368  0.80954  0.82628  1.0000
  C   C1006     1.0  0.31317  0.74707  0.06661  1.0000
  C   C1007     1.0  0.34519  0.79014  0.35721  1.0000
  H   H1781     1.0  0.48508  0.83378  0.50545  1.0000
  C   C1008     1.0  0.42324  0.79837  0.54985  1.0000
  C   C1009     1.0  0.35264  0.67710  0.02346  1.0000
  H   H1782     1.0  0.41544  0.68901  0.95315  1.0000
  H   H1783     1.0  0.39952  0.69022  0.00018  1.0000
  H   H1784     1.0  0.39192  0.80170  0.65387  1.0000
  H   H1785     1.0  0.42908  0.80609  0.71438  1.0000
  C   C1010     1.0  0.27272  0.69965  0.89082  1.0000
  H   H1786     1.0  0.36599  0.74902  0.85416  1.0000
  C   C1011     1.0  0.42149  0.79184  0.86487  1.0000
  C   C1012     1.0  0.42465  0.80001  0.82925  1.0000
  C   C1013     1.0  0.43269  0.80774  0.82180  1.0000
  C   C1014     1.0  0.43778  0.80738  0.84976  1.0000
  C   C1015     1.0  0.43483  0.79904  0.88478  1.0000
  C   C1016     1.0  0.42669  0.79133  0.89248  1.0000
  H   H1787     1.0  0.42087  0.80034  0.80714  1.0000
  H   H1788     1.0  0.43499  0.81396  0.79430  1.0000
  H   H1789     1.0  0.43879  0.79859  0.90636  1.0000
  H   H1790     1.0  0.42441  0.78505  0.91990  1.0000
  H   H1791     1.0  0.32075  0.78524  0.12532  1.0000
  C   C1017     1.0  0.38645  0.70180  0.95111  1.0000
  C   C1018     1.0  0.38274  0.70855  0.96890  1.0000
  C   C1019     1.0  0.38819  0.71832  0.95717  1.0000
  C   C1020     1.0  0.39741  0.72149  0.92720  1.0000
  C   C1021     1.0  0.40118  0.71471  0.90989  1.0000
  C   C1022     1.0  0.39578  0.70489  0.92198  1.0000
  H   H1792     1.0  0.37561  0.70621  0.99197  1.0000
  H   H1793     1.0  0.38521  0.72345  0.97085  1.0000
  H   H1794     1.0  0.40832  0.71708  0.88672  1.0000
  H   H1795     1.0  0.39873  0.69980  0.90799  1.0000
  H   H1796     1.0  0.28875  0.70161  0.17027  1.0000
  H   H1797     1.0  0.36970  0.67680  0.07201  1.0000
  C   C1023     1.0  0.38341  0.67877  0.08521  1.0000
  C   C1024     1.0  0.41876  0.68922  0.97734  1.0000
  H   H1798     1.0  0.38374  0.80109  0.93925  1.0000
  H   H1799     1.0  0.41777  0.69544  0.02536  1.0000
  C   C1025     1.0  0.35110  0.73672  0.94599  1.0000
  C   C1026     1.0  0.34659  0.74070  0.97520  1.0000
  C   C1027     1.0  0.35217  0.74551  0.99365  1.0000
  C   C1028     1.0  0.36228  0.74635  0.98304  1.0000
  C   C1029     1.0  0.36675  0.74203  0.95503  1.0000
  C   C1030     1.0  0.36117  0.73724  0.93645  1.0000
  H   H1800     1.0  0.33878  0.73999  0.98390  1.0000
  H   H1801     1.0  0.34864  0.74863  0.01602  1.0000
  H   H1802     1.0  0.37452  0.74245  0.94743  1.0000
  H   H1803     1.0  0.36473  0.73415  0.91406  1.0000
  C   C1031     1.0  0.41393  0.69509  0.00293  1.0000
  H   H1804     1.0  0.42495  0.80568  0.65285  1.0000
  Fe  Fe128     1.0  0.38492  0.83005  0.71657  1.0000
  H   H1805     1.0  0.35993  0.77106  0.15315  1.0000
  C   C1032     1.0  0.45611  0.83265  0.62723  1.0000
  C   C1033     1.0  0.35379  0.79861  0.64790  1.0000
  H   H1806     1.0  0.40235  0.72584  0.00861  1.0000
  C   C1034     1.0  0.29127  0.71946  0.05662  1.0000
  S   S259      1.0  0.45884  0.83163  0.40892  1.0000
  H   H1807     1.0  0.38666  0.79194  0.75225  1.0000
  H   H1808     1.0  0.39951  0.70699  0.99932  1.0000
  H   H1809     1.0  0.31461  0.73170  0.14038  1.0000
  C   C1035     1.0  0.42239  0.83327  0.55400  1.0000
  H   H1810     1.0  0.38649  0.76558  0.41767  1.0000
  H   H1811     1.0  0.35790  0.75603  0.21534  1.0000
  C   C1036     1.0  0.32421  0.75415  0.11087  1.0000
  C   C1037     1.0  0.33944  0.76765  0.72669  1.0000
  H   H1812     1.0  0.43847  0.81355  0.93280  1.0000
  H   H1813     1.0  0.28650  0.72876  0.09214  1.0000
  C   C1038     1.0  0.30853  0.74908  0.10196  1.0000
  C   C1039     1.0  0.31400  0.75247  0.12435  1.0000
  C   C1040     1.0  0.38618  0.75125  0.81068  1.0000
  H   H1814     1.0  0.34611  0.77576  0.29488  1.0000
  H   H1815     1.0  0.35532  0.77726  0.42805  1.0000
  H   H1816     1.0  0.31036  0.75416  0.15118  1.0000
  H   H1817     1.0  0.42546  0.79845  0.60594  1.0000
  H   H1818     1.0  0.42034  0.83122  0.61799  1.0000
  H   H1819     1.0  0.29855  0.72955  0.12134  1.0000
  H   H1820     1.0  0.40293  0.82337  0.61049  1.0000
  Fe  Fe129     1.0  0.36635  0.81560  0.77852  1.0000
  H   H1821     1.0  0.42790  0.83231  0.52823  1.0000
  Fe  Fe130     1.0  0.45000  0.83245  0.79775  1.0000
  C   C1041     1.0  0.41753  0.81341  0.91768  1.0000
  C   C1042     1.0  0.32547  0.77306  0.97834  1.0000
  H   H1822     1.0  0.26152  0.71435  0.93850  1.0000
  C   C1043     1.0  0.42273  0.78779  0.35986  1.0000
  C   C1044     1.0  0.42266  0.78994  0.39580  1.0000
  C   C1045     1.0  0.42910  0.79837  0.39504  1.0000
  C   C1046     1.0  0.43601  0.80464  0.35836  1.0000
  C   C1047     1.0  0.43625  0.80238  0.32250  1.0000
  C   C1048     1.0  0.42962  0.79410  0.32312  1.0000
  H   H1823     1.0  0.41755  0.78505  0.42460  1.0000
  H   H1824     1.0  0.42885  0.79987  0.42300  1.0000
  H   H1825     1.0  0.44163  0.80708  0.29395  1.0000
  H   H1826     1.0  0.42991  0.79253  0.29525  1.0000
  C   C1049     1.0  0.40850  0.76923  0.14404  1.0000
  C   C1050     1.0  0.40752  0.75912  0.15927  1.0000
  C   C1051     1.0  0.40670  0.75323  0.13483  1.0000
  C   C1052     1.0  0.40718  0.75736  0.09447  1.0000
  C   C1053     1.0  0.40800  0.76747  0.07902  1.0000
  C   C1054     1.0  0.40866  0.77340  0.10386  1.0000
  H   H1827     1.0  0.40761  0.75583  0.18963  1.0000
  H   H1828     1.0  0.40567  0.74541  0.14734  1.0000
  H   H1829     1.0  0.40842  0.77075  0.04778  1.0000
  H   H1830     1.0  0.40945  0.78124  0.09179  1.0000
  C   C1055     1.0  0.35364  0.74019  0.28745  1.0000
  C   C1056     1.0  0.35008  0.74581  0.31135  1.0000
  C   C1057     1.0  0.35607  0.75021  0.32950  1.0000
  C   C1058     1.0  0.36570  0.74920  0.32329  1.0000
  C   C1059     1.0  0.36928  0.74360  0.29920  1.0000
  C   C1060     1.0  0.36325  0.73910  0.28131  1.0000
  H   H1831     1.0  0.34269  0.74674  0.31612  1.0000
  H   H1832     1.0  0.35325  0.75456  0.34779  1.0000
  H   H1833     1.0  0.37660  0.74257  0.29495  1.0000
  H   H1834     1.0  0.36607  0.73481  0.26265  1.0000
  C   C1061     1.0  0.40415  0.72488  0.29991  1.0000
  C   C1062     1.0  0.40565  0.71536  0.31208  1.0000
  C   C1063     1.0  0.40050  0.70758  0.30351  1.0000
  C   C1064     1.0  0.39385  0.70930  0.28244  1.0000
  C   C1065     1.0  0.39239  0.71882  0.27019  1.0000
  C   C1066     1.0  0.39751  0.72655  0.27875  1.0000
  H   H1835     1.0  0.41078  0.71398  0.32848  1.0000
  H   H1836     1.0  0.40166  0.70027  0.31328  1.0000
  H   H1837     1.0  0.38731  0.72026  0.25373  1.0000
  H   H1838     1.0  0.39632  0.73381  0.26880  1.0000
  H   H1839     1.0  0.36860  0.67815  0.12151  1.0000
  C   C1067     1.0  0.36375  0.76958  0.22268  1.0000
  C   C1068     1.0  0.28839  0.70525  0.13955  1.0000
  C   C1069     1.0  0.27684  0.69430  0.91778  1.0000
  C   C1070     1.0  0.34040  0.80405  0.90465  1.0000
  C   C1071     1.0  0.40438  0.80493  0.76278  1.0000
  H   H1840     1.0  0.43528  0.81466  0.61571  1.0000
  H   H1841     1.0  0.27375  0.69515  0.16470  1.0000
  H   H1842     1.0  0.39589  0.82653  0.90092  1.0000
  H   H1843     1.0  0.48684  0.83458  0.62978  1.0000
  C   C1072     1.0  0.26362  0.71650  0.20823  1.0000
  C   C1073     1.0  0.27678  0.70695  0.28506  1.0000
  H   H1844     1.0  0.28168  0.72504  0.16595  1.0000
  H   H1845     1.0  0.40619  0.70402  0.13789  1.0000
  C   C1074     1.0  0.33522  0.77586  0.83668  1.0000
  H   H1846     1.0  0.35710  0.77240  0.22256  1.0000
  H   H1847     1.0  0.33921  0.75779  0.44438  1.0000
  C   C1075     1.0  0.32334  0.74830  0.05419  1.0000
  H   H1848     1.0  0.38328  0.78240  0.84217  1.0000
  C   C1076     1.0  0.33784  0.70372  0.87638  1.0000
  C   C1077     1.0  0.40920  0.72325  0.00469  1.0000
  C   C1078     1.0  0.42411  0.82819  0.59445  1.0000
  N   N55       1.0  0.39734  0.69484  0.05346  1.0000
  Fe  Fe131     1.0  0.44523  0.82436  0.39848  1.0000
  H   H1849     1.0  0.26770  0.71053  0.15997  1.0000
  S   S260      1.0  0.30567  0.74348  0.93046  1.0000
  H   H1850     1.0  0.38979  0.75607  0.77868  1.0000
  C   C1079     1.0  0.33868  0.79916  0.63075  1.0000
  H   H1851     1.0  0.36424  0.77670  0.55711  1.0000
  C   C1080     1.0  0.40047  0.69296  0.09079  1.0000
  H   H1852     1.0  0.38243  0.76827  0.76686  1.0000
  H   H1853     1.0  0.36319  0.76601  0.25476  1.0000
  C   C1081     1.0  0.36575  0.76695  0.15459  1.0000
  H   H1854     1.0  0.34243  0.75508  0.84256  1.0000
  C   C1082     1.0  0.35717  0.75916  0.84479  1.0000
  H   H1855     1.0  0.34419  0.78148  0.73398  1.0000
  C   C1083     1.0  0.40735  0.71298  0.03463  1.0000
  H   H1856     1.0  0.33169  0.76652  0.74541  1.0000
  C   C1084     1.0  0.34932  0.78152  0.85569  1.0000
  C   C1085     1.0  0.33498  0.78766  0.37557  1.0000
  C   C1086     1.0  0.40876  0.81983  0.48078  1.0000
  C   C1087     1.0  0.33901  0.79317  0.92745  1.0000
  H   H1857     1.0  0.41470  0.72852  0.00982  1.0000
  H   H1858     1.0  0.26402  0.72391  0.18807  1.0000
  H   H1859     1.0  0.36699  0.82534  0.61472  1.0000
  H   H1860     1.0  0.39052  0.76221  0.83605  1.0000
  H   H1861     1.0  0.35772  0.76706  0.83170  1.0000
  H   H1862     1.0  0.32499  0.80183  0.66594  1.0000
  C   C1088     1.0  0.37394  0.75513  0.12795  1.0000
  H   H1863     1.0  0.39514  0.74084  0.80215  1.0000
  C   C1089     1.0  0.27967  0.69850  0.13502  1.0000
  C   C1090     1.0  0.40005  0.82437  0.83991  1.0000
  H   H1864     1.0  0.38047  0.76010  0.12860  1.0000
  C   C1091     1.0  0.33271  0.77660  0.33558  1.0000
  C   C1092     1.0  0.36719  0.75651  0.83246  1.0000
  H   H1865     1.0  0.34002  0.76688  0.88196  1.0000
  H   H1866     1.0  0.35605  0.80676  0.63698  1.0000
  C   C1093     1.0  0.41346  0.80006  0.24251  1.0000
  N   N56       1.0  0.35647  0.70888  0.33613  1.0000
  C   C1094     1.0  0.36665  0.71298  0.33579  1.0000
  C   C1095     1.0  0.35605  0.71135  0.29318  1.0000
  C   C1096     1.0  0.34957  0.71377  0.35898  1.0000
  C   C1097     1.0  0.35305  0.69793  0.35772  1.0000
  C   C1098     1.0  0.35939  0.69149  0.34037  1.0000
  C   C1099     1.0  0.36797  0.71184  0.37794  1.0000
  C   C1100     1.0  0.33885  0.71164  0.35834  1.0000
  C   C1101     1.0  0.36544  0.71216  0.25858  1.0000
  C   C1102     1.0  0.36331  0.71313  0.21868  1.0000
  C   C1103     1.0  0.35542  0.68067  0.36654  1.0000
  C   C1104     1.0  0.37868  0.71552  0.37375  1.0000
  C   C1105     1.0  0.33299  0.71785  0.37861  1.0000
  H   H1867     1.0  0.36905  0.72099  0.31823  1.0000
  H   H1868     1.0  0.37208  0.70962  0.31963  1.0000
  H   H1869     1.0  0.34989  0.70604  0.29176  1.0000
  H   H1870     1.0  0.35438  0.71865  0.28371  1.0000
  H   H1871     1.0  0.35254  0.72190  0.34697  1.0000
  H   H1872     1.0  0.34897  0.71150  0.39167  1.0000
  H   H1873     1.0  0.35222  0.69621  0.39055  1.0000
  H   H1874     1.0  0.34559  0.69515  0.35706  1.0000
  H   H1875     1.0  0.36709  0.69369  0.33928  1.0000
  H   H1876     1.0  0.35917  0.69194  0.30949  1.0000
  H   H1877     1.0  0.36378  0.71627  0.39345  1.0000
  H   H1878     1.0  0.36554  0.70404  0.39763  1.0000
  H   H1879     1.0  0.33507  0.70381  0.37519  1.0000
  H   H1880     1.0  0.33852  0.71335  0.32697  1.0000
  H   H1881     1.0  0.37106  0.71885  0.25338  1.0000
  H   H1882     1.0  0.36865  0.70576  0.26555  1.0000
  H   H1883     1.0  0.37012  0.71380  0.19429  1.0000
  H   H1884     1.0  0.35782  0.70653  0.22191  1.0000
  H   H1885     1.0  0.36050  0.71979  0.20957  1.0000
  H   H1886     1.0  0.31770  0.72132  0.12573  1.0000
  H   H1887     1.0  0.26708  0.68692  0.34052  1.0000
  C   C1106     1.0  0.42632  0.82541  0.31286  1.0000
  H   H1888     1.0  0.38155  0.72333  0.35390  1.0000
  H   H1889     1.0  0.37936  0.71504  0.40409  1.0000
  H   H1890     1.0  0.38321  0.71094  0.36091  1.0000
  H   H1891     1.0  0.33276  0.71624  0.41075  1.0000
  H   H1892     1.0  0.33629  0.72581  0.36203  1.0000
  H   H1893     1.0  0.32537  0.71619  0.37794  1.0000
  H   H1894     1.0  0.38662  0.67507  0.06349  1.0000
  H   H1895     1.0  0.39863  0.81206  0.92050  1.0000
  H   H1896     1.0  0.36805  0.80897  0.90633  1.0000
  C   C1107     1.0  0.38128  0.74221  0.16462  1.0000
  C   C1108     1.0  0.37231  0.67496  0.09864  1.0000
  H   H1897     1.0  0.35287  0.76557  0.46468  1.0000
  C   C1109     1.0  0.38162  0.80680  0.91804  1.0000
  C   C1110     1.0  0.37180  0.74508  0.16170  1.0000
  C   C1111     1.0  0.38348  0.75742  0.83927  1.0000
  H   H1898     1.0  0.41430  0.71064  0.02818  1.0000
  H   H1899     1.0  0.38216  0.76558  0.46930  1.0000
  H   H1900     1.0  0.37426  0.77175  0.36779  1.0000
  H   H1901     1.0  0.33324  0.80574  0.90464  1.0000
  C   C1112     1.0  0.38076  0.78790  0.74444  1.0000
  S   S261      1.0  0.31530  0.72629  0.97308  1.0000
  C   C1113     1.0  0.34486  0.73825  0.14039  1.0000
  C   C1114     1.0  0.28791  0.72474  0.02189  1.0000
  C   C1115     1.0  0.38657  0.69011  0.06477  1.0000
  H   H1902     1.0  0.39157  0.70245  0.11436  1.0000
  H   H1903     1.0  0.40948  0.81653  0.66278  1.0000
  C   C1116     1.0  0.25400  0.70947  0.95132  1.0000
  H   H1904     1.0  0.44093  0.81329  0.67904  1.0000
  H   H1905     1.0  0.33540  0.70969  0.85799  1.0000
  H   H1906     1.0  0.25594  0.71210  0.21911  1.0000
  H   H1907     1.0  0.38953  0.82973  0.24259  1.0000
  H   H1908     1.0  0.38942  0.82046  0.53871  1.0000
  S   S262      1.0  0.45203  0.82452  0.53193  1.0000
  S   S263      1.0  0.26277  0.69400  0.87733  1.0000
  H   H1909     1.0  0.40797  0.82779  0.82284  1.0000
  H   H1910     1.0  0.35600  0.67958  0.39740  1.0000
  Fe  Fe132     1.0  0.26379  0.68129  0.25939  1.0000
  H   H1911     1.0  0.40367  0.82276  0.24675  1.0000
  S   S264      1.0  0.30600  0.74322  0.03865  1.0000
  C   C1117     1.0  0.33707  0.78535  0.80910  1.0000
  H   H1912     1.0  0.36648  0.80188  0.95791  1.0000
  H   H1913     1.0  0.26902  0.70494  0.28984  1.0000
  S   S265      1.0  0.37924  0.67106  0.33451  1.0000
  C   C1118     1.0  0.44604  0.82813  0.92752  1.0000
  H   H1914     1.0  0.33142  0.78178  0.69586  1.0000
  H   H1915     1.0  0.41306  0.81452  0.94560  1.0000
  H   H1916     1.0  0.26572  0.71725  0.23485  1.0000
  H   H1917     1.0  0.36597  0.78724  0.51384  1.0000
  C   C1119     1.0  0.39330  0.74525  0.82267  1.0000
  C   C1120     1.0  0.35568  0.75315  0.14498  1.0000
  N   N57       1.0  0.39849  0.81344  0.85888  1.0000
  N   N58       1.0  0.36563  0.76024  0.12912  1.0000
  H   H1918     1.0  0.27175  0.70929  0.96955  1.0000
  H   H1919     1.0  0.30478  0.71465  0.26635  1.0000
  H   H1920     1.0  0.35409  0.77996  0.87363  1.0000
  H   H1921     1.0  0.37131  0.78152  0.80599  1.0000
  C   C1121     1.0  0.26791  0.70638  0.00271  1.0000
  H   H1922     1.0  0.29024  0.71162  0.05860  1.0000
  H   H1923     1.0  0.37109  0.75930  0.20264  1.0000
  C   C1122     1.0  0.34131  0.77407  0.86049  1.0000
  H   H1924     1.0  0.38674  0.80076  0.87106  1.0000
  H   H1925     1.0  0.36859  0.77535  0.77157  1.0000
  C   C1123     1.0  0.32885  0.78102  0.36473  1.0000
  C   C1124     1.0  0.33945  0.78414  0.67939  1.0000
  N   N59       1.0  0.28816  0.71586  0.13404  1.0000
  H   H1926     1.0  0.43119  0.81584  0.55678  1.0000
  S   S266      1.0  0.29817  0.71514  0.92529  1.0000
  H   H1927     1.0  0.37107  0.76138  0.89684  1.0000
  H   H1928     1.0  0.37034  0.77583  0.20878  1.0000
  H   H1929     1.0  0.38405  0.78572  0.71756  1.0000
  H   H1930     1.0  0.37259  0.78106  0.91012  1.0000
  H   H1931     1.0  0.36909  0.79637  0.91827  1.0000
  H   H1932     1.0  0.39486  0.69944  0.17980  1.0000
  H   H1933     1.0  0.47092  0.82526  0.47034  1.0000
  H   H1934     1.0  0.30066  0.74812  0.11192  1.0000
  H   H1935     1.0  0.29171  0.72332  0.99367  1.0000
  H   H1936     1.0  0.34583  0.73340  0.16793  1.0000
  H   H1937     1.0  0.37765  0.77131  0.93359  1.0000
  C   C1125     1.0  0.38771  0.80830  0.87356  1.0000
  H   H1938     1.0  0.40558  0.71361  0.06554  1.0000
  C   C1126     1.0  0.33901  0.77681  0.00587  1.0000
  H   H1939     1.0  0.28713  0.72265  0.87033  1.0000
  H   H1940     1.0  0.25416  0.69670  0.04562  1.0000
  C   C1127     1.0  0.37357  0.76748  0.86727  1.0000
  H   H1941     1.0  0.41358  0.67086  0.41267  1.0000
  H   H1942     1.0  0.33226  0.78688  0.79131  1.0000
  C   C1128     1.0  0.34446  0.77861  0.70836  1.0000
  H   H1943     1.0  0.36952  0.75746  0.42369  1.0000
  H   H1944     1.0  0.45676  0.82923  0.95758  1.0000
  H   H1945     1.0  0.41577  0.80640  0.21403  1.0000
  H   H1946     1.0  0.37956  0.73473  0.18691  1.0000
  C   C1129     1.0  0.34293  0.77904  0.31729  1.0000
  H   H1947     1.0  0.35425  0.74805  0.17597  1.0000
  H   H1948     1.0  0.35226  0.77933  0.69167  1.0000
  H   H1949     1.0  0.38998  0.74012  0.85439  1.0000
  H   H1950     1.0  0.37606  0.79294  0.73653  1.0000
  C   C1130     1.0  0.41077  0.81329  0.63785  1.0000
  C   C1131     1.0  0.37024  0.77794  0.45483  1.0000
  C   C1132     1.0  0.29291  0.70407  0.26405  1.0000
  N   N60       1.0  0.34277  0.79521  0.66435  1.0000
  N   N61       1.0  0.36820  0.77162  0.42966  1.0000
  H   H1951     1.0  0.34507  0.80585  0.87256  1.0000
  H   H1952     1.0  0.48350  0.82426  0.45981  1.0000
  H   H1953     1.0  0.29529  0.70492  0.11784  1.0000
  H   H1954     1.0  0.28361  0.71449  0.19789  1.0000
  H   H1955     1.0  0.35704  0.79633  0.67249  1.0000
  H   H1956     1.0  0.42078  0.80930  0.28846  1.0000
  C   C1133     1.0  0.38188  0.77551  0.86763  1.0000
  C   C1134     1.0  0.34510  0.79285  0.80436  1.0000
  H   H1957     1.0  0.35600  0.75772  0.40918  1.0000
  H   H1958     1.0  0.31838  0.77034  0.91629  1.0000
  S   S267      1.0  0.38410  0.80397  0.47606  1.0000
  C   C1135     1.0  0.39874  0.70570  0.03197  1.0000
  C   C1136     1.0  0.25619  0.67843  0.39938  1.0000
  H   H1959     1.0  0.35697  0.77194  0.50879  1.0000
  C   C1137     1.0  0.28435  0.71477  0.88364  1.0000
  C   C1138     1.0  0.37456  0.77886  0.78059  1.0000
  H   H1960     1.0  0.39206  0.70827  0.04376  1.0000
  C   C1139     1.0  0.38075  0.76182  0.44771  1.0000
  C   C1140     1.0  0.39972  0.69771  0.15443  1.0000
  H   H1961     1.0  0.41503  0.70260  0.98189  1.0000
  S   S268      1.0  0.38620  0.66989  0.90464  1.0000
  H   H1962     1.0  0.34101  0.76034  0.39090  1.0000
  S   S269      1.0  0.39696  0.67204  0.97297  1.0000
  C   C1141     1.0  0.40289  0.69025  0.02452  1.0000
  H   H1963     1.0  0.41209  0.72321  0.97298  1.0000
  H   H1964     1.0  0.38396  0.81221  0.85343  1.0000
  S   S270      1.0  0.44781  0.81716  0.84184  1.0000
  C   C1142     1.0  0.38073  0.77145  0.79197  1.0000
  H   H1965     1.0  0.38798  0.77562  0.79035  1.0000
  C   C1143     1.0  0.38201  0.75137  0.46257  1.0000
  C   C1144     1.0  0.29698  0.71258  0.27159  1.0000
  C   C1145     1.0  0.37034  0.76170  0.44446  1.0000
  N   N62       1.0  0.42062  0.72789  0.15913  1.0000
  C   C1146     1.0  0.43041  0.72990  0.12687  1.0000
  C   C1147     1.0  0.41868  0.71818  0.19222  1.0000
  C   C1148     1.0  0.41284  0.72715  0.13886  1.0000
  C   C1149     1.0  0.41992  0.73615  0.17681  1.0000
  C   C1150     1.0  0.42730  0.73831  0.19888  1.0000
  C   C1151     1.0  0.43318  0.73942  0.08982  1.0000
  C   C1152     1.0  0.40203  0.72348  0.16749  1.0000
  C   C1153     1.0  0.42764  0.71508  0.20265  1.0000
  C   C1154     1.0  0.42443  0.70598  0.24052  1.0000
  C   C1155     1.0  0.42690  0.74790  0.20834  1.0000
  C   C1156     1.0  0.44334  0.74070  0.06018  1.0000
  C   C1157     1.0  0.39496  0.72303  0.14324  1.0000
  H   H1966     1.0  0.43066  0.72360  0.11487  1.0000
  H   H1967     1.0  0.43649  0.73036  0.13975  1.0000
  H   H1968     1.0  0.41323  0.71805  0.22078  1.0000
  H   H1969     1.0  0.41526  0.71199  0.18376  1.0000
  H   H1970     1.0  0.41403  0.72217  0.12026  1.0000
  H   H1971     1.0  0.41335  0.73443  0.11730  1.0000
  H   H1972     1.0  0.42055  0.74308  0.15292  1.0000
  H   H1973     1.0  0.41258  0.73467  0.19963  1.0000
  H   H1974     1.0  0.43494  0.73907  0.18039  1.0000
  H   H1975     1.0  0.42537  0.73232  0.22831  1.0000
  H   H1976     1.0  0.42795  0.73920  0.07255  1.0000
  H   H1977     1.0  0.43335  0.74604  0.09953  1.0000
  H   H1978     1.0  0.40012  0.72849  0.18502  1.0000
  H   H1979     1.0  0.40061  0.71601  0.18925  1.0000
  H   H1980     1.0  0.43223  0.71317  0.17714  1.0000
  H   H1981     1.0  0.43230  0.72098  0.20810  1.0000
  H   H1982     1.0  0.41941  0.69990  0.23730  1.0000
  H   H1983     1.0  0.43095  0.70342  0.24516  1.0000
  H   H1984     1.0  0.42068  0.70778  0.26780  1.0000
  H   H1985     1.0  0.41930  0.74771  0.22583  1.0000
  H   H1986     1.0  0.43167  0.74897  0.22693  1.0000
  H   H1987     1.0  0.42945  0.75428  0.17983  1.0000
  H   H1988     1.0  0.44901  0.74139  0.07519  1.0000
  H   H1989     1.0  0.44355  0.73436  0.04863  1.0000
  H   H1990     1.0  0.44509  0.74749  0.03385  1.0000
  H   H1991     1.0  0.38734  0.72027  0.16446  1.0000
  H   H1992     1.0  0.39569  0.73045  0.12233  1.0000
  H   H1993     1.0  0.39641  0.71803  0.12520  1.0000
  C   C1158     1.0  0.33523  0.81303  0.72492  1.0000
  S   S271      1.0  0.26655  0.67303  0.21454  1.0000
  H   H1994     1.0  0.38427  0.69178  0.03711  1.0000
  H   H1995     1.0  0.34285  0.70093  0.85536  1.0000
  C   C1159     1.0  0.37475  0.77669  0.38624  1.0000
  N   N63       1.0  0.40948  0.81585  0.31555  1.0000
  C   C1160     1.0  0.27037  0.71141  0.18498  1.0000
  C   C1161     1.0  0.40849  0.80921  0.35742  1.0000
  C   C1162     1.0  0.39593  0.82250  0.43579  1.0000
  H   H1996     1.0  0.34980  0.75722  0.14879  1.0000
  H   H1997     1.0  0.38441  0.78566  0.00521  1.0000
  H   H1998     1.0  0.38074  0.75218  0.87095  1.0000
  H   H1999     1.0  0.32352  0.79008  0.65775  1.0000
  C   C1163     1.0  0.39879  0.80118  0.38096  1.0000
  C   C1164     1.0  0.39963  0.79385  0.41842  1.0000
  H   H2000     1.0  0.36744  0.73920  0.15484  1.0000
  H   H2001     1.0  0.39184  0.80816  0.79853  1.0000
  H   H2002     1.0  0.37670  0.74729  0.49338  1.0000
  H   H2003     1.0  0.35858  0.76745  0.96457  1.0000
  H   H2004     1.0  0.39430  0.81066  0.32036  1.0000
  H   H2005     1.0  0.41470  0.80558  0.35601  1.0000
  H   H2006     1.0  0.40903  0.81360  0.37814  1.0000
  H   H2007     1.0  0.28788  0.69485  0.94748  1.0000
  H   H2008     1.0  0.38955  0.75165  0.46392  1.0000
  H   H2009     1.0  0.36759  0.74508  0.19207  1.0000
  C   C1165     1.0  0.34314  0.76323  0.41370  1.0000
  C   C1166     1.0  0.37936  0.79044  0.31939  1.0000
  H   H2010     1.0  0.40613  0.79625  0.30628  1.0000
  H   H2011     1.0  0.35423  0.75713  0.87848  1.0000
  H   H2012     1.0  0.36053  0.76987  0.08610  1.0000
  H   H2013     1.0  0.38092  0.74737  0.44123  1.0000
  H   H2014     1.0  0.32100  0.77927  0.37922  1.0000
  H   H2015     1.0  0.39282  0.80472  0.39144  1.0000
  H   H2016     1.0  0.39656  0.79699  0.36216  1.0000
  H   H2017     1.0  0.39229  0.79012  0.44078  1.0000
  H   H2018     1.0  0.40302  0.78812  0.40963  1.0000
  H   H2019     1.0  0.40397  0.79754  0.43363  1.0000
  C   C1167     1.0  0.29834  0.72159  0.12781  1.0000
  H   H2020     1.0  0.32699  0.74667  0.02727  1.0000
  H   H2021     1.0  0.36801  0.78496  0.44528  1.0000
  H   H2022     1.0  0.34765  0.67804  0.36906  1.0000
  H   H2023     1.0  0.38886  0.77324  0.86456  1.0000
  C   C1168     1.0  0.26632  0.68551  0.37302  1.0000
  H   H2024     1.0  0.38534  0.78347  0.90697  1.0000
  H   H2025     1.0  0.36484  0.75714  0.47432  1.0000
  H   H2026     1.0  0.38257  0.77837  0.38456  1.0000
  N   N64       1.0  0.35230  0.70279  0.95397  1.0000
  C   C1169     1.0  0.36103  0.71122  0.92782  1.0000
  C   C1170     1.0  0.34578  0.70612  0.98528  1.0000
  C   C1171     1.0  0.35593  0.69423  0.97388  1.0000
  C   C1172     1.0  0.34647  0.69957  0.92893  1.0000
  C   C1173     1.0  0.34308  0.70775  0.90219  1.0000
  C   C1174     1.0  0.36802  0.70960  0.89061  1.0000
  C   C1175     1.0  0.34799  0.68532  0.00665  1.0000
  C   C1176     1.0  0.35035  0.70907  0.01588  1.0000
  C   C1177     1.0  0.34300  0.71216  0.04623  1.0000
  S   S272      1.0  0.44244  0.83487  0.75091  1.0000
  C   C1178     1.0  0.37645  0.71871  0.86660  1.0000
  H   H2027     1.0  0.41172  0.67146  0.08922  1.0000
  H   H2028     1.0  0.36567  0.71297  0.94605  1.0000
  H   H2029     1.0  0.35861  0.71803  0.91689  1.0000
  H   H2030     1.0  0.34353  0.71267  0.97013  1.0000
  H   H2031     1.0  0.33879  0.70046  0.00262  1.0000
  H   H2032     1.0  0.36133  0.69666  0.98799  1.0000
  H   H2033     1.0  0.36002  0.69133  0.95061  1.0000
  H   H2034     1.0  0.39658  0.82598  0.81579  1.0000
  H   H2035     1.0  0.33968  0.69390  0.94903  1.0000
  H   H2036     1.0  0.34933  0.71392  0.88111  1.0000
  H   H2037     1.0  0.33783  0.71070  0.92145  1.0000
  H   H2038     1.0  0.37130  0.70336  0.90042  1.0000
  H   H2039     1.0  0.36414  0.70811  0.86955  1.0000
  H   H2040     1.0  0.34265  0.68222  0.99378  1.0000
  H   H2041     1.0  0.34398  0.68742  0.03264  1.0000
  H   H2042     1.0  0.35269  0.70289  0.03338  1.0000
  H   H2043     1.0  0.35678  0.71544  0.99992  1.0000
  H   H2044     1.0  0.33648  0.70598  0.06437  1.0000
  H   H2045     1.0  0.34648  0.71440  0.06731  1.0000
  H   H2046     1.0  0.34063  0.71854  0.03006  1.0000
  H   H2047     1.0  0.38510  0.82696  0.29682  1.0000
  H   H2048     1.0  0.42136  0.81925  0.68620  1.0000
  H   H2049     1.0  0.25517  0.69614  0.35057  1.0000
  H   H2050     1.0  0.38140  0.71738  0.84032  1.0000
  H   H2051     1.0  0.37361  0.72518  0.85501  1.0000
  H   H2052     1.0  0.38080  0.72036  0.88600  1.0000
  H   H2053     1.0  0.39117  0.82354  0.41755  1.0000
  H   H2054     1.0  0.41751  0.80551  0.92407  1.0000
  H   H2055     1.0  0.41507  0.83023  0.55317  1.0000
  H   H2056     1.0  0.38547  0.74745  0.17509  1.0000
  H   H2057     1.0  0.27991  0.72207  0.02918  1.0000
  H   H2058     1.0  0.30579  0.76989  0.94117  1.0000
  C   C1179     1.0  0.37915  0.77798  0.90706  1.0000
  H   H2059     1.0  0.34079  0.77018  0.41215  1.0000
  C   C1180     1.0  0.40296  0.81095  0.89250  1.0000
  C   C1181     1.0  0.32885  0.75192  0.07606  1.0000
  H   H2060     1.0  0.38274  0.81365  0.92576  1.0000
  C   C1182     1.0  0.39412  0.69580  0.12597  1.0000
  C   C1183     1.0  0.28853  0.70942  0.91036  1.0000
  C   C1184     1.0  0.35462  0.77110  0.98492  1.0000
  H   H2061     1.0  0.36848  0.75554  0.80204  1.0000
  H   H2062     1.0  0.38300  0.77221  0.06612  1.0000
  S   S273      1.0  0.27821  0.69058  0.25865  1.0000
  H   H2063     1.0  0.36726  0.77086  0.86793  1.0000
  H   H2064     1.0  0.29768  0.69971  0.25287  1.0000
  C   C1185     1.0  0.37639  0.77500  0.06489  1.0000
  H   H2065     1.0  0.33966  0.76426  0.70243  1.0000
  H   H2066     1.0  0.40221  0.69113  0.16755  1.0000
  C   C1186     1.0  0.36803  0.78017  0.52390  1.0000
  H   H2067     1.0  0.37607  0.78167  0.51819  1.0000
  H   H2068     1.0  0.37283  0.77254  0.14247  1.0000
  C   C1187     1.0  0.35422  0.76499  0.40478  1.0000
  C   C1188     1.0  0.42859  0.81894  0.66743  1.0000
  H   H2069     1.0  0.34272  0.79647  0.72271  1.0000
  H   H2070     1.0  0.34048  0.78119  0.65348  1.0000
  H   H2071     1.0  0.40286  0.80296  0.90180  1.0000
  H   H2072     1.0  0.37823  0.78017  0.44919  1.0000
  H   H2073     1.0  0.40911  0.80524  0.65359  1.0000
  C   C1189     1.0  0.36503  0.77332  0.50144  1.0000
  H   H2074     1.0  0.36691  0.76629  0.51383  1.0000
  C   C1190     1.0  0.37065  0.80328  0.92549  1.0000
  H   H2075     1.0  0.34408  0.78320  0.00696  1.0000
  C   C1191     1.0  0.35750  0.77012  0.43319  1.0000
  H   H2076     1.0  0.41161  0.81324  0.81326  1.0000
  Fe  Fe133     1.0  0.37221  0.82893  0.38886  1.0000
  H   H2077     1.0  0.38751  0.68971  0.14407  1.0000
  H   H2078     1.0  0.40826  0.69669  0.08313  1.0000
  H   H2079     1.0  0.35782  0.76952  0.37236  1.0000
  H   H2080     1.0  0.40203  0.81862  0.77002  1.0000
  Fe  Fe134     1.0  0.25327  0.67674  0.20039  1.0000
  H   H2081     1.0  0.27402  0.68643  0.93122  1.0000
  H   H2082     1.0  0.27646  0.68508  0.12033  1.0000
  H   H2083     1.0  0.40327  0.80157  0.83981  1.0000
  H   H2084     1.0  0.37647  0.75364  0.09856  1.0000
  H   H2085     1.0  0.27764  0.71816  0.10157  1.0000
  H   H2086     1.0  0.43311  0.82659  0.65188  1.0000
  H   H2087     1.0  0.34387  0.73389  0.12018  1.0000
  C   C1192     1.0  0.37289  0.78653  0.36393  1.0000
  H   H2088     1.0  0.37773  0.77434  0.00395  1.0000
  H   H2089     1.0  0.30377  0.72104  0.10077  1.0000
  C   C1193     1.0  0.39966  0.81764  0.31381  1.0000
  H   H2090     1.0  0.26941  0.70393  0.20602  1.0000
  C   C1194     1.0  0.36693  0.76657  0.08643  1.0000
  C   C1195     1.0  0.35377  0.74693  0.11767  1.0000
  H   H2091     1.0  0.37819  0.79769  0.30448  1.0000
  H   H2092     1.0  0.28182  0.68619  0.36005  1.0000
  C   C1196     1.0  0.28127  0.71705  0.17093  1.0000
  C   C1197     1.0  0.34972  0.75365  0.83067  1.0000
  H   H2093     1.0  0.36524  0.78553  0.36427  1.0000
  H   H2094     1.0  0.36710  0.76198  0.06625  1.0000
  H   H2095     1.0  0.33570  0.78891  0.91106  1.0000
  H   H2096     1.0  0.35225  0.75152  0.09104  1.0000
  H   H2097     1.0  0.37745  0.78530  0.30320  1.0000
  C   C1198     1.0  0.41357  0.81694  0.88267  1.0000
  C   C1199     1.0  0.39991  0.81077  0.78926  1.0000
  H   H2098     1.0  0.26801  0.71264  0.01450  1.0000
  H   H2099     1.0  0.37449  0.79219  0.37820  1.0000
  C   C1200     1.0  0.41425  0.81171  0.28313  1.0000
  S   S274      1.0  0.37461  0.81430  0.38417  1.0000
  H   H2100     1.0  0.33697  0.77125  0.03655  1.0000
  H   H2101     1.0  0.37126  0.78322  0.01767  1.0000
  H   H2102     1.0  0.40865  0.79396  0.23858  1.0000
  C   C1201     1.0  0.37004  0.79879  0.59904  1.0000
  H   H2103     1.0  0.39647  0.82069  0.33827  1.0000
  H   H2104     1.0  0.27415  0.69358  0.01116  1.0000
  C   C1202     1.0  0.37748  0.77984  0.02019  1.0000
  H   H2105     1.0  0.38719  0.79128  0.31702  1.0000
  C   C1203     1.0  0.28473  0.69913  0.92695  1.0000
  H   H2106     1.0  0.25357  0.70967  0.06830  1.0000
  C   C1204     1.0  0.28280  0.70121  0.27044  1.0000
  H   H2107     1.0  0.37615  0.78088  0.07915  1.0000
  C   C1205     1.0  0.34100  0.81021  0.68938  1.0000
  S   S275      1.0  0.35330  0.79838  0.37078  1.0000
  H   H2108     1.0  0.34903  0.74561  0.84188  1.0000
  C   C1206     1.0  0.35131  0.79091  0.82744  1.0000
  C   C1207     1.0  0.34907  0.78578  0.32779  1.0000
  H   H2109     1.0  0.40017  0.80481  0.50799  1.0000
  H   H2110     1.0  0.25194  0.70665  0.46196  1.0000
  H   H2111     1.0  0.35318  0.76652  0.01690  1.0000
  C   C1208     1.0  0.28549  0.72071  0.09712  1.0000
  H   H2112     1.0  0.33067  0.77343  0.94895  1.0000
  Fe  Fe135     1.0  0.35619  0.81900  0.47117  1.0000
  H   H2113     1.0  0.27058  0.69735  0.05581  1.0000
  H   H2114     1.0  0.35935  0.77843  0.97889  1.0000
  H   H2115     1.0  0.34046  0.79548  0.60728  1.0000
  H   H2116     1.0  0.37235  0.80693  0.58981  1.0000
  C   C1209     1.0  0.29097  0.71832  0.28628  1.0000
  C   C1210     1.0  0.32423  0.80232  0.60721  1.0000
  C   C1211     1.0  0.38928  0.82459  0.27200  1.0000
  H   H2117     1.0  0.39114  0.81154  0.67569  1.0000
  H   H2118     1.0  0.35197  0.75617  0.79697  1.0000
  C   C1212     1.0  0.27385  0.69998  0.02216  1.0000
  H   H2119     1.0  0.32376  0.76526  0.99789  1.0000
  H   H2120     1.0  0.33890  0.81373  0.66273  1.0000
  S   S276      1.0  0.40083  0.83212  0.68351  1.0000
  N   N65       1.0  0.42130  0.81707  0.61056  1.0000
  Fe  Fe136     1.0  0.35815  0.80860  0.40556  1.0000
  C   C1213     1.0  0.34502  0.77213  0.97679  1.0000
  S   S277      1.0  0.43566  0.82119  0.46302  1.0000
  C   C1214     1.0  0.42333  0.81294  0.57584  1.0000
  H   H2121     1.0  0.40109  0.80436  0.27374  1.0000
  C   C1215     1.0  0.43354  0.81367  0.69627  1.0000
  H   H2122     1.0  0.34079  0.76464  0.98149  1.0000
  H   H2123     1.0  0.35793  0.67976  0.03758  1.0000
  H   H2124     1.0  0.37351  0.79652  0.57260  1.0000
  C   C1216     1.0  0.39970  0.82476  0.27309  1.0000
  H   H2125     1.0  0.35696  0.78725  0.61934  1.0000
  H   H2126     1.0  0.42001  0.79760  0.24737  1.0000
  H   H2127     1.0  0.25470  0.70300  0.94081  1.0000
  H   H2128     1.0  0.36286  0.81968  0.55989  1.0000
  H   H2129     1.0  0.31979  0.77037  0.05616  1.0000
  S   S278      1.0  0.35732  0.80367  0.47182  1.0000
  H   H2130     1.0  0.35691  0.78758  0.31300  1.0000
  H   H2131     1.0  0.33115  0.79554  0.71583  1.0000
  H   H2132     1.0  0.43116  0.80113  0.53190  1.0000
  H   H2133     1.0  0.33260  0.78160  0.07203  1.0000
  H   H2134     1.0  0.42565  0.82170  0.34501  1.0000
  H   H2135     1.0  0.34653  0.80010  0.78286  1.0000
  C   C1217     1.0  0.33911  0.79888  0.69964  1.0000
  H   H2136     1.0  0.41365  0.81880  0.49838  1.0000
  H   H2137     1.0  0.41381  0.82486  0.87759  1.0000
  C   C1218     1.0  0.27660  0.70992  0.87377  1.0000
  C   C1219     1.0  0.42098  0.80157  0.58769  1.0000
  C   C1220     1.0  0.35889  0.79536  0.61163  1.0000
  C   C1221     1.0  0.32742  0.79797  0.64381  1.0000
  C   C1222     1.0  0.32607  0.78374  0.06551  1.0000
  C   C1223     1.0  0.28082  0.71537  0.29321  1.0000
  H   H2138     1.0  0.35064  0.69590  0.90906  1.0000
  H   H2139     1.0  0.32757  0.81036  0.59356  1.0000
  H   H2140     1.0  0.38703  0.81175  0.63275  1.0000
  H   H2141     1.0  0.27454  0.67966  0.41238  1.0000
  H   H2142     1.0  0.42519  0.81769  0.90914  1.0000
  H   H2143     1.0  0.41715  0.81753  0.25281  1.0000
  H   H2144     1.0  0.33719  0.80993  0.75253  1.0000
  H   H2145     1.0  0.34640  0.79195  0.92579  1.0000
  C   C1224     1.0  0.40114  0.81192  0.48617  1.0000
  H   H2146     1.0  0.29921  0.72261  0.04814  1.0000
  C   C1225     1.0  0.31807  0.78129  0.10641  1.0000
  S   S279      1.0  0.36166  0.79989  0.82228  1.0000
  H   H2147     1.0  0.31139  0.78353  0.10206  1.0000
  H   H2148     1.0  0.34407  0.80876  0.91869  1.0000
  C   C1226     1.0  0.32253  0.77835  0.03820  1.0000
  H   H2149     1.0  0.43211  0.83097  0.58805  1.0000
  C   C1227     1.0  0.40968  0.82916  0.45422  1.0000
  H   H2150     1.0  0.40196  0.80629  0.73558  1.0000
  H   H2151     1.0  0.33642  0.79506  0.98588  1.0000
  H   H2152     1.0  0.45746  0.82919  0.65511  1.0000
  H   H2153     1.0  0.35676  0.79866  0.58465  1.0000
  H   H2154     1.0  0.25602  0.67201  0.38803  1.0000
  C   C1228     1.0  0.31270  0.76854  0.94630  1.0000
  S   S280      1.0  0.35821  0.82759  0.77669  1.0000
  H   H2155     1.0  0.31140  0.76064  0.96345  1.0000
  H   H2156     1.0  0.37270  0.79547  0.62439  1.0000
  H   H2157     1.0  0.43436  0.81776  0.71758  1.0000
  H   H2158     1.0  0.34683  0.77654  0.94458  1.0000
  C   C1229     1.0  0.44203  0.81713  0.95064  1.0000
  N   N66       1.0  0.33001  0.77971  0.99773  1.0000
  H   H2159     1.0  0.40393  0.81338  0.58983  1.0000
  H   H2160     1.0  0.31688  0.78269  0.95215  1.0000
  H   H2161     1.0  0.31615  0.77328  0.12319  1.0000
  H   H2162     1.0  0.34226  0.80706  0.61404  1.0000
  H   H2163     1.0  0.25872  0.72091  0.87012  1.0000
  H   H2164     1.0  0.37845  0.83034  0.51978  1.0000
  C   C1230     1.0  0.31589  0.77492  0.97015  1.0000
  C   C1231     1.0  0.33250  0.79041  0.97231  1.0000
  H   H2165     1.0  0.41921  0.81546  0.55502  1.0000
  H   H2166     1.0  0.32794  0.79182  0.05080  1.0000
  H   H2167     1.0  0.31601  0.78096  0.03389  1.0000
  Fe  Fe137     1.0  0.37344  0.81052  0.44958  1.0000
  H   H2168     1.0  0.30980  0.77298  0.99914  1.0000
  H   H2169     1.0  0.40198  0.79693  0.78002  1.0000
  C   C1232     1.0  0.31338  0.72358  0.15066  1.0000
  C   C1233     1.0  0.39661  0.83026  0.86897  1.0000
  S   S281      1.0  0.35578  0.82367  0.40625  1.0000
  H   H2170     1.0  0.32570  0.79300  0.97262  1.0000
  C   C1234     1.0  0.45465  0.82718  0.60151  1.0000
  S   S282      1.0  0.37932  0.82484  0.78457  1.0000
  C   C1235     1.0  0.40285  0.81544  0.61780  1.0000
  H   H2171     1.0  0.27608  0.71971  0.30467  1.0000
  C   C1236     1.0  0.35858  0.82400  0.57411  1.0000
  H   H2172     1.0  0.31607  0.72140  0.17698  1.0000
  H   H2173     1.0  0.43650  0.81585  0.98060  1.0000
  H   H2174     1.0  0.32723  0.81036  0.73161  1.0000
  H   H2175     1.0  0.41245  0.82939  0.32932  1.0000
  H   H2176     1.0  0.32645  0.79876  0.58368  1.0000
  H   H2177     1.0  0.28148  0.70434  0.01367  1.0000
  H   H2178     1.0  0.30163  0.71063  0.17522  1.0000
  H   H2179     1.0  0.41866  0.81633  0.85516  1.0000
  S   S283      1.0  0.37279  0.81968  0.71052  1.0000
  H   H2180     1.0  0.34888  0.81340  0.68304  1.0000
  H   H2181     1.0  0.40320  0.83244  0.26924  1.0000
  H   H2182     1.0  0.38538  0.81709  0.27519  1.0000
  C   C1237     1.0  0.34726  0.83484  0.61186  1.0000
  Fe  Fe138     1.0  0.36548  0.83222  0.70835  1.0000
  C   C1238     1.0  0.36087  0.82714  0.60533  1.0000
  C   C1239     1.0  0.38972  0.82746  0.54562  1.0000
  H   H2183     1.0  0.33699  0.82117  0.71688  1.0000
  C   C1240     1.0  0.35053  0.82621  0.56226  1.0000
  Fe  Fe139     1.0  0.39602  0.67105  0.23239  1.0000
  C   C1241     1.0  0.40342  0.83043  0.43096  1.0000
  H   H2184     1.0  0.33128  0.69771  0.89607  1.0000
  H   H2185     1.0  0.41886  0.80118  0.53038  1.0000
  H   H2186     1.0  0.26727  0.69266  0.37849  1.0000
  H   H2187     1.0  0.48284  0.83249  0.57005  1.0000
  H   H2188     1.0  0.45480  0.81950  0.61013  1.0000
  H   H2189     1.0  0.42139  0.79022  0.55901  1.0000
  H   H2190     1.0  0.42670  0.69275  0.96256  1.0000
  H   H2191     1.0  0.25687  0.72788  0.05026  1.0000
  H   H2192     1.0  0.27433  0.67401  0.37334  1.0000
  H   H2193     1.0  0.41311  0.79830  0.60527  1.0000
  C   C1242     1.0  0.39262  0.80974  0.64694  1.0000
  S   S284      1.0  0.37221  0.82539  0.45310  1.0000
  H   H2194     1.0  0.39747  0.83083  0.54107  1.0000
  H   H2195     1.0  0.25629  0.67555  0.43111  1.0000
  H   H2196     1.0  0.35974  0.67614  0.35227  1.0000
  Fe  Fe140     1.0  0.44877  0.82966  0.47210  1.0000
  C   C1243     1.0  0.38576  0.83438  0.51733  1.0000
  H   H2197     1.0  0.43029  0.82149  0.29389  1.0000
  H   H2198     1.0  0.47895  0.82893  0.41860  1.0000
  C   C1244     1.0  0.45323  0.83159  0.56444  1.0000
  H   H2199     1.0  0.45124  0.82893  0.89746  1.0000
  C   C1245     1.0  0.34485  0.83150  0.58190  1.0000
  C   C1246     1.0  0.25096  0.71667  0.88473  1.0000
  H   H2200     1.0  0.46926  0.83363  0.90296  1.0000
  C   C1247     1.0  0.41609  0.82567  0.30820  1.0000
  H   H2201     1.0  0.41745  0.83066  0.27694  1.0000
  H   H2202     1.0  0.34688  0.67079  0.04694  1.0000
  C   C1248     1.0  0.25068  0.71537  0.01007  1.0000
  H   H2203     1.0  0.25132  0.67287  0.01739  1.0000
  H   H2204     1.0  0.33854  0.83314  0.57360  1.0000
  H   H2205     1.0  0.25271  0.70191  0.40105  1.0000
  C   C1249     1.0  0.25729  0.70048  0.01218  1.0000
  H   H2206     1.0  0.25791  0.69447  0.99870  1.0000
  Fe  Fe141     1.0  0.25240  0.67846  0.89833  1.0000
  C   C1250     1.0  0.25324  0.67630  0.06970  1.0000
  H   H2207     1.0  0.38101  0.82668  0.87485  1.0000
  C   C1251     1.0  0.35519  0.83263  0.62426  1.0000
  S   S285      1.0  0.25098  0.68586  0.24227  1.0000
  H   H2208     1.0  0.25780  0.72089  0.99326  1.0000
  C   C1252     1.0  0.47857  0.82878  0.44990  1.0000
  C   C1253     1.0  0.45122  0.83330  0.95141  1.0000
  N   N67       1.0  0.25055  0.70633  0.99712  1.0000
  H   H2209     1.0  0.44010  0.83538  0.30178  1.0000
  H   H2210     1.0  0.25022  0.70946  0.87935  1.0000
  H   H2211     1.0  0.46031  0.83552  0.00723  1.0000
  S   S286      1.0  0.45779  0.96244  0.45520  1.0000
  S   S287      1.0  0.44847  0.95243  0.38104  1.0000
  Fe  Fe142     1.0  0.47288  0.97199  0.42204  1.0000
  S   S288      1.0  0.48574  0.96636  0.43296  1.0000
  H   H2212     1.0  0.49787  0.85330  0.44433  1.0000
  H   H2213     1.0  0.45901  0.84489  0.86827  1.0000
  S   S289      1.0  0.49169  0.97641  0.75291  1.0000
  H   H2214     1.0  0.42944  0.83995  0.31907  1.0000
  H   H2215     1.0  0.44704  0.94727  0.10429  1.0000
  S   S290      1.0  0.44176  0.83893  0.37601  1.0000
  S   S291      1.0  0.49077  0.91517  0.23856  1.0000
  Fe  Fe143     1.0  0.49430  0.91303  0.96409  1.0000
  H   H2216     1.0  0.48384  0.87303  0.24493  1.0000
  C   C1254     1.0  0.35255  0.87865  0.80749  1.0000
  Fe  Fe144     1.0  0.48551  0.92459  0.27533  1.0000
  S   S292      1.0  0.46976  0.92460  0.29919  1.0000
  H   H2217     1.0  0.44909  0.93202  0.15102  1.0000
  H   H2218     1.0  0.47585  0.83846  0.62722  1.0000
  Fe  Fe145     1.0  0.42305  0.91840  0.26135  1.0000
  S   S293      1.0  0.43229  0.91617  0.20493  1.0000
  S   S294      1.0  0.42878  0.93347  0.26863  1.0000
  Fe  Fe146     1.0  0.40884  0.89780  0.28415  1.0000
  S   S295      1.0  0.41761  0.89429  0.23054  1.0000
  S   S296      1.0  0.39496  0.88680  0.33011  1.0000
  Fe  Fe147     1.0  0.43045  0.90098  0.24559  1.0000
  S   S297      1.0  0.44399  0.89553  0.24455  1.0000
  Fe  Fe148     1.0  0.41853  0.90981  0.19481  1.0000
  S   S298      1.0  0.41740  0.91460  0.13076  1.0000
  S   S299      1.0  0.42169  0.90318  0.30245  1.0000
  S   S300      1.0  0.40914  0.91326  0.24774  1.0000
  S   S301      1.0  0.49355  0.92059  0.31919  1.0000
  C   C1255     1.0  0.47122  0.92878  0.40346  1.0000
  C   C1256     1.0  0.46510  0.94832  0.20725  1.0000
  H   H2219     1.0  0.39168  0.85968  0.24157  1.0000
  H   H2220     1.0  0.36451  0.86466  0.34663  1.0000
  H   H2221     1.0  0.40243  0.85062  0.46731  1.0000
  H   H2222     1.0  0.35908  0.84468  0.45830  1.0000
  S   S302      1.0  0.38335  0.84216  0.33865  1.0000
  H   H2223     1.0  0.45587  0.94136  0.27053  1.0000
  H   H2224     1.0  0.38175  0.89782  0.79814  1.0000
  H   H2225     1.0  0.47673  0.84349  0.43892  1.0000
  C   C1257     1.0  0.47641  0.94724  0.37699  1.0000
  Fe  Fe149     1.0  0.41228  0.91081  0.88561  1.0000
  S   S303      1.0  0.42115  0.90574  0.92534  1.0000
  S   S304      1.0  0.41241  0.92694  0.86012  1.0000
  Fe  Fe150     1.0  0.40432  0.88975  0.88385  1.0000
  S   S305      1.0  0.41269  0.88327  0.92440  1.0000
  S   S306      1.0  0.39812  0.88248  0.84270  1.0000
  Fe  Fe151     1.0  0.40806  0.89319  0.96115  1.0000
  S   S307      1.0  0.40485  0.88768  0.03014  1.0000
  Fe  Fe152     1.0  0.42506  0.89636  0.88626  1.0000
  S   S308      1.0  0.44030  0.89450  0.86444  1.0000
  S   S309      1.0  0.39858  0.89877  0.92368  1.0000
  S   S310      1.0  0.41729  0.90242  0.84357  1.0000
  N   N68       1.0  0.48592  0.96091  0.88016  1.0000
  C   C1258     1.0  0.40736  0.83841  0.70724  1.0000
  H   H2226     1.0  0.47411  0.84565  0.55637  1.0000
  H   H2227     1.0  0.49307  0.97490  0.30425  1.0000
  S   S311      1.0  0.37818  0.84298  0.70962  1.0000
  S   S312      1.0  0.37124  0.84568  0.82449  1.0000
  C   C1259     1.0  0.48428  0.95709  0.84681  1.0000
  C   C1260     1.0  0.49301  0.98371  0.44363  1.0000
  C   C1261     1.0  0.38418  0.88118  0.14879  1.0000
  H   H2228     1.0  0.47760  0.96121  0.93914  1.0000
  H   H2229     1.0  0.48329  0.83958  0.83888  1.0000
  H   H2230     1.0  0.41884  0.95544  0.02061  1.0000
  S   S313      1.0  0.45092  0.85865  0.73311  1.0000
  S   S314      1.0  0.42264  0.84873  0.78816  1.0000
  S   S315      1.0  0.46348  0.86727  0.80532  1.0000
  C   C1262     1.0  0.48113  0.83929  0.49393  1.0000
  S   S316      1.0  0.49065  0.92745  0.94071  1.0000
  Fe  Fe153     1.0  0.49242  0.90648  0.89030  1.0000
  S   S317      1.0  0.48198  0.90402  0.95258  1.0000
  C   C1263     1.0  0.49068  0.92936  0.42277  1.0000
  Fe  Fe154     1.0  0.47931  0.91863  0.92463  1.0000
  S   S318      1.0  0.46446  0.92161  0.93266  1.0000
  H   H2231     1.0  0.49475  0.88597  0.23570  1.0000
  H   H2232     1.0  0.38338  0.88279  0.08832  1.0000
  S   S319      1.0  0.48899  0.92072  0.86205  1.0000
  Fe  Fe155     1.0  0.46414  0.98750  0.70732  1.0000
  C   C1264     1.0  0.47199  0.87489  0.81950  1.0000
  C   C1265     1.0  0.48157  0.87384  0.81533  1.0000
  C   C1266     1.0  0.48795  0.87984  0.82764  1.0000
  C   C1267     1.0  0.48492  0.88700  0.84457  1.0000
  C   C1268     1.0  0.47536  0.88805  0.84879  1.0000
  C   C1269     1.0  0.46897  0.88208  0.83636  1.0000
  H   H2233     1.0  0.48410  0.86844  0.80230  1.0000
  S   S320      1.0  0.41820  0.83936  0.45188  1.0000
  H   H2234     1.0  0.47293  0.89357  0.86122  1.0000
  H   H2235     1.0  0.46162  0.88304  0.83998  1.0000
  H   H2236     1.0  0.47558  0.95803  0.63674  1.0000
  H   H2237     1.0  0.48568  0.86832  0.50068  1.0000
  H   H2238     1.0  0.48025  0.95381  0.38195  1.0000
  C   C1270     1.0  0.41717  0.84586  0.75377  1.0000
  C   C1271     1.0  0.40732  0.84587  0.75986  1.0000
  S   S321      1.0  0.47728  0.99606  0.71533  1.0000
  S   S322      1.0  0.46429  0.84347  0.75649  1.0000
  H   H2239     1.0  0.44718  0.93707  0.93760  1.0000
  H   H2240     1.0  0.40340  0.84846  0.78346  1.0000
  H   H2241     1.0  0.37735  0.86704  0.19573  1.0000
  C   C1272     1.0  0.39164  0.87131  0.83964  1.0000
  C   C1273     1.0  0.39316  0.86998  0.80129  1.0000
  C   C1274     1.0  0.38743  0.86188  0.79642  1.0000
  C   C1275     1.0  0.37987  0.85507  0.82974  1.0000
  C   C1276     1.0  0.37852  0.85625  0.86822  1.0000
  C   C1277     1.0  0.38442  0.86421  0.87328  1.0000
  H   H2242     1.0  0.39869  0.87535  0.77487  1.0000
  H   H2243     1.0  0.38863  0.86113  0.76657  1.0000
  H   H2244     1.0  0.37274  0.85105  0.89435  1.0000
  H   H2245     1.0  0.38308  0.86508  0.90297  1.0000
  C   C1278     1.0  0.44773  0.90241  0.87945  1.0000
  C   C1279     1.0  0.44606  0.91167  0.87838  1.0000
  C   C1280     1.0  0.45141  0.91767  0.89373  1.0000
  C   C1281     1.0  0.45837  0.91440  0.91052  1.0000
  C   C1282     1.0  0.46029  0.90527  0.91025  1.0000
  C   C1283     1.0  0.45495  0.89927  0.89479  1.0000
  H   H2246     1.0  0.44064  0.91419  0.86569  1.0000
  H   H2247     1.0  0.45023  0.92489  0.89207  1.0000
  H   H2248     1.0  0.46568  0.90269  0.92292  1.0000
  H   H2249     1.0  0.45614  0.89205  0.89613  1.0000
  H   H2250     1.0  0.48446  0.85474  0.54854  1.0000
  H   H2251     1.0  0.43399  0.98134  0.89826  1.0000
  H   H2252     1.0  0.46625  0.85456  0.87570  1.0000
  H   H2253     1.0  0.43846  0.92671  0.72016  1.0000
  H   H2254     1.0  0.45944  0.91546  0.38459  1.0000
  H   H2255     1.0  0.46922  0.96789  0.88425  1.0000
  H   H2256     1.0  0.45323  0.99784  0.48295  1.0000
  C   C1284     1.0  0.48955  0.97198  0.86113  1.0000
  H   H2257     1.0  0.38750  0.90520  0.23792  1.0000
  H   H2258     1.0  0.39649  0.87715  0.23902  1.0000
  H   H2259     1.0  0.44704  0.95972  0.74425  1.0000
  C   C1285     1.0  0.42923  0.96617  0.93797  1.0000
  C   C1286     1.0  0.39154  0.89551  0.20278  1.0000
  H   H2260     1.0  0.48311  0.88742  0.14613  1.0000
  C   C1287     1.0  0.41427  0.90686  0.10308  1.0000
  C   C1288     1.0  0.41309  0.89667  0.11694  1.0000
  C   C1289     1.0  0.41045  0.89090  0.09384  1.0000
  C   C1290     1.0  0.40902  0.89525  0.05663  1.0000
  C   C1291     1.0  0.41049  0.90546  0.04233  1.0000
  C   C1292     1.0  0.41299  0.91118  0.06569  1.0000
  H   H2261     1.0  0.41410  0.89324  0.14558  1.0000
  H   H2262     1.0  0.40945  0.88301  0.10485  1.0000
  H   H2263     1.0  0.40942  0.90891  0.01382  1.0000
  H   H2264     1.0  0.41370  0.91898  0.05531  1.0000
  C   C1293     1.0  0.39243  0.87406  0.33611  1.0000
  C   C1294     1.0  0.39895  0.87002  0.31301  1.0000
  C   C1295     1.0  0.39622  0.86009  0.31554  1.0000
  C   C1296     1.0  0.38706  0.85404  0.34181  1.0000
  C   C1297     1.0  0.38077  0.85792  0.36665  1.0000
  C   C1298     1.0  0.38341  0.86792  0.36344  1.0000
  H   H2265     1.0  0.40597  0.87459  0.29234  1.0000
  H   H2266     1.0  0.40117  0.85712  0.29651  1.0000
  H   H2267     1.0  0.37367  0.85336  0.38666  1.0000
  H   H2268     1.0  0.37830  0.87103  0.38110  1.0000
  C   C1299     1.0  0.47917  0.94473  0.13328  1.0000
  H   H2269     1.0  0.46380  0.94371  0.10343  1.0000
  H   H2270     1.0  0.47277  0.86330  0.51968  1.0000
  H   H2271     1.0  0.37014  0.86680  0.59904  1.0000
  H   H2272     1.0  0.38325  0.90673  0.19431  1.0000
  C   C1300     1.0  0.35215  0.85869  0.93162  1.0000
  H   H2273     1.0  0.45918  0.93293  0.21797  1.0000
  N   N69       1.0  0.46870  0.93890  0.15535  1.0000
  H   H2274     1.0  0.49336  0.92305  0.77276  1.0000
  H   H2275     1.0  0.37955  0.84122  0.56016  1.0000
  C   C1301     1.0  0.48841  0.88627  0.32451  1.0000
  C   C1302     1.0  0.48150  0.88773  0.30458  1.0000
  C   C1303     1.0  0.47902  0.86917  0.36038  1.0000
  C   C1304     1.0  0.48713  0.87694  0.35246  1.0000
  H   H2276     1.0  0.48240  0.89479  0.28284  1.0000
  H   H2277     1.0  0.47819  0.86198  0.38133  1.0000
  H   H2278     1.0  0.45421  0.94068  0.52102  1.0000
  C   C1305     1.0  0.46222  0.91578  0.28876  1.0000
  C   C1306     1.0  0.46530  0.90761  0.28133  1.0000
  C   C1307     1.0  0.45967  0.90129  0.26810  1.0000
  C   C1308     1.0  0.45092  0.90312  0.26261  1.0000
  C   C1309     1.0  0.44771  0.91108  0.27165  1.0000
  C   C1310     1.0  0.45323  0.91726  0.28560  1.0000
  H   H2279     1.0  0.47195  0.90610  0.28598  1.0000
  H   H2280     1.0  0.46213  0.89504  0.26199  1.0000
  H   H2281     1.0  0.44108  0.91270  0.26723  1.0000
  H   H2282     1.0  0.45070  0.92345  0.29212  1.0000
  H   H2283     1.0  0.34826  0.86165  0.86191  1.0000
  C   C1311     1.0  0.43767  0.95242  0.84381  1.0000
  C   C1312     1.0  0.43890  0.94276  0.85253  1.0000
  C   C1313     1.0  0.43128  0.93488  0.85718  1.0000
  C   C1314     1.0  0.42241  0.93660  0.85261  1.0000
  C   C1315     1.0  0.42129  0.94628  0.84291  1.0000
  C   C1316     1.0  0.42881  0.95412  0.83911  1.0000
  H   H2284     1.0  0.44559  0.94131  0.85763  1.0000
  H   H2285     1.0  0.43217  0.92744  0.86527  1.0000
  H   H2286     1.0  0.41444  0.94769  0.83961  1.0000
  H   H2287     1.0  0.42763  0.96146  0.83369  1.0000
  C   C1317     1.0  0.48388  0.84019  0.61213  1.0000
  H   H2288     1.0  0.43092  0.95357  0.00863  1.0000
  C   C1318     1.0  0.44304  0.94743  0.34893  1.0000
  C   C1319     1.0  0.43994  0.93714  0.35927  1.0000
  C   C1320     1.0  0.43572  0.93275  0.33511  1.0000
  C   C1321     1.0  0.43433  0.93857  0.30020  1.0000
  C   C1322     1.0  0.43740  0.94889  0.28988  1.0000
  C   C1323     1.0  0.44173  0.95328  0.31381  1.0000
  H   H2289     1.0  0.44069  0.93252  0.38662  1.0000
  H   H2290     1.0  0.43346  0.92485  0.34374  1.0000
  H   H2291     1.0  0.43638  0.95355  0.26315  1.0000
  H   H2292     1.0  0.44400  0.96119  0.30518  1.0000
  H   H2293     1.0  0.47173  0.93598  0.21237  1.0000
  H   H2294     1.0  0.47908  0.96354  0.31032  1.0000
  H   H2295     1.0  0.49630  0.90435  0.75166  1.0000
  H   H2296     1.0  0.39378  0.89609  0.17032  1.0000
  C   C1324     1.0  0.42834  0.97460  0.90425  1.0000
  H   H2297     1.0  0.36970  0.89309  0.76458  1.0000
  C   C1325     1.0  0.36135  0.86207  0.32545  1.0000
  Fe  Fe156     1.0  0.45448  0.84598  0.39083  1.0000
  Fe  Fe157     1.0  0.46725  0.99677  0.77343  1.0000
  C   C1326     1.0  0.49515  0.97573  0.43125  1.0000
  H   H2298     1.0  0.48921  0.84245  0.42860  1.0000
  C   C1327     1.0  0.47704  0.95643  0.30538  1.0000
  C   C1328     1.0  0.45096  0.93920  0.15580  1.0000
  H   H2299     1.0  0.43704  0.94196  0.15169  1.0000
  H   H2300     1.0  0.48424  0.94551  0.79612  1.0000
  H   H2301     1.0  0.44566  0.93870  0.65991  1.0000
  C   C1329     1.0  0.48064  0.94577  0.85846  1.0000
  H   H2302     1.0  0.46116  0.94425  0.44762  1.0000
  H   H2303     1.0  0.43473  0.94297  0.66879  1.0000
  H   H2304     1.0  0.48722  0.84751  0.61276  1.0000
  C   C1330     1.0  0.43977  0.99749  0.44313  1.0000
  H   H2305     1.0  0.47526  0.93486  0.83362  1.0000
  C   C1331     1.0  0.37466  0.88828  0.77112  1.0000
  H   H2306     1.0  0.49695  0.99485  0.30709  1.0000
  H   H2307     1.0  0.35462  0.85558  0.45757  1.0000
  C   C1332     1.0  0.46137  0.92948  0.39520  1.0000
  H   H2308     1.0  0.49076  0.89526  0.20353  1.0000
  H   H2309     1.0  0.48766  0.99080  0.63228  1.0000
  H   H2310     1.0  0.47273  0.92147  0.20311  1.0000
  H   H2311     1.0  0.45977  0.92417  0.17263  1.0000
  C   C1333     1.0  0.35767  0.86727  0.89256  1.0000
  N   N70       1.0  0.48984  0.87722  0.17912  1.0000
  C   C1334     1.0  0.47423  0.92258  0.17029  1.0000
  C   C1335     1.0  0.47262  0.91247  0.16488  1.0000
  C   C1336     1.0  0.47662  0.95785  0.91587  1.0000
  H   H2312     1.0  0.48404  0.94230  0.15106  1.0000
  H   H2313     1.0  0.46818  0.92845  0.12252  1.0000
  H   H2314     1.0  0.34566  0.87353  0.81103  1.0000
  H   H2315     1.0  0.48207  0.92634  0.15444  1.0000
  H   H2316     1.0  0.35498  0.88366  0.77551  1.0000
  H   H2317     1.0  0.47702  0.90806  0.17962  1.0000
  C   C1337     1.0  0.39347  0.87568  0.21538  1.0000
  C   C1338     1.0  0.44915  0.98390  0.62089  1.0000
  H   H2318     1.0  0.35589  0.88953  0.83775  1.0000
  H   H2319     1.0  0.47550  0.92635  0.37884  1.0000
  H   H2320     1.0  0.42100  0.97616  0.91323  1.0000
  H   H2321     1.0  0.49048  0.99588  0.75533  1.0000
  H   H2322     1.0  0.49122  0.95940  0.82064  1.0000
  H   H2323     1.0  0.47708  0.84530  0.89617  1.0000
  C   C1339     1.0  0.34305  0.89123  0.82163  1.0000
  H   H2324     1.0  0.47529  0.93197  0.46983  1.0000
  C   C1340     1.0  0.40639  0.86097  0.40754  1.0000
  H   H2325     1.0  0.44405  0.86581  0.34430  1.0000
  H   H2326     1.0  0.44479  0.84757  0.90253  1.0000
  H   H2327     1.0  0.48040  0.95742  0.27268  1.0000
  C   C1341     1.0  0.36952  0.87968  0.81157  1.0000
  H   H2328     1.0  0.45284  0.91490  0.43577  1.0000
  H   H2329     1.0  0.47180  0.94629  0.81825  1.0000
  Fe  Fe158     1.0  0.46578  0.98825  0.37483  1.0000
  H   H2330     1.0  0.43306  0.97215  0.71892  1.0000
  H   H2331     1.0  0.39476  0.84200  0.74217  1.0000
  H   H2332     1.0  0.36555  0.86860  0.88988  1.0000
  H   H2333     1.0  0.45198  0.84498  0.52546  1.0000
  H   H2334     1.0  0.48424  0.85932  0.44355  1.0000
  C   C1342     1.0  0.36265  0.86846  0.78106  1.0000
  C   C1343     1.0  0.44301  0.94899  0.58853  1.0000
  H   H2335     1.0  0.44660  0.95424  0.55715  1.0000
  H   H2336     1.0  0.49251  0.87570  0.36759  1.0000
  C   C1344     1.0  0.37199  0.84756  0.50085  1.0000
  H   H2337     1.0  0.36692  0.84381  0.53236  1.0000
  H   H2338     1.0  0.44451  0.96397  0.67014  1.0000
  H   H2339     1.0  0.47893  0.85037  0.82165  1.0000
  H   H2340     1.0  0.46125  0.96403  0.95951  1.0000
  C   C1345     1.0  0.42357  0.84429  0.54648  1.0000
  N   N71       1.0  0.44764  0.90417  0.06166  1.0000
  C   C1346     1.0  0.45655  0.90017  0.04970  1.0000
  C   C1347     1.0  0.44188  0.90352  0.03295  1.0000
  C   C1348     1.0  0.45124  0.91498  0.05520  1.0000
  C   C1349     1.0  0.44130  0.89904  0.10551  1.0000
  C   C1350     1.0  0.44081  0.88794  0.12383  1.0000
  C   C1351     1.0  0.46403  0.90160  0.07257  1.0000
  C   C1352     1.0  0.44324  0.92053  0.06750  1.0000
  C   C1353     1.0  0.43737  0.89313  0.03347  1.0000
  C   C1354     1.0  0.43316  0.89377  0.99866  1.0000
  C   C1355     1.0  0.43313  0.88342  0.16604  1.0000
  C   C1356     1.0  0.47001  0.89383  0.07432  1.0000
  C   C1357     1.0  0.44786  0.93129  0.06004  1.0000
  H   H2341     1.0  0.46062  0.90372  0.01650  1.0000
  H   H2342     1.0  0.45442  0.89225  0.05356  1.0000
  H   H2343     1.0  0.43553  0.90685  0.03952  1.0000
  H   H2344     1.0  0.44656  0.90785  0.00106  1.0000
  H   H2345     1.0  0.45575  0.91892  0.02272  1.0000
  H   H2346     1.0  0.45616  0.91603  0.07321  1.0000
  H   H2347     1.0  0.44385  0.90263  0.12585  1.0000
  H   H2348     1.0  0.43367  0.89992  0.10957  1.0000
  H   H2349     1.0  0.44793  0.88693  0.12740  1.0000
  H   H2350     1.0  0.43905  0.88364  0.10461  1.0000
  H   H2351     1.0  0.46925  0.90894  0.05650  1.0000
  H   H2352     1.0  0.46038  0.90131  0.10421  1.0000
  H   H2353     1.0  0.43893  0.91720  0.10028  1.0000
  H   H2354     1.0  0.43811  0.92050  0.04986  1.0000
  H   H2355     1.0  0.44281  0.88863  0.02998  1.0000
  H   H2356     1.0  0.43122  0.88930  0.06222  1.0000
  H   H2357     1.0  0.42931  0.88632  0.00113  1.0000
  H   H2358     1.0  0.42783  0.89845  0.99962  1.0000
  H   H2359     1.0  0.43909  0.89691  0.96889  1.0000
  H   H2360     1.0  0.43492  0.88722  0.18703  1.0000
  H   H2361     1.0  0.42573  0.88395  0.16447  1.0000
  H   H2362     1.0  0.43301  0.87554  0.17861  1.0000
  H   H2363     1.0  0.47544  0.89534  0.08971  1.0000
  H   H2364     1.0  0.46519  0.88637  0.09167  1.0000
  H   H2365     1.0  0.47405  0.89404  0.04319  1.0000
  H   H2366     1.0  0.45197  0.93507  0.02722  1.0000
  H   H2367     1.0  0.44199  0.93503  0.06962  1.0000
  H   H2368     1.0  0.45290  0.93185  0.07794  1.0000
  H   H2369     1.0  0.36478  0.87410  0.75056  1.0000
  H   H2370     1.0  0.36004  0.86188  0.71743  1.0000
  C   C1358     1.0  0.48377  0.94444  0.08960  1.0000
  C   C1359     1.0  0.46047  0.84828  0.95784  1.0000
  C   C1360     1.0  0.47823  0.87413  0.45981  1.0000
  H   H2371     1.0  0.45730  0.94954  0.71828  1.0000
  H   H2372     1.0  0.34413  0.85728  0.93693  1.0000
  H   H2373     1.0  0.42956  0.97276  0.87563  1.0000
  H   H2374     1.0  0.38777  0.84911  0.44310  1.0000
  H   H2375     1.0  0.40944  0.86791  0.22074  1.0000
  C   C1361     1.0  0.49782  0.91548  0.05676  1.0000
  H   H2376     1.0  0.44607  0.95279  0.14423  1.0000
  H   H2377     1.0  0.49883  0.99015  0.35572  1.0000
  H   H2378     1.0  0.45524  0.95359  0.60660  1.0000
  C   C1362     1.0  0.44495  0.94574  0.13766  1.0000
  C   C1363     1.0  0.44283  0.94530  0.66163  1.0000
  C   C1364     1.0  0.46056  0.98017  0.55307  1.0000
  C   C1365     1.0  0.49375  0.95653  0.89294  1.0000
  H   H2379     1.0  0.40501  0.86804  0.39171  1.0000
  H   H2380     1.0  0.46965  0.92258  0.43197  1.0000
  H   H2381     1.0  0.35981  0.85867  0.85324  1.0000
  C   C1366     1.0  0.45053  0.97927  0.55956  1.0000
  H   H2382     1.0  0.45486  0.84977  0.98181  1.0000
  S   S323      1.0  0.44990  0.97966  0.40468  1.0000
  C   C1367     1.0  0.38374  0.89465  0.77314  1.0000
  C   C1368     1.0  0.35441  0.86015  0.78210  1.0000
  C   C1369     1.0  0.43932  0.97093  0.73000  1.0000
  C   C1370     1.0  0.38240  0.86042  0.51543  1.0000
  H   H2383     1.0  0.47932  0.94682  0.07002  1.0000
  H   H2384     1.0  0.38278  0.87157  0.56730  1.0000
  H   H2385     1.0  0.45939  0.94597  0.67414  1.0000
  H   H2386     1.0  0.39206  0.84682  0.53280  1.0000
  C   C1371     1.0  0.49655  0.89119  0.20471  1.0000
  C   C1372     1.0  0.49314  0.98665  0.63901  1.0000
  H   H2387     1.0  0.38774  0.86148  0.43868  1.0000
  C   C1373     1.0  0.46613  0.93851  0.19919  1.0000
  H   H2388     1.0  0.43502  0.94851  0.59675  1.0000
  H   H2389     1.0  0.48877  0.95080  0.32067  1.0000
  C   C1374     1.0  0.37509  0.85869  0.55832  1.0000
  H   H2390     1.0  0.40206  0.86300  0.46584  1.0000
  H   H2391     1.0  0.35215  0.84611  0.50523  1.0000
  Fe  Fe159     1.0  0.37182  0.83727  0.77804  1.0000
  H   H2392     1.0  0.49386  0.86556  0.08238  1.0000
  C   C1375     1.0  0.38501  0.84378  0.52912  1.0000
  C   C1376     1.0  0.45644  0.84272  0.61560  1.0000
  H   H2393     1.0  0.47976  0.95260  0.13084  1.0000
  C   C1377     1.0  0.38910  0.85479  0.45779  1.0000
  H   H2394     1.0  0.37211  0.84174  0.48622  1.0000
  C   C1378     1.0  0.45925  0.98520  0.61353  1.0000
  S   S324      1.0  0.49344  0.89450  0.85900  1.0000
  C   C1379     1.0  0.44235  0.93037  0.73687  1.0000
  C   C1380     1.0  0.47287  0.96270  0.65497  1.0000
  H   H2395     1.0  0.48577  0.92210  0.42930  1.0000
  H   H2396     1.0  0.34074  0.89527  0.84326  1.0000
  C   C1381     1.0  0.42312  0.94996  0.01469  1.0000
  H   H2397     1.0  0.38912  0.89023  0.77824  1.0000
  C   C1382     1.0  0.34949  0.88467  0.83613  1.0000
  C   C1383     1.0  0.44719  0.95269  0.61786  1.0000
  H   H2398     1.0  0.49907  0.89175  0.14288  1.0000
  H   H2399     1.0  0.47275  0.98443  0.57302  1.0000
  H   H2400     1.0  0.49612  0.91370  0.15500  1.0000
  H   H2401     1.0  0.47272  0.87165  0.44632  1.0000
  H   H2402     1.0  0.49096  0.94846  0.90802  1.0000
  C   C1384     1.0  0.46213  0.94384  0.13512  1.0000
  C   C1385     1.0  0.47935  0.86552  0.49213  1.0000
  H   H2403     1.0  0.47198  0.95412  0.19050  1.0000
  C   C1386     1.0  0.39515  0.86563  0.21191  1.0000
  N   N72       1.0  0.42199  0.94744  0.97781  1.0000
  S   S325      1.0  0.46919  0.98562  0.43309  1.0000
  H   H2404     1.0  0.46504  0.97883  0.52681  1.0000
  H   H2405     1.0  0.35208  0.85390  0.81090  1.0000
  C   C1387     1.0  0.45592  0.95101  0.68855  1.0000
  H   H2406     1.0  0.44029  0.91612  0.78143  1.0000
  H   H2407     1.0  0.42844  0.96859  0.96507  1.0000
  H   H2408     1.0  0.49195  0.96035  0.94915  1.0000
  H   H2409     1.0  0.47408  0.94275  0.88600  1.0000
  H   H2410     1.0  0.45903  0.95093  0.19814  1.0000
  H   H2411     1.0  0.38729  0.90078  0.74402  1.0000
  S   S326      1.0  0.46067  0.85034  0.64177  1.0000
  H   H2412     1.0  0.46479  0.90847  0.17922  1.0000
  H   H2413     1.0  0.46572  0.85552  0.93942  1.0000
  H   H2414     1.0  0.47860  0.94160  0.32474  1.0000
  C   C1388     1.0  0.40609  0.86591  0.19888  1.0000
  N   N73       1.0  0.43042  0.88037  0.77945  1.0000
  C   C1389     1.0  0.43975  0.88806  0.76857  1.0000
  C   C1390     1.0  0.42211  0.88531  0.77774  1.0000
  C   C1391     1.0  0.42814  0.87397  0.82302  1.0000
  C   C1392     1.0  0.43124  0.87390  0.75280  1.0000
  C   C1393     1.0  0.43775  0.87871  0.70753  1.0000
  C   C1394     1.0  0.44859  0.88408  0.77609  1.0000
  C   C1395     1.0  0.41787  0.86672  0.84322  1.0000
  C   C1396     1.0  0.42306  0.89275  0.73640  1.0000
  C   C1397     1.0  0.41483  0.89815  0.74061  1.0000
  C   C1398     1.0  0.43548  0.87233  0.68208  1.0000
  C   C1399     1.0  0.45811  0.89211  0.75589  1.0000
  C   C1400     1.0  0.41741  0.85867  0.88135  1.0000
  H   H2415     1.0  0.43845  0.89320  0.78639  1.0000
  H   H2416     1.0  0.44212  0.89276  0.73638  1.0000
  H   H2417     1.0  0.41514  0.87976  0.78592  1.0000
  H   H2418     1.0  0.42092  0.88909  0.80099  1.0000
  H   H2419     1.0  0.42879  0.87860  0.84278  1.0000
  H   H2420     1.0  0.43363  0.86948  0.82516  1.0000
  H   H2421     1.0  0.43436  0.86769  0.76494  1.0000
  H   H2422     1.0  0.42381  0.87035  0.75387  1.0000
  H   H2423     1.0  0.44560  0.87953  0.70504  1.0000
  H   H2424     1.0  0.43685  0.88609  0.69346  1.0000
  H   H2425     1.0  0.44751  0.88143  0.80920  1.0000
  H   H2426     1.0  0.44947  0.87785  0.76435  1.0000
  H   H2427     1.0  0.41580  0.86316  0.82215  1.0000
  H   H2428     1.0  0.41227  0.87076  0.85260  1.0000
  H   H2429     1.0  0.43006  0.89843  0.72365  1.0000
  H   H2430     1.0  0.42238  0.88879  0.71459  1.0000
  H   H2431     1.0  0.41507  0.90234  0.76204  1.0000
  H   H2432     1.0  0.41564  0.90339  0.71055  1.0000
  H   H2433     1.0  0.40758  0.89286  0.75185  1.0000
  H   H2434     1.0  0.43620  0.86474  0.69512  1.0000
  H   H2435     1.0  0.42790  0.87194  0.68109  1.0000
  H   H2436     1.0  0.44067  0.87552  0.65054  1.0000
  H   H2437     1.0  0.45767  0.89817  0.76910  1.0000
  H   H2438     1.0  0.46431  0.88901  0.76125  1.0000
  H   H2439     1.0  0.45962  0.89504  0.72256  1.0000
  H   H2440     1.0  0.46960  0.87407  0.23196  1.0000
  H   H2441     1.0  0.45864  0.93126  0.47420  1.0000
  H   H2442     1.0  0.45661  0.95137  0.96337  1.0000
  H   H2443     1.0  0.44856  0.91991  0.39398  1.0000
  C   C1401     1.0  0.44745  0.84913  0.92689  1.0000
  H   H2444     1.0  0.49116  0.99210  0.84054  1.0000
  C   C1402     1.0  0.44987  0.86048  0.91725  1.0000
  H   H2445     1.0  0.42179  0.95545  0.91805  1.0000
  C   C1403     1.0  0.44235  0.86503  0.90130  1.0000
  C   C1404     1.0  0.35794  0.85606  0.74740  1.0000
  H   H2446     1.0  0.45972  0.96688  0.67934  1.0000
  C   C1405     1.0  0.37712  0.86904  0.26537  1.0000
  C   C1406     1.0  0.49555  0.99537  0.33815  1.0000
  H   H2447     1.0  0.43085  0.84766  0.54719  1.0000
  H   H2448     1.0  0.37592  0.88883  0.22349  1.0000
  C   C1407     1.0  0.43987  0.94047  0.73477  1.0000
  H   H2449     1.0  0.44473  0.98574  0.64582  1.0000
  H   H2450     1.0  0.46879  0.94478  0.26309  1.0000
  H   H2451     1.0  0.46189  0.95407  0.25763  1.0000
  H   H2452     1.0  0.44417  0.87309  0.89560  1.0000
  H   H2453     1.0  0.44247  0.86379  0.87213  1.0000
  H   H2454     1.0  0.43488  0.86181  0.92377  1.0000
  N   N74       1.0  0.44530  0.88621  0.40581  1.0000
  C   C1408     1.0  0.43625  0.89012  0.41613  1.0000
  C   C1409     1.0  0.44445  0.87811  0.44388  1.0000
  C   C1410     1.0  0.45403  0.89457  0.39580  1.0000
  C   C1411     1.0  0.44596  0.88263  0.36987  1.0000
  C   C1412     1.0  0.43543  0.89879  0.38213  1.0000
  C   C1413     1.0  0.46401  0.89195  0.39291  1.0000
  C   C1414     1.0  0.45031  0.87023  0.43861  1.0000
  C   C1415     1.0  0.45179  0.86495  0.47849  1.0000
  C   C1416     1.0  0.42587  0.90183  0.39671  1.0000
  C   C1417     1.0  0.47228  0.90109  0.38075  1.0000
  H   H2455     1.0  0.43578  0.89261  0.44312  1.0000
  H   H2456     1.0  0.42948  0.88416  0.42603  1.0000
  H   H2457     1.0  0.44639  0.88143  0.46610  1.0000
  H   H2458     1.0  0.43670  0.87383  0.46003  1.0000
  H   H2459     1.0  0.45269  0.89834  0.41912  1.0000
  H   H2460     1.0  0.45509  0.90017  0.36619  1.0000
  H   H2461     1.0  0.44749  0.88890  0.34179  1.0000
  H   H2462     1.0  0.45237  0.87939  0.36294  1.0000
  H   H2463     1.0  0.43075  0.87894  0.37056  1.0000
  H   H2464     1.0  0.44151  0.90535  0.37339  1.0000
  H   H2465     1.0  0.43549  0.89674  0.35462  1.0000
  H   H2466     1.0  0.46587  0.88825  0.36980  1.0000
  H   H2467     1.0  0.46385  0.88718  0.42284  1.0000
  H   H2468     1.0  0.44624  0.86474  0.42898  1.0000
  H   H2469     1.0  0.45760  0.87315  0.41516  1.0000
  H   H2470     1.0  0.45651  0.85983  0.47316  1.0000
  H   H2471     1.0  0.45549  0.87027  0.49008  1.0000
  H   H2472     1.0  0.44464  0.86072  0.50180  1.0000
  H   H2473     1.0  0.42544  0.90810  0.37231  1.0000
  H   H2474     1.0  0.41945  0.89566  0.40427  1.0000
  H   H2475     1.0  0.42554  0.90419  0.42377  1.0000
  H   H2476     1.0  0.47290  0.90629  0.35097  1.0000
  H   H2477     1.0  0.47101  0.90486  0.40398  1.0000
  H   H2478     1.0  0.47934  0.89892  0.37795  1.0000
  H   H2479     1.0  0.37110  0.87639  0.20004  1.0000
  H   H2480     1.0  0.43705  0.98023  0.59951  1.0000
  Fe  Fe160     1.0  0.45517  0.96633  0.39446  1.0000
  H   H2481     1.0  0.41916  0.86197  0.90379  1.0000
  C   C1418     1.0  0.47667  0.84255  0.84126  1.0000
  H   H2482     1.0  0.41140  0.93917  0.06731  1.0000
  C   C1419     1.0  0.44067  0.95741  0.69732  1.0000
  H   H2483     1.0  0.34791  0.86290  0.77869  1.0000
  C   C1420     1.0  0.43668  0.87515  0.37382  1.0000
  Fe  Fe161     1.0  0.45802  0.85477  0.78164  1.0000
  H   H2484     1.0  0.40232  0.83721  0.85934  1.0000
  Fe  Fe162     1.0  0.43792  0.84667  0.77524  1.0000
  C   C1421     1.0  0.47358  0.87994  0.31165  1.0000
  H   H2485     1.0  0.48551  0.98386  0.45687  1.0000
  H   H2486     1.0  0.38177  0.88654  0.26113  1.0000
  H   H2487     1.0  0.43176  0.93926  0.74248  1.0000
  C   C1422     1.0  0.47231  0.87062  0.33934  1.0000
  H   H2488     1.0  0.48535  0.87768  0.43515  1.0000
  C   C1423     1.0  0.46189  0.96169  0.66305  1.0000
  C   C1424     1.0  0.45484  0.84710  0.57879  1.0000
  H   H2489     1.0  0.43391  0.86926  0.40377  1.0000
  S   S327      1.0  0.44437  0.84345  0.82533  1.0000
  H   H2490     1.0  0.47494  0.91321  0.13207  1.0000
  H   H2491     1.0  0.40468  0.85551  0.39245  1.0000
  H   H2492     1.0  0.48446  0.93692  0.09008  1.0000
  H   H2493     1.0  0.37161  0.87889  0.12756  1.0000
  H   H2494     1.0  0.39827  0.88132  0.18649  1.0000
  H   H2495     1.0  0.48521  0.85352  0.28551  1.0000
  C   C1425     1.0  0.46350  0.93856  0.46760  1.0000
  H   H2496     1.0  0.41227  0.93304  0.01340  1.0000
  C   C1426     1.0  0.46490  0.98325  0.57959  1.0000
  H   H2497     1.0  0.43800  0.97231  0.75955  1.0000
  C   C1427     1.0  0.38257  0.88675  0.22922  1.0000
  S   S328      1.0  0.44599  0.96166  0.84976  1.0000
  H   H2498     1.0  0.44557  0.95995  0.61610  1.0000
  H   H2499     1.0  0.33637  0.88673  0.82010  1.0000
  H   H2500     1.0  0.46371  0.93467  0.53011  1.0000
  Fe  Fe163     1.0  0.45388  0.97625  0.46265  1.0000
  H   H2501     1.0  0.47911  0.94503  0.44939  1.0000
  S   S329      1.0  0.46574  0.97279  0.74180  1.0000
  C   C1428     1.0  0.47427  0.93846  0.44829  1.0000
  H   H2502     1.0  0.40993  0.87132  0.16806  1.0000
  H   H2503     1.0  0.37703  0.85356  0.58223  1.0000
  H   H2504     1.0  0.48997  0.98157  0.67077  1.0000
  H   H2505     1.0  0.46359  0.95179  0.13210  1.0000
  H   H2506     1.0  0.36533  0.87660  0.28267  1.0000
  Fe  Fe164     1.0  0.45601  0.84659  0.71109  1.0000
  H   H2507     1.0  0.46670  0.94776  0.50360  1.0000
  H   H2508     1.0  0.44099  0.84605  0.95520  1.0000
  C   C1429     1.0  0.48064  0.94854  0.33106  1.0000
  H   H2509     1.0  0.46838  0.88113  0.29554  1.0000
  H   H2510     1.0  0.43297  0.95583  0.69704  1.0000
  H   H2511     1.0  0.42297  0.84786  0.51619  1.0000
  C   C1430     1.0  0.43868  0.87033  0.34068  1.0000
  H   H2512     1.0  0.36916  0.86536  0.78167  1.0000
  C   C1431     1.0  0.44482  0.98092  0.59417  1.0000
  H   H2513     1.0  0.44156  0.87600  0.31005  1.0000
  H   H2514     1.0  0.41428  0.86215  0.40459  1.0000
  C   C1432     1.0  0.37854  0.87494  0.19360  1.0000
  H   H2515     1.0  0.43757  0.95007  0.94756  1.0000
  C   C1433     1.0  0.46288  0.84655  0.88924  1.0000
  Fe  Fe165     1.0  0.45615  0.97497  0.79719  1.0000
  Fe  Fe166     1.0  0.47793  0.98145  0.75385  1.0000
  H   H2516     1.0  0.47997  0.97829  0.90050  1.0000
  H   H2517     1.0  0.39951  0.92625  0.94508  1.0000
  S   S330      1.0  0.46266  0.86100  0.34355  1.0000
  H   H2518     1.0  0.39598  0.91134  0.18726  1.0000
  H   H2519     1.0  0.36434  0.85300  0.74997  1.0000
  C   C1434     1.0  0.46198  0.94053  0.50810  1.0000
  H   H2520     1.0  0.40425  0.83758  0.40969  1.0000
  C   C1435     1.0  0.49790  0.88598  0.17214  1.0000
  N   N75       1.0  0.47722  0.93794  0.40561  1.0000
  C   C1436     1.0  0.48222  0.84778  0.54281  1.0000
  H   H2521     1.0  0.38059  0.86977  0.28865  1.0000
  H   H2522     1.0  0.45716  0.86407  0.89434  1.0000
  H   H2523     1.0  0.34508  0.87962  0.86703  1.0000
  C   C1437     1.0  0.48791  0.93766  0.39375  1.0000
  C   C1438     1.0  0.48090  0.88033  0.17140  1.0000
  H   H2524     1.0  0.43178  0.86543  0.34301  1.0000
  H   H2525     1.0  0.43674  0.96514  0.92768  1.0000
  H   H2526     1.0  0.49139  0.90380  0.11386  1.0000
  H   H2527     1.0  0.37928  0.87031  0.12226  1.0000
  H   H2528     1.0  0.40061  0.92219  0.99502  1.0000
  H   H2529     1.0  0.47904  0.96057  0.83388  1.0000
  C   C1439     1.0  0.45314  0.84154  0.55363  1.0000
  C   C1440     1.0  0.44038  0.96042  0.73560  1.0000
  H   H2530     1.0  0.37306  0.87362  0.54596  1.0000
  H   H2531     1.0  0.46870  0.94785  0.38343  1.0000
  H   H2532     1.0  0.43394  0.95545  0.76110  1.0000
  H   H2533     1.0  0.39217  0.86367  0.18909  1.0000
  H   H2534     1.0  0.44987  0.86236  0.94511  1.0000
  H   H2535     1.0  0.47484  0.94981  0.93229  1.0000
  H   H2536     1.0  0.45280  0.96124  0.93359  1.0000
  S   S331      1.0  0.46868  0.98252  0.81199  1.0000
  S   S332      1.0  0.44518  0.84429  0.45401  1.0000
  H   H2537     1.0  0.38428  0.88904  0.14408  1.0000
  C   C1441     1.0  0.45517  0.91928  0.40305  1.0000
  H   H2538     1.0  0.43022  0.94332  0.92822  1.0000
  H   H2539     1.0  0.49455  0.98232  0.61793  1.0000
  H   H2540     1.0  0.48648  0.94207  0.86406  1.0000
  C   C1442     1.0  0.40070  0.92873  0.97034  1.0000
  H   H2541     1.0  0.46274  0.93384  0.36305  1.0000
  H   H2542     1.0  0.41405  0.95827  0.95856  1.0000
  C   C1443     1.0  0.47784  0.94298  0.82436  1.0000
  H   H2543     1.0  0.46894  0.95425  0.31365  1.0000
  H   H2544     1.0  0.39461  0.93203  0.98179  1.0000
  S   S333      1.0  0.35743  0.83707  0.66323  1.0000
  C   C1444     1.0  0.40242  0.84214  0.73664  1.0000
  H   H2545     1.0  0.47690  0.87490  0.16097  1.0000
  H   H2546     1.0  0.37206  0.85952  0.44810  1.0000
  H   H2547     1.0  0.43087  0.94694  0.07913  1.0000
  C   C1445     1.0  0.49403  0.95126  0.06924  1.0000
  H   H2548     1.0  0.46735  0.89211  0.17067  1.0000
  H   H2549     1.0  0.48598  0.97485  0.83825  1.0000
  C   C1446     1.0  0.49195  0.85936  0.27745  1.0000
  H   H2550     1.0  0.49261  0.94480  0.39089  1.0000
  S   S334      1.0  0.45373  0.98938  0.76261  1.0000
  H   H2551     1.0  0.35521  0.87388  0.89609  1.0000
  H   H2552     1.0  0.43586  0.93645  0.00527  1.0000
  H   H2553     1.0  0.47589  0.87971  0.47358  1.0000
  C   C1447     1.0  0.38938  0.90527  0.20588  1.0000
  H   H2554     1.0  0.49430  0.84141  0.55558  1.0000
  H   H2555     1.0  0.44617  0.97622  0.70822  1.0000
  H   H2556     1.0  0.47451  0.96060  0.68402  1.0000
  C   C1448     1.0  0.36713  0.85512  0.47899  1.0000
  H   H2557     1.0  0.46072  0.96416  0.63341  1.0000
  H   H2558     1.0  0.41774  0.84561  0.57007  1.0000
  C   C1449     1.0  0.43077  0.94425  0.95710  1.0000
  C   C1450     1.0  0.37926  0.87807  0.12019  1.0000
  S   S335      1.0  0.47077  0.97521  0.36102  1.0000
  H   H2559     1.0  0.40623  0.94254  0.00325  1.0000
  H   H2560     1.0  0.42615  0.92876  0.99680  1.0000
  H   H2561     1.0  0.42006  0.93852  0.11753  1.0000
  H   H2562     1.0  0.44224  0.92484  0.97379  1.0000
  H   H2563     1.0  0.43117  0.92272  0.79603  1.0000
  C   C1451     1.0  0.42131  0.95661  0.94768  1.0000
  C   C1452     1.0  0.36618  0.86920  0.28209  1.0000
  H   H2564     1.0  0.37702  0.86149  0.26399  1.0000
  C   C1453     1.0  0.35621  0.86485  0.85482  1.0000
  N   N76       1.0  0.38213  0.85163  0.50082  1.0000
  C   C1454     1.0  0.46278  0.94704  0.25239  1.0000
  H   H2565     1.0  0.37490  0.87523  0.81659  1.0000
  H   H2566     1.0  0.35201  0.85005  0.74894  1.0000
  H   H2567     1.0  0.37716  0.88549  0.74532  1.0000
  H   H2568     1.0  0.47683  0.97048  0.63759  1.0000
  H   H2569     1.0  0.38981  0.86312  0.51675  1.0000
  C   C1455     1.0  0.41257  0.93977  0.98948  1.0000
  C   C1456     1.0  0.41054  0.93626  0.95482  1.0000
  C   C1457     1.0  0.41954  0.94147  0.05604  1.0000
  C   C1458     1.0  0.42276  0.94473  0.08841  1.0000
  C   C1459     1.0  0.48034  0.85656  0.47697  1.0000
  H   H2570     1.0  0.45890  0.88507  0.22062  1.0000
  C   C1460     1.0  0.40019  0.85723  0.45253  1.0000
  H   H2571     1.0  0.42263  0.85414  0.87343  1.0000
  H   H2572     1.0  0.44853  0.93797  0.18896  1.0000
  H   H2573     1.0  0.43721  0.92870  0.93356  1.0000
  H   H2574     1.0  0.40709  0.85854  0.19811  1.0000
  H   H2575     1.0  0.39790  0.89461  0.21357  1.0000
  H   H2576     1.0  0.49023  0.93081  0.45179  1.0000
  N   N77       1.0  0.48506  0.84909  0.49790  1.0000
  H   H2577     1.0  0.35337  0.86166  0.33543  1.0000
  H   H2578     1.0  0.46487  0.95526  0.88963  1.0000
  H   H2579     1.0  0.46724  0.85065  0.02057  1.0000
  H   H2580     1.0  0.36836  0.88302  0.83617  1.0000
  C   C1461     1.0  0.37532  0.86829  0.56806  1.0000
  C   C1462     1.0  0.46580  0.84169  0.98173  1.0000
  C   C1463     1.0  0.43282  0.93484  0.98205  1.0000
  H   H2581     1.0  0.42229  0.93491  0.05391  1.0000
  H   H2582     1.0  0.44339  0.92645  0.79794  1.0000
  H   H2583     1.0  0.45514  0.85488  0.56932  1.0000
  H   H2584     1.0  0.47598  0.88660  0.22072  1.0000
  C   C1464     1.0  0.47295  0.88130  0.20757  1.0000
  H   H2585     1.0  0.48548  0.90610  0.78434  1.0000
  H   H2586     1.0  0.48099  0.86355  0.22503  1.0000
  H   H2587     1.0  0.36206  0.86687  0.26307  1.0000
  H   H2588     1.0  0.40990  0.85380  0.89537  1.0000
  H   H2589     1.0  0.45688  0.93308  0.41397  1.0000
  H   H2590     1.0  0.44436  0.94167  0.58885  1.0000
  H   H2591     1.0  0.34717  0.89670  0.79116  1.0000
  H   H2592     1.0  0.36744  0.85559  0.56091  1.0000
  C   C1465     1.0  0.49764  0.99493  0.75521  1.0000
  C   C1466     1.0  0.46749  0.96027  0.90506  1.0000
  C   C1467     1.0  0.45903  0.95912  0.94295  1.0000
  S   S336      1.0  0.44490  0.97646  0.52472  1.0000
  S   S337      1.0  0.46530  0.99131  0.64005  1.0000
  C   C1468     1.0  0.35768  0.85003  0.47484  1.0000
  C   C1469     1.0  0.44035  0.93119  0.95501  1.0000
  H   H2593     1.0  0.41027  0.94245  0.92968  1.0000
  H   H2594     1.0  0.41624  0.93263  0.94252  1.0000
  C   C1470     1.0  0.43908  0.92351  0.78076  1.0000
  C   C1471     1.0  0.46462  0.88472  0.19406  1.0000
  C   C1472     1.0  0.46737  0.92852  0.15399  1.0000
  H   H2595     1.0  0.46117  0.87946  0.18153  1.0000
  N   N78       1.0  0.38304  0.87672  0.22487  1.0000
  N   N79       1.0  0.45569  0.84420  0.93132  1.0000
  H   H2596     1.0  0.36528  0.86024  0.49616  1.0000
  H   H2597     1.0  0.41969  0.95098  0.09360  1.0000
  H   H2598     1.0  0.44160  0.94246  0.76030  1.0000
  H   H2599     1.0  0.45033  0.93119  0.72348  1.0000
  N   N80       1.0  0.44503  0.94874  0.69496  1.0000
  N   N81       1.0  0.36016  0.87305  0.81433  1.0000
  H   H2600     1.0  0.38818  0.83797  0.83564  1.0000
  H   H2601     1.0  0.38118  0.86670  0.49324  1.0000
  H   H2602     1.0  0.49032  0.93677  0.36322  1.0000
  H   H2603     1.0  0.39175  0.88028  0.13946  1.0000
  C   C1473     1.0  0.49608  0.87824  0.10320  1.0000
  C   C1474     1.0  0.48785  0.97834  0.88965  1.0000
  H   H2604     1.0  0.49746  0.86050  0.21479  1.0000
  H   H2605     1.0  0.49729  0.95065  0.03870  1.0000
  H   H2606     1.0  0.43007  0.84348  0.71550  1.0000
  H   H2607     1.0  0.49780  0.85584  0.28433  1.0000
  C   C1475     1.0  0.41742  0.83919  0.69881  1.0000
  C   C1476     1.0  0.48699  0.86983  0.22115  1.0000
  C   C1477     1.0  0.48168  0.83926  0.45033  1.0000
  C   C1478     1.0  0.43274  0.83580  0.29941  1.0000
  H   H2608     1.0  0.43369  0.83980  0.26725  1.0000
  C   C1479     1.0  0.47157  0.84158  0.88553  1.0000
  H   H2609     1.0  0.48350  0.99902  0.50298  1.0000
  Fe  Fe167     1.0  0.43297  0.83609  0.44034  1.0000
  H   H2610     1.0  0.36237  0.85456  0.32718  1.0000
  H   H2611     1.0  0.49373  0.95902  0.06563  1.0000
  C   C1480     1.0  0.49962  0.87230  0.07553  1.0000
  C   C1481     1.0  0.49369  0.87216  0.14873  1.0000
  C   C1482     1.0  0.49203  0.90984  0.75699  1.0000
  H   H2612     1.0  0.47071  0.83847  0.96263  1.0000
  H   H2613     1.0  0.49007  0.97573  0.91678  1.0000
  H   H2614     1.0  0.48948  0.91264  0.73070  1.0000
  H   H2615     1.0  0.35463  0.85192  0.92985  1.0000
  H   H2616     1.0  0.48956  0.88046  0.09690  1.0000
  H   H2617     1.0  0.35360  0.86047  0.95788  1.0000
  H   H2618     1.0  0.46762  0.99785  0.49105  1.0000
  H   H2619     1.0  0.34280  0.83903  0.62616  1.0000
  C   C1483     1.0  0.47193  0.84749  0.00004  1.0000
  H   H2620     1.0  0.38497  0.83734  0.88811  1.0000
  H   H2621     1.0  0.47541  0.84255  0.01793  1.0000
  C   C1484     1.0  0.42233  0.84296  0.72198  1.0000
  S   S338      1.0  0.49699  0.93818  0.23499  1.0000
  H   H2622     1.0  0.47267  0.85300  0.48062  1.0000
  S   S339      1.0  0.49495  0.90774  0.02873  1.0000
  H   H2623     1.0  0.43980  0.98999  0.46089  1.0000
  H   H2624     1.0  0.49532  0.87893  0.82392  1.0000
  H   H2625     1.0  0.48750  0.99338  0.35357  1.0000
  H   H2626     1.0  0.39063  0.83610  0.48583  1.0000
  C   C1485     1.0  0.49996  0.98591  0.75644  1.0000
  H   H2627     1.0  0.47329  0.83625  0.51328  1.0000
  H   H2628     1.0  0.49929  0.84570  0.48837  1.0000
  C   C1486     1.0  0.49531  0.86546  0.23242  1.0000
  H   H2629     1.0  0.48834  0.86511  0.15521  1.0000
  H   H2630     1.0  0.49046  0.86416  0.29649  1.0000
  C   C1487     1.0  0.49537  0.91137  0.09911  1.0000
  C   C1488     1.0  0.48623  0.84001  0.56846  1.0000
  H   H2631     1.0  0.47167  0.83829  0.83003  1.0000
  C   C1489     1.0  0.49791  0.96059  0.92208  1.0000
  C   C1490     1.0  0.49803  0.91699  0.12253  1.0000
  H   H2632     1.0  0.49886  0.94918  0.08757  1.0000
  H   H2633     1.0  0.49678  0.96461  0.33266  1.0000
  H   H2634     1.0  0.49894  0.99759  0.44933  1.0000
  C   C1491     1.0  0.49603  0.85192  0.47758  1.0000
  H   H2635     1.0  0.49750  0.97394  0.84319  1.0000
  H   H2636     1.0  0.49203  0.99352  0.88751  1.0000
  C   C1492     1.0  0.49351  0.98903  0.86708  1.0000
  H   H2637     1.0  0.44488  0.99950  0.41163  1.0000
  H   H2638     1.0  0.43225  0.99740  0.44170  1.0000
  H   H2639     1.0  0.47780  0.85354  0.97559  1.0000
  H   H2640     1.0  0.42137  0.83668  0.67514  1.0000
  H   H2641     1.0  0.50006  0.86787  0.46394  1.0000
  H   H2642     1.0  0.49953  0.95667  0.71745  1.0000
  S   S340      1.0  0.49888  0.89581  0.31388  1.0000
  Fe  Fe168     1.0  0.49961  0.91178  0.28034  1.0000
  C   C1493     1.0  0.49799  0.97273  0.32192  1.0000
  H   H2643     1.0  0.49609  0.97507  0.34905  1.0000
  C   C1494     1.0  0.49819  0.91825  0.76421  1.0000
  H   H2644     1.0  0.45155  0.00171  0.54242  1.0000
  H   H2645     1.0  0.50000  0.86097  0.51399  1.0000
  H   H2646     1.0  0.56681  0.03950  0.38302  1.0000
  Fe  Fe169     1.0  0.52780  0.05832  0.25498  1.0000
  S   S341      1.0  0.51835  0.06079  0.30964  1.0000
  S   S342      1.0  0.54018  0.05116  0.25765  1.0000
  Fe  Fe170     1.0  0.51723  0.06761  0.19896  1.0000
  S   S343      1.0  0.50683  0.07102  0.24995  1.0000
  S   S344      1.0  0.52015  0.07130  0.13051  1.0000
  Fe  Fe171     1.0  0.52016  0.07594  0.26766  1.0000
  S   S345      1.0  0.52397  0.09051  0.28128  1.0000
  Fe  Fe172     1.0  0.50603  0.05552  0.28809  1.0000
  H   H2647     1.0  0.51037  0.08669  0.45114  1.0000
  S   S346      1.0  0.53043  0.07365  0.21395  1.0000
  S   S347      1.0  0.51556  0.05207  0.23624  1.0000
  Fe  Fe173     1.0  0.63130  0.15733  0.39167  1.0000
  S   S348      1.0  0.63873  0.15578  0.33140  1.0000
  S   S349      1.0  0.61716  0.16202  0.40545  1.0000
  Fe  Fe174     1.0  0.64508  0.14875  0.43306  1.0000
  S   S350      1.0  0.65341  0.14600  0.37619  1.0000
  S   S351      1.0  0.64765  0.14361  0.49424  1.0000
  Fe  Fe175     1.0  0.65261  0.16135  0.34378  1.0000
  H   H2648     1.0  0.50551  0.08377  0.10145  1.0000
  Fe  Fe176     1.0  0.63884  0.14062  0.36839  1.0000
  S   S352      1.0  0.63273  0.12561  0.36257  1.0000
  S   S353      1.0  0.64502  0.16422  0.40089  1.0000
  S   S354      1.0  0.63080  0.14211  0.42828  1.0000
  Fe  Fe177     1.0  0.55385  0.12284  0.39668  1.0000
  S   S355      1.0  0.56980  0.13068  0.36544  1.0000
  S   S356      1.0  0.54766  0.10879  0.38315  1.0000
  Fe  Fe178     1.0  0.55228  0.13547  0.45482  1.0000
  S   S357      1.0  0.56790  0.14419  0.42586  1.0000
  S   S358      1.0  0.54205  0.13703  0.51152  1.0000
  Fe  Fe179     1.0  0.56538  0.14479  0.36654  1.0000
  Fe  Fe180     1.0  0.57092  0.12950  0.42703  1.0000
  S   S359      1.0  0.58333  0.12460  0.44583  1.0000
  S   S360      1.0  0.54925  0.13709  0.39499  1.0000
  S   S361      1.0  0.55547  0.12067  0.45892  1.0000
  Fe  Fe181     1.0  0.60042  0.06852  0.25852  1.0000
  S   S362      1.0  0.58917  0.07073  0.22761  1.0000
  Fe  Fe182     1.0  0.60681  0.09079  0.24737  1.0000
  S   S363      1.0  0.59547  0.09391  0.21698  1.0000
  S   S364      1.0  0.61554  0.10536  0.24868  1.0000
  Fe  Fe183     1.0  0.58542  0.08038  0.26535  1.0000
  S   S365      1.0  0.56985  0.07976  0.29908  1.0000
  Fe  Fe184     1.0  0.60025  0.08390  0.18179  1.0000
  S   S366      1.0  0.59949  0.08789  0.11740  1.0000
  S   S367      1.0  0.59617  0.07778  0.29865  1.0000
  S   S368      1.0  0.61221  0.08129  0.20914  1.0000
  Fe  Fe185     1.0  0.59905  0.08275  0.86247  1.0000
  S   S369      1.0  0.59255  0.08087  0.92851  1.0000
  S   S370      1.0  0.60411  0.09817  0.81657  1.0000
  H   H2649     1.0  0.55900  0.09576  0.29154  1.0000
  C   C1495     1.0  0.54797  0.07233  0.07809  1.0000
  C   C1496     1.0  0.59920  0.01784  0.21723  1.0000
  Fe  Fe186     1.0  0.57998  0.07016  0.92756  1.0000
  S   S371      1.0  0.56453  0.06978  0.96115  1.0000
  Fe  Fe187     1.0  0.59915  0.06789  0.93969  1.0000
  H   H2650     1.0  0.63557  0.09821  0.06977  1.0000
  S   S372      1.0  0.58572  0.07316  0.86037  1.0000
  H   H2651     1.0  0.54120  0.03906  0.17055  1.0000
  H   H2652     1.0  0.50276  0.07149  0.38731  1.0000
  H   H2653     1.0  0.59535  0.16129  0.37698  1.0000
  H   H2654     1.0  0.67038  0.15275  0.45579  1.0000
  Fe  Fe188     1.0  0.64475  0.14570  0.75864  1.0000
  S   S373      1.0  0.63619  0.15040  0.71706  1.0000
  S   S374      1.0  0.64325  0.12930  0.78785  1.0000
  Fe  Fe189     1.0  0.64939  0.16275  0.68019  1.0000
  H   H2655     1.0  0.59999  0.03222  0.45943  1.0000
  Fe  Fe190     1.0  0.63210  0.16022  0.75360  1.0000
  C   C1497     1.0  0.63288  0.16029  0.21607  1.0000
  S   S375      1.0  0.65865  0.15752  0.71925  1.0000
  S   S376      1.0  0.63966  0.15472  0.79839  1.0000
  S   S377      1.0  0.57206  0.13707  0.77100  1.0000
  Fe  Fe191     1.0  0.55698  0.14603  0.70239  1.0000
  S   S378      1.0  0.56530  0.13464  0.69432  1.0000
  S   S379      1.0  0.54768  0.14998  0.66172  1.0000
  Fe  Fe192     1.0  0.55928  0.12819  0.76243  1.0000
  S   S380      1.0  0.55588  0.11147  0.78989  1.0000
  Fe  Fe193     1.0  0.57708  0.14458  0.70394  1.0000
  S   S381      1.0  0.59297  0.14837  0.66786  1.0000
  S   S382      1.0  0.55034  0.13923  0.77111  1.0000
  Fe  Fe194     1.0  0.51214  0.06518  0.88120  1.0000
  S   S383      1.0  0.51900  0.06154  0.92998  1.0000
  S   S384      1.0  0.51425  0.08140  0.84690  1.0000
  C   C1498     1.0  0.51444  0.03496  0.38089  1.0000
  S   S385      1.0  0.50877  0.03821  0.94729  1.0000
  C   C1499     1.0  0.53056  0.02081  0.62980  1.0000
  H   H2656     1.0  0.54663  0.00858  0.86038  1.0000
  H   H2657     1.0  0.51461  0.10213  0.46729  1.0000
  Fe  Fe195     1.0  0.52258  0.04929  0.90672  1.0000
  S   S386      1.0  0.53691  0.04496  0.89743  1.0000
  H   H2658     1.0  0.54722  0.02589  0.40731  1.0000
  S   S387      1.0  0.51710  0.05393  0.85403  1.0000
  N   N82       1.0  0.62392  0.09883  0.95867  1.0000
  H   H2659     1.0  0.50537  0.06611  0.45559  1.0000
  H   H2660     1.0  0.53073  0.02855  0.27743  1.0000
  H   H2661     1.0  0.56809  0.02271  0.38773  1.0000
  C   C1500     1.0  0.54091  0.03565  0.47188  1.0000
  C   C1501     1.0  0.54421  0.10333  0.80485  1.0000
  C   C1502     1.0  0.53561  0.10664  0.80887  1.0000
  C   C1503     1.0  0.52648  0.09988  0.82138  1.0000
  C   C1504     1.0  0.52584  0.08973  0.83101  1.0000
  C   C1505     1.0  0.53443  0.08642  0.82743  1.0000
  C   C1506     1.0  0.54357  0.09319  0.81390  1.0000
  H   H2662     1.0  0.53599  0.11441  0.80275  1.0000
  H   H2663     1.0  0.51986  0.10251  0.82413  1.0000
  H   H2664     1.0  0.53402  0.07862  0.83509  1.0000
  H   H2665     1.0  0.55015  0.09054  0.81102  1.0000
  C   C1507     1.0  0.61023  0.15949  0.74111  1.0000
  C   C1508     1.0  0.61517  0.15895  0.70310  1.0000
  C   C1509     1.0  0.60985  0.15616  0.67920  1.0000
  C   C1510     1.0  0.59962  0.15391  0.69325  1.0000
  C   C1511     1.0  0.59476  0.15545  0.72929  1.0000
  C   C1512     1.0  0.60006  0.15819  0.75327  1.0000
  H   H2666     1.0  0.62306  0.16059  0.69216  1.0000
  H   H2667     1.0  0.61364  0.15556  0.65027  1.0000
  H   H2668     1.0  0.58691  0.15434  0.73925  1.0000
  H   H2669     1.0  0.59623  0.15913  0.78155  1.0000
  H   H2670     1.0  0.56530  0.11807  0.31295  1.0000
  C   C1513     1.0  0.61544  0.10639  0.80668  1.0000
  C   C1514     1.0  0.61744  0.11598  0.77998  1.0000
  C   C1515     1.0  0.62599  0.12299  0.77333  1.0000
  C   C1516     1.0  0.63278  0.12045  0.79271  1.0000
  C   C1517     1.0  0.63105  0.11069  0.81766  1.0000
  C   C1518     1.0  0.62234  0.10370  0.82516  1.0000
  H   H2671     1.0  0.61231  0.11806  0.76464  1.0000
  H   H2672     1.0  0.62728  0.13038  0.75334  1.0000
  H   H2673     1.0  0.63647  0.10858  0.83128  1.0000
  H   H2674     1.0  0.62101  0.09624  0.84477  1.0000
  C   C1519     1.0  0.55675  0.06206  0.94666  1.0000
  C   C1520     1.0  0.56070  0.05778  0.91760  1.0000
  C   C1521     1.0  0.55454  0.05232  0.90331  1.0000
  C   C1522     1.0  0.54441  0.05107  0.91827  1.0000
  C   C1523     1.0  0.54041  0.05488  0.94899  1.0000
  C   C1524     1.0  0.54659  0.06037  0.96322  1.0000
  H   H2675     1.0  0.56850  0.05865  0.90595  1.0000
  H   H2676     1.0  0.55761  0.04919  0.88025  1.0000
  H   H2677     1.0  0.53257  0.05348  0.96215  1.0000
  H   H2678     1.0  0.54347  0.06333  0.98684  1.0000
  C   C1525     1.0  0.60019  0.07998  0.08771  1.0000
  C   C1526     1.0  0.60733  0.07455  0.08469  1.0000
  H   H2679     1.0  0.56544  0.08960  0.15447  1.0000
  C   C1527     1.0  0.60348  0.07044  0.02829  1.0000
  C   C1528     1.0  0.59601  0.07543  0.03276  1.0000
  C   C1529     1.0  0.59448  0.08031  0.06188  1.0000
  C   C1530     1.0  0.54951  0.03143  0.37665  1.0000
  H   H2680     1.0  0.57707  0.11317  0.35484  1.0000
  H   H2681     1.0  0.59167  0.07591  0.01268  1.0000
  H   H2682     1.0  0.58906  0.08462  0.06354  1.0000
  C   C1531     1.0  0.54693  0.14615  0.61944  1.0000
  C   C1532     1.0  0.55512  0.14577  0.58903  1.0000
  C   C1533     1.0  0.55392  0.14319  0.55493  1.0000
  C   C1534     1.0  0.54452  0.14085  0.55159  1.0000
  C   C1535     1.0  0.53647  0.14129  0.58199  1.0000
  C   C1536     1.0  0.53767  0.14403  0.61512  1.0000
  S   S388      1.0  0.57283  0.15731  0.30629  1.0000
  H   H2683     1.0  0.56023  0.14294  0.53156  1.0000
  H   H2684     1.0  0.52921  0.13963  0.57968  1.0000
  H   H2685     1.0  0.53133  0.14452  0.63768  1.0000
  C   C1537     1.0  0.64812  0.15039  0.52825  1.0000
  C   C1538     1.0  0.65016  0.14616  0.56410  1.0000
  C   C1539     1.0  0.65098  0.15147  0.59103  1.0000
  C   C1540     1.0  0.64994  0.16115  0.58200  1.0000
  C   C1541     1.0  0.64771  0.16530  0.54654  1.0000
  C   C1542     1.0  0.64666  0.15990  0.52014  1.0000
  H   H2686     1.0  0.65122  0.13877  0.57091  1.0000
  H   H2687     1.0  0.65276  0.14819  0.61805  1.0000
  S   S389      1.0  0.56083  0.01160  0.60903  1.0000
  H   H2688     1.0  0.64483  0.16310  0.49329  1.0000
  C   C1543     1.0  0.62774  0.12025  0.33064  1.0000
  C   C1544     1.0  0.62826  0.12569  0.29138  1.0000
  C   C1545     1.0  0.62448  0.12101  0.26701  1.0000
  C   C1546     1.0  0.62003  0.11084  0.28145  1.0000
  C   C1547     1.0  0.61937  0.10545  0.32095  1.0000
  C   C1548     1.0  0.62324  0.11011  0.34514  1.0000
  H   H2689     1.0  0.63182  0.13343  0.27949  1.0000
  H   H2690     1.0  0.62513  0.12528  0.23647  1.0000
  H   H2691     1.0  0.61601  0.09765  0.33270  1.0000
  H   H2692     1.0  0.62278  0.10579  0.37536  1.0000
  C   C1549     1.0  0.60773  0.15147  0.41896  1.0000
  C   C1550     1.0  0.59817  0.15097  0.44199  1.0000
  C   C1551     1.0  0.59059  0.14269  0.45075  1.0000
  C   C1552     1.0  0.59269  0.13470  0.43836  1.0000
  C   C1553     1.0  0.60237  0.13494  0.41800  1.0000
  C   C1554     1.0  0.60979  0.14345  0.40689  1.0000
  H   H2693     1.0  0.59655  0.15709  0.45193  1.0000
  H   H2694     1.0  0.58315  0.14247  0.46728  1.0000
  H   H2695     1.0  0.60409  0.12871  0.40929  1.0000
  H   H2696     1.0  0.61707  0.14380  0.38827  1.0000
  N   N83       1.0  0.58683  0.02069  0.47771  1.0000
  H   H2697     1.0  0.54997  0.05133  0.64222  1.0000
  H   H2698     1.0  0.59070  0.09734  0.75884  1.0000
  H   H2699     1.0  0.59410  0.11443  0.37380  1.0000
  C   C1555     1.0  0.51422  0.06435  0.10612  1.0000
  C   C1556     1.0  0.51933  0.06467  0.06656  1.0000
  C   C1557     1.0  0.51462  0.06009  0.04448  1.0000
  C   C1558     1.0  0.58312  0.05302  0.37311  1.0000
  H   H2700     1.0  0.51910  0.10931  0.97424  1.0000
  C   C1559     1.0  0.51219  0.10149  0.41085  1.0000
  H   H2701     1.0  0.52697  0.06854  0.05275  1.0000
  H   H2702     1.0  0.51866  0.06036  0.01423  1.0000
  H   H2703     1.0  0.52091  0.03033  0.84227  1.0000
  H   H2704     1.0  0.58589  0.15916  0.35517  1.0000
  C   C1560     1.0  0.53098  0.09549  0.30864  1.0000
  C   C1561     1.0  0.53204  0.10550  0.30565  1.0000
  C   C1562     1.0  0.53713  0.10972  0.32775  1.0000
  C   C1563     1.0  0.54122  0.10399  0.35369  1.0000
  C   C1564     1.0  0.54016  0.09399  0.35670  1.0000
  C   C1565     1.0  0.53514  0.08977  0.33434  1.0000
  H   H2705     1.0  0.52887  0.11004  0.28604  1.0000
  H   H2706     1.0  0.53784  0.11741  0.32488  1.0000
  H   H2707     1.0  0.54334  0.08949  0.37637  1.0000
  H   H2708     1.0  0.53444  0.08209  0.33719  1.0000
  C   C1566     1.0  0.54830  0.05893  0.27034  1.0000
  C   C1567     1.0  0.55746  0.05718  0.26962  1.0000
  C   C1568     1.0  0.56401  0.06350  0.27916  1.0000
  C   C1569     1.0  0.56150  0.07165  0.28879  1.0000
  C   C1570     1.0  0.55227  0.07331  0.29029  1.0000
  C   C1571     1.0  0.54570  0.06700  0.28075  1.0000
  H   H2709     1.0  0.55945  0.05089  0.26223  1.0000
  H   H2710     1.0  0.57090  0.06195  0.28002  1.0000
  H   H2711     1.0  0.55026  0.07959  0.29789  1.0000
  H   H2712     1.0  0.53871  0.06852  0.28104  1.0000
  H   H2713     1.0  0.52129  0.09848  0.02445  1.0000
  H   H2714     1.0  0.52874  0.12291  0.91172  1.0000
  Fe  Fe196     1.0  0.55565  0.00438  0.35567  1.0000
  H   H2715     1.0  0.58026  0.09337  0.68725  1.0000
  C   C1572     1.0  0.51164  0.09036  0.41824  1.0000
  C   C1573     1.0  0.62503  0.16850  0.48588  1.0000
  C   C1574     1.0  0.51899  0.00400  0.16726  1.0000
  C   C1575     1.0  0.50966  0.08780  0.01818  1.0000
  C   C1576     1.0  0.57141  0.07110  0.73737  1.0000
  H   H2716     1.0  0.55879  0.00318  0.95684  1.0000
  H   H2717     1.0  0.58364  0.01763  0.32256  1.0000
  H   H2718     1.0  0.53799  0.02522  0.62436  1.0000
  C   C1577     1.0  0.54286  0.01814  0.25312  1.0000
  H   H2719     1.0  0.51810  0.04259  0.37693  1.0000
  H   H2720     1.0  0.52760  0.02459  0.60628  1.0000
  H   H2721     1.0  0.59025  0.02540  0.16240  1.0000
  H   H2722     1.0  0.56808  0.09609  0.79727  1.0000
  C   C1578     1.0  0.54297  0.02805  0.35384  1.0000
  H   H2723     1.0  0.58150  0.14595  0.60187  1.0000
  C   C1579     1.0  0.51639  0.09109  0.04136  1.0000
  C   C1580     1.0  0.60898  0.13207  0.83695  1.0000
  N   N84       1.0  0.59084  0.12436  0.84399  1.0000
  C   C1581     1.0  0.58916  0.13452  0.83907  1.0000
  C   C1582     1.0  0.59128  0.12185  0.80557  1.0000
  C   C1583     1.0  0.58204  0.11715  0.87749  1.0000
  C   C1584     1.0  0.59988  0.12320  0.85601  1.0000
  C   C1585     1.0  0.58718  0.13750  0.87817  1.0000
  C   C1586     1.0  0.58163  0.10611  0.88283  1.0000
  C   C1587     1.0  0.59724  0.12985  0.76439  1.0000
  C   C1588     1.0  0.59696  0.12607  0.72897  1.0000
  C   C1589     1.0  0.58856  0.14861  0.86818  1.0000
  C   C1590     1.0  0.57364  0.09942  0.92192  1.0000
  H   H2724     1.0  0.58278  0.13525  0.82814  1.0000
  H   H2725     1.0  0.59544  0.14015  0.81491  1.0000
  H   H2726     1.0  0.59417  0.11517  0.80610  1.0000
  H   H2727     1.0  0.58373  0.11992  0.80394  1.0000
  H   H2728     1.0  0.57512  0.11857  0.87215  1.0000
  H   H2729     1.0  0.58167  0.11814  0.90733  1.0000
  H   H2730     1.0  0.59809  0.12141  0.88948  1.0000
  H   H2731     1.0  0.60237  0.11678  0.84940  1.0000
  H   H2732     1.0  0.57949  0.13397  0.89817  1.0000
  H   H2733     1.0  0.59212  0.13520  0.89553  1.0000
  H   H2734     1.0  0.58869  0.10435  0.88368  1.0000
  H   H2735     1.0  0.57996  0.10426  0.85711  1.0000
  H   H2736     1.0  0.59401  0.13629  0.76041  1.0000
  H   H2737     1.0  0.60498  0.13228  0.76177  1.0000
  H   H2738     1.0  0.59972  0.11930  0.73176  1.0000
  H   H2739     1.0  0.58937  0.12453  0.72791  1.0000
  H   H2740     1.0  0.60166  0.13177  0.69995  1.0000
  H   H2741     1.0  0.58394  0.15125  0.84966  1.0000
  H   H2742     1.0  0.59636  0.15245  0.85110  1.0000
  H   H2743     1.0  0.57343  0.09161  0.92423  1.0000
  H   H2744     1.0  0.57517  0.10065  0.94897  1.0000
  H   H2745     1.0  0.56636  0.10075  0.92177  1.0000
  C   C1591     1.0  0.57016  0.03388  0.79203  1.0000
  C   C1592     1.0  0.55724  0.10135  0.23339  1.0000
  H   H2746     1.0  0.52727  0.11523  0.88103  1.0000
  H   H2747     1.0  0.54037  0.08541  0.03049  1.0000
  H   H2748     1.0  0.51672  0.11844  0.90970  1.0000
  H   H2749     1.0  0.56097  0.08334  0.10136  1.0000
  H   H2750     1.0  0.59103  0.12949  0.22853  1.0000
  H   H2751     1.0  0.55707  0.03152  0.35988  1.0000
  N   N85       1.0  0.53754  0.10909  0.64938  1.0000
  C   C1593     1.0  0.54848  0.11026  0.63914  1.0000
  C   C1594     1.0  0.53244  0.09852  0.67440  1.0000
  C   C1595     1.0  0.53525  0.11121  0.60987  1.0000
  C   C1596     1.0  0.53376  0.11601  0.67105  1.0000
  C   C1597     1.0  0.53925  0.11906  0.69884  1.0000
  C   C1598     1.0  0.55482  0.12013  0.60681  1.0000
  C   C1599     1.0  0.52422  0.10898  0.61392  1.0000
  C   C1600     1.0  0.53416  0.09447  0.71562  1.0000
  C   C1601     1.0  0.60871  0.03338  0.37677  1.0000
  C   C1602     1.0  0.53346  0.12444  0.72415  1.0000
  C   C1603     1.0  0.56545  0.12202  0.60615  1.0000
  H   H2752     1.0  0.60666  0.12060  0.36123  1.0000
  H   H2753     1.0  0.55070  0.10431  0.62742  1.0000
  H   H2754     1.0  0.55074  0.10941  0.66662  1.0000
  H   H2755     1.0  0.52435  0.09740  0.68226  1.0000
  H   H2756     1.0  0.53453  0.09364  0.65610  1.0000
  H   H2757     1.0  0.53884  0.10702  0.59090  1.0000
  H   H2758     1.0  0.53837  0.11912  0.59126  1.0000
  H   H2759     1.0  0.53389  0.12306  0.64880  1.0000
  H   H2760     1.0  0.52589  0.11288  0.68960  1.0000
  H   H2761     1.0  0.54648  0.12417  0.68026  1.0000
  H   H2762     1.0  0.54056  0.11271  0.71987  1.0000
  H   H2763     1.0  0.55484  0.12017  0.57594  1.0000
  H   H2764     1.0  0.55179  0.12625  0.61314  1.0000
  H   H2765     1.0  0.51994  0.11186  0.63673  1.0000
  H   H2766     1.0  0.54205  0.09552  0.71230  1.0000
  H   H2767     1.0  0.53068  0.09811  0.73712  1.0000
  H   H2768     1.0  0.58142  0.05223  0.27868  1.0000
  H   H2769     1.0  0.62032  0.10556  0.00612  1.0000
  H   H2770     1.0  0.56234  0.14761  0.59147  1.0000
  H   H2771     1.0  0.53788  0.12734  0.74095  1.0000
  H   H2772     1.0  0.53176  0.13077  0.70433  1.0000
  H   H2773     1.0  0.52652  0.11937  0.74642  1.0000
  H   H2774     1.0  0.56585  0.12261  0.63572  1.0000
  H   H2775     1.0  0.56879  0.11603  0.59956  1.0000
  H   H2776     1.0  0.56971  0.12908  0.58201  1.0000
  H   H2777     1.0  0.52455  0.12175  0.56500  1.0000
  H   H2778     1.0  0.52722  0.11143  0.54888  1.0000
  H   H2779     1.0  0.56033  0.01700  0.87971  1.0000
  H   H2780     1.0  0.61084  0.09477  0.73799  1.0000
  S   S390      1.0  0.59194  0.04832  0.84552  1.0000
  H   H2781     1.0  0.51763  0.07381  0.43309  1.0000
  C   C1604     1.0  0.50349  0.09142  0.36569  1.0000
  H   H2782     1.0  0.55488  0.01567  0.53781  1.0000
  H   H2783     1.0  0.57155  0.04760  0.43013  1.0000
  H   H2784     1.0  0.60637  0.12423  0.23347  1.0000
  H   H2785     1.0  0.62927  0.10744  0.05320  1.0000
  C   C1605     1.0  0.59481  0.02680  0.21263  1.0000
  H   H2786     1.0  0.52137  0.08200  0.74208  1.0000
  H   H2787     1.0  0.52043  0.02283  0.21906  1.0000
  H   H2788     1.0  0.51649  0.02981  0.40439  1.0000
  H   H2789     1.0  0.51474  0.07932  0.36546  1.0000
  H   H2790     1.0  0.57659  0.00509  0.78555  1.0000
  C   C1606     1.0  0.50802  0.08096  0.96475  1.0000
  H   H2791     1.0  0.62247  0.09486  0.08140  1.0000
  H   H2792     1.0  0.53180  0.02938  0.85513  1.0000
  H   H2793     1.0  0.51944  0.01359  0.88559  1.0000
  C   C1607     1.0  0.57559  0.04693  0.17625  1.0000
  H   H2794     1.0  0.59910  0.03214  0.22225  1.0000
  H   H2795     1.0  0.58558  0.03784  0.03891  1.0000
  H   H2796     1.0  0.58465  0.04575  0.37388  1.0000
  C   C1608     1.0  0.58198  0.04478  0.28807  1.0000
  C   C1609     1.0  0.59032  0.04231  0.05038  1.0000
  C   C1610     1.0  0.52386  0.01598  0.85288  1.0000
  C   C1611     1.0  0.59653  0.15240  0.56103  1.0000
  H   H2797     1.0  0.61354  0.03055  0.35529  1.0000
  H   H2798     1.0  0.50050  0.08098  0.33343  1.0000
  C   C1612     1.0  0.63091  0.09730  0.01828  1.0000
  C   C1613     1.0  0.57318  0.06353  0.71559  1.0000
  H   H2799     1.0  0.57966  0.02408  0.78628  1.0000
  H   H2800     1.0  0.60267  0.11644  0.32411  1.0000
  H   H2801     1.0  0.58879  0.10767  0.69739  1.0000
  H   H2802     1.0  0.57835  0.11905  0.68604  1.0000
  C   C1614     1.0  0.58306  0.02518  0.31373  1.0000
  H   H2803     1.0  0.58609  0.07976  0.70260  1.0000
  H   H2804     1.0  0.50585  0.09665  0.07962  1.0000
  H   H2805     1.0  0.52569  0.10422  0.42559  1.0000
  H   H2806     1.0  0.51694  0.09841  0.91372  1.0000
  H   H2807     1.0  0.54357  0.02997  0.52961  1.0000
  H   H2808     1.0  0.54484  0.02572  0.23131  1.0000
  H   H2809     1.0  0.51172  0.04558  0.72332  1.0000
  H   H2810     1.0  0.56064  0.08105  0.02375  1.0000
  H   H2811     1.0  0.53299  0.05580  0.12899  1.0000
  N   N86       1.0  0.60578  0.14762  0.28655  1.0000
  C   C1615     1.0  0.61575  0.15471  0.26737  1.0000
  C   C1616     1.0  0.59944  0.15054  0.32013  1.0000
  C   C1617     1.0  0.60732  0.13760  0.30533  1.0000
  C   C1618     1.0  0.60075  0.14683  0.25570  1.0000
  C   C1619     1.0  0.59900  0.15645  0.23077  1.0000
  C   C1620     1.0  0.62309  0.15265  0.23243  1.0000
  C   C1621     1.0  0.59796  0.12945  0.33292  1.0000
  C   C1622     1.0  0.60077  0.16168  0.31434  1.0000
  C   C1623     1.0  0.59564  0.15501  0.19565  1.0000
  H   H2812     1.0  0.50593  0.07996  0.03673  1.0000
  C   C1624     1.0  0.60052  0.11965  0.34883  1.0000
  H   H2813     1.0  0.61925  0.15488  0.29126  1.0000
  H   H2814     1.0  0.61519  0.16235  0.25463  1.0000
  H   H2815     1.0  0.59153  0.14727  0.32652  1.0000
  H   H2816     1.0  0.60092  0.14748  0.34899  1.0000
  H   H2817     1.0  0.61224  0.13814  0.32402  1.0000
  H   H2818     1.0  0.61107  0.13468  0.28145  1.0000
  H   H2819     1.0  0.60480  0.14345  0.23428  1.0000
  H   H2820     1.0  0.59336  0.14174  0.27091  1.0000
  H   H2821     1.0  0.67767  0.16056  0.18587  1.0000
  H   H2822     1.0  0.60568  0.16254  0.21753  1.0000
  H   H2823     1.0  0.62466  0.14536  0.24289  1.0000
  H   H2824     1.0  0.62021  0.15296  0.20677  1.0000
  H   H2825     1.0  0.59276  0.12828  0.31639  1.0000
  H   H2826     1.0  0.59407  0.13139  0.35945  1.0000
  H   H2827     1.0  0.51580  0.10567  0.37797  1.0000
  H   H2828     1.0  0.50358  0.03367  0.75304  1.0000
  H   H2829     1.0  0.50825  0.07341  0.98189  1.0000
  H   H2830     1.0  0.60709  0.02112  0.42871  1.0000
  H   H2831     1.0  0.50052  0.09769  0.37104  1.0000
  H   H2832     1.0  0.51206  0.03619  0.19998  1.0000
  H   H2833     1.0  0.61097  0.04417  0.16185  1.0000
  H   H2834     1.0  0.61836  0.12282  0.85719  1.0000
  H   H2835     1.0  0.61228  0.13348  0.80408  1.0000
  H   H2836     1.0  0.61451  0.13032  0.88822  1.0000
  H   H2837     1.0  0.63574  0.11710  0.96209  1.0000
  C   C1625     1.0  0.63230  0.11754  0.93793  1.0000
  C   C1626     1.0  0.61685  0.13009  0.85665  1.0000
  H   H2838     1.0  0.60726  0.13894  0.84136  1.0000
  H   H2839     1.0  0.58638  0.15046  0.89667  1.0000
  C   C1627     1.0  0.54825  0.04324  0.65713  1.0000
  H   H2840     1.0  0.63894  0.10649  0.92105  1.0000
  H   H2841     1.0  0.62903  0.07235  0.93821  1.0000
  H   H2842     1.0  0.56933  0.09196  0.72635  1.0000
  C   C1628     1.0  0.52264  0.11361  0.57350  1.0000
  S   S391      1.0  0.61655  0.16149  0.77427  1.0000
  S   S392      1.0  0.56173  0.02863  0.77072  1.0000
  C   C1629     1.0  0.57297  0.08302  0.79005  1.0000
  Fe  Fe197     1.0  0.56380  0.14888  0.77409  1.0000
  S   S393      1.0  0.56938  0.15667  0.70647  1.0000
  C   C1630     1.0  0.57460  0.02732  0.30582  1.0000
  H   H2843     1.0  0.51536  0.09316  0.09955  1.0000
  H   H2844     1.0  0.55353  0.03094  0.88802  1.0000
  H   H2845     1.0  0.56771  0.03892  0.28635  1.0000
  H   H2846     1.0  0.53513  0.02686  0.37146  1.0000
  C   C1631     1.0  0.50466  0.05529  0.06136  1.0000
  H   H2847     1.0  0.56223  0.03844  0.22645  1.0000
  C   C1632     1.0  0.54881  0.02460  0.88512  1.0000
  H   H2848     1.0  0.58450  0.05747  0.34107  1.0000
  H   H2849     1.0  0.53695  0.05265  0.42725  1.0000
  N   N87       1.0  0.55449  0.04575  0.40304  1.0000
  H   H2850     1.0  0.58826  0.05683  0.38505  1.0000
  H   H2851     1.0  0.50395  0.09776  0.28504  1.0000
  Fe  Fe198     1.0  0.65282  0.16699  0.75672  1.0000
  H   H2852     1.0  0.68250  0.16218  0.54361  1.0000
  H   H2853     1.0  0.59989  0.16579  0.28551  1.0000
  H   H2854     1.0  0.56628  0.14137  0.23445  1.0000
  H   H2855     1.0  0.52120  0.10092  0.62325  1.0000
  H   H2856     1.0  0.57005  0.04405  0.51581  1.0000
  H   H2857     1.0  0.53602  0.01137  0.59710  1.0000
  N   N88       1.0  0.51442  0.08862  0.97423  1.0000
  C   C1633     1.0  0.62227  0.09876  0.00187  1.0000
  H   H2858     1.0  0.57689  0.11038  0.65930  1.0000
  H   H2859     1.0  0.60929  0.06431  0.17083  1.0000
  H   H2860     1.0  0.61486  0.06609  0.05137  1.0000
  H   H2861     1.0  0.56245  0.04501  0.80155  1.0000
  C   C1634     1.0  0.55188  0.03889  0.44595  1.0000
  H   H2862     1.0  0.56755  0.10909  0.70643  1.0000
  C   C1635     1.0  0.59671  0.04830  0.17214  1.0000
  C   C1636     1.0  0.59329  0.04461  0.11403  1.0000
  H   H2863     1.0  0.52668  0.05083  0.74077  1.0000
  H   H2864     1.0  0.57386  0.14063  0.26661  1.0000
  H   H2865     1.0  0.56103  0.13433  0.28771  1.0000
  H   H2866     1.0  0.59277  0.03446  0.42756  1.0000
  C   C1637     1.0  0.60312  0.12333  0.20976  1.0000
  H   H2867     1.0  0.58697  0.03069  0.10626  1.0000
  H   H2868     1.0  0.57910  0.03907  0.10747  1.0000
  C   C1638     1.0  0.59058  0.04276  0.29451  1.0000
  H   H2869     1.0  0.63312  0.07751  0.88361  1.0000
  C   C1639     1.0  0.57413  0.03716  0.29309  1.0000
  H   H2870     1.0  0.62376  0.13582  0.83898  1.0000
  C   C1640     1.0  0.59104  0.03288  0.30788  1.0000
  H   H2871     1.0  0.54266  0.05109  0.10444  1.0000
  N   N89       1.0  0.55319  0.06872  0.10803  1.0000
  C   C1641     1.0  0.53521  0.04273  0.16694  1.0000
  C   C1642     1.0  0.56770  0.13645  0.26058  1.0000
  H   H2872     1.0  0.51482  0.11119  0.57640  1.0000
  C   C1643     1.0  0.58059  0.03823  0.18261  1.0000
  H   H2873     1.0  0.56111  0.04964  0.19364  1.0000
  H   H2874     1.0  0.62058  0.08513  0.91345  1.0000
  C   C1644     1.0  0.57827  0.03022  0.79639  1.0000
  N   N90       1.0  0.58054  0.08649  0.74822  1.0000
  S   S394      1.0  0.56570  0.15548  0.82409  1.0000
  N   N91       1.0  0.51604  0.01914  0.30793  1.0000
  H   H2875     1.0  0.51089  0.09490  0.34294  1.0000
  C   C1645     1.0  0.52945  0.08343  0.73504  1.0000
  C   C1646     1.0  0.59926  0.09267  0.71136  1.0000
  H   H2876     1.0  0.57232  0.01290  0.48500  1.0000
  H   H2877     1.0  0.52890  0.01408  0.24565  1.0000
  C   C1647     1.0  0.52741  0.02718  0.83678  1.0000
  H   H2878     1.0  0.56720  0.05096  0.34871  1.0000
  H   H2879     1.0  0.55573  0.04233  0.46342  1.0000
  H   H2880     1.0  0.55773  0.05944  0.04742  1.0000
  H   H2881     1.0  0.55821  0.10847  0.20989  1.0000
  H   H2882     1.0  0.62329  0.14788  0.50405  1.0000
  C   C1648     1.0  0.55317  0.05591  0.40249  1.0000
  H   H2883     1.0  0.56557  0.08024  0.78868  1.0000
  H   H2884     1.0  0.52104  0.08583  0.04676  1.0000
  H   H2885     1.0  0.57843  0.00736  0.82999  1.0000
  H   H2886     1.0  0.54090  0.07361  0.09448  1.0000
  S   S395      1.0  0.54292  0.00452  0.79084  1.0000
  C   C1649     1.0  0.55676  0.00380  0.58352  1.0000
  H   H2887     1.0  0.55559  0.06750  0.18507  1.0000
  C   C1650     1.0  0.59047  0.09052  0.75058  1.0000
  C   C1651     1.0  0.57017  0.12733  0.25094  1.0000
  H   H2888     1.0  0.57758  0.12496  0.29595  1.0000
  H   H2889     1.0  0.56379  0.12360  0.24492  1.0000
  H   H2890     1.0  0.53149  0.04378  0.19609  1.0000
  Fe  Fe199     1.0  0.50464  0.05085  0.96723  1.0000
  C   C1652     1.0  0.61424  0.09796  0.95059  1.0000
  C   C1653     1.0  0.54280  0.06831  0.40577  1.0000
  H   H2891     1.0  0.57459  0.16191  0.87819  1.0000
  H   H2892     1.0  0.53849  0.04194  0.47979  1.0000
  C   C1654     1.0  0.56482  0.08575  0.85624  1.0000
  H   H2893     1.0  0.60740  0.10593  0.71652  1.0000
  H   H2894     1.0  0.53763  0.03192  0.70909  1.0000
  N   N92       1.0  0.59137  0.04062  0.15931  1.0000
  H   H2895     1.0  0.57643  0.12980  0.22245  1.0000
  C   C1655     1.0  0.62744  0.08975  0.95501  1.0000
  C   C1656     1.0  0.57228  0.12040  0.28702  1.0000
  H   H2896     1.0  0.60419  0.03732  0.36086  1.0000
  C   C1657     1.0  0.56445  0.04327  0.19432  1.0000
  H   H2897     1.0  0.61330  0.15202  0.49282  1.0000
  H   H2898     1.0  0.51077  0.08164  0.93205  1.0000
  C   C1658     1.0  0.60806  0.05079  0.15477  1.0000
  H   H2899     1.0  0.58431  0.02406  0.39532  1.0000
  C   C1659     1.0  0.59489  0.03128  0.16835  1.0000
  H   H2900     1.0  0.59702  0.14171  0.53170  1.0000
  H   H2901     1.0  0.57666  0.05652  0.06598  1.0000
  H   H2902     1.0  0.61239  0.11301  0.93547  1.0000
  H   H2903     1.0  0.57172  0.05942  0.39745  1.0000
  H   H2904     1.0  0.53018  0.01255  0.84953  1.0000
  H   H2905     1.0  0.52576  0.02034  0.66020  1.0000
  H   H2906     1.0  0.59015  0.11614  0.28695  1.0000
  H   H2907     1.0  0.57455  0.09999  0.41885  1.0000
  H   H2908     1.0  0.55363  0.08345  0.19327  1.0000
  H   H2909     1.0  0.59200  0.08526  0.77558  1.0000
  H   H2910     1.0  0.63090  0.16667  0.46464  1.0000
  H   H2911     1.0  0.56712  0.06691  0.76966  1.0000
  H   H2912     1.0  0.59249  0.05231  0.10480  1.0000
  H   H2913     1.0  0.51542  0.03823  0.31817  1.0000
  H   H2914     1.0  0.57777  0.05893  0.72799  1.0000
  C   C1660     1.0  0.58122  0.07755  0.73471  1.0000
  C   C1661     1.0  0.57691  0.10559  0.35414  1.0000
  H   H2915     1.0  0.58449  0.10455  0.34743  1.0000
  H   H2916     1.0  0.56345  0.09949  0.40592  1.0000
  H   H2917     1.0  0.59105  0.03183  0.81574  1.0000
  H   H2918     1.0  0.63951  0.13309  0.90923  1.0000
  H   H2919     1.0  0.60091  0.08565  0.70813  1.0000
  C   C1662     1.0  0.51505  0.09856  0.94558  1.0000
  H   H2920     1.0  0.54903  0.02638  0.85298  1.0000
  C   C1663     1.0  0.50437  0.05922  0.12367  1.0000
  H   H2921     1.0  0.68241  0.14849  0.40314  1.0000
  H   H2922     1.0  0.54360  0.06870  0.43510  1.0000
  H   H2923     1.0  0.67627  0.15304  0.36699  1.0000
  N   N93       1.0  0.57593  0.11155  0.28090  1.0000
  C   C1664     1.0  0.58699  0.11393  0.26509  1.0000
  C   C1665     1.0  0.59208  0.12239  0.22436  1.0000
  C   C1666     1.0  0.57102  0.09849  0.39667  1.0000
  H   H2924     1.0  0.62261  0.08312  0.98039  1.0000
  H   H2925     1.0  0.51446  0.02965  0.79216  1.0000
  C   C1667     1.0  0.56522  0.04678  0.38167  1.0000
  H   H2926     1.0  0.55159  0.09143  0.98867  1.0000
  C   C1668     1.0  0.57518  0.04656  0.82110  1.0000
  C   C1669     1.0  0.56879  0.01812  0.41619  1.0000
  C   C1670     1.0  0.57259  0.10349  0.32158  1.0000
  H   H2927     1.0  0.60669  0.12982  0.18194  1.0000
  H   H2928     1.0  0.56447  0.10172  0.33531  1.0000
  H   H2929     1.0  0.57395  0.11319  0.22217  1.0000
  H   H2930     1.0  0.56759  0.07325  0.14854  1.0000
  C   C1671     1.0  0.50912  0.03976  0.75348  1.0000
  H   H2931     1.0  0.57931  0.03541  0.21580  1.0000
  Fe  Fe200     1.0  0.50288  0.04313  0.89517  1.0000
  H   H2932     1.0  0.57146  0.05136  0.03369  1.0000
  C   C1672     1.0  0.57212  0.05762  0.04568  1.0000
  H   H2933     1.0  0.58925  0.12124  0.19998  1.0000
  H   H2934     1.0  0.55668  0.10777  0.28095  1.0000
  H   H2935     1.0  0.56648  0.06415  0.11052  1.0000
  H   H2936     1.0  0.50553  0.02657  0.28841  1.0000
  C   C1673     1.0  0.57203  0.10751  0.25229  1.0000
  C   C1674     1.0  0.56010  0.07427  0.16009  1.0000
  H   H2937     1.0  0.57585  0.06447  0.01954  1.0000
  H   H2938     1.0  0.58952  0.10722  0.26227  1.0000
  H   H2939     1.0  0.57074  0.09076  0.39748  1.0000
  C   C1675     1.0  0.56100  0.08256  0.17830  1.0000
  H   H2940     1.0  0.59447  0.04619  0.20589  1.0000
  C   C1676     1.0  0.57556  0.11119  0.68989  1.0000
  H   H2941     1.0  0.56787  0.07327  0.06462  1.0000
  C   C1677     1.0  0.51763  0.03582  0.76305  1.0000
  H   H2942     1.0  0.54107  0.02938  0.78967  1.0000
  H   H2943     1.0  0.61181  0.05415  0.20478  1.0000
  C   C1678     1.0  0.52707  0.02068  0.29518  1.0000
  H   H2944     1.0  0.51926  0.09018  0.40218  1.0000
  H   H2945     1.0  0.56159  0.03911  0.17647  1.0000
  C   C1679     1.0  0.51766  0.03296  0.34047  1.0000
  H   H2946     1.0  0.56472  0.08078  0.20150  1.0000
  H   H2947     1.0  0.55090  0.05554  0.15821  1.0000
  H   H2948     1.0  0.53622  0.03273  0.45606  1.0000
  C   C1680     1.0  0.56082  0.10301  0.26763  1.0000
  H   H2949     1.0  0.57443  0.09661  0.31761  1.0000
  H   H2950     1.0  0.57562  0.10159  0.24601  1.0000
  H   H2951     1.0  0.55841  0.05104  0.09314  1.0000
  C   C1681     1.0  0.56194  0.05824  0.06889  1.0000
  C   C1682     1.0  0.56270  0.06651  0.08802  1.0000
  H   H2952     1.0  0.54934  0.09754  0.24574  1.0000
  H   H2953     1.0  0.60698  0.01996  0.19747  1.0000
  H   H2954     1.0  0.60859  0.12008  0.47698  1.0000
  H   H2955     1.0  0.51653  0.01018  0.17618  1.0000
  H   H2956     1.0  0.54111  0.02082  0.50567  1.0000
  H   H2957     1.0  0.52676  0.00671  0.14737  1.0000
  C   C1683     1.0  0.57746  0.09383  0.71845  1.0000
  C   C1684     1.0  0.51286  0.02205  0.23822  1.0000
  S   S396      1.0  0.60080  0.05244  0.28550  1.0000
  C   C1685     1.0  0.63306  0.07912  0.91205  1.0000
  H   H2958     1.0  0.52139  0.04562  0.79394  1.0000
  H   H2959     1.0  0.52078  0.03265  0.73940  1.0000
  H   H2960     1.0  0.63489  0.09030  0.95787  1.0000
  H   H2961     1.0  0.54400  0.05263  0.71207  1.0000
  H   H2962     1.0  0.50378  0.09188  0.02065  1.0000
  H   H2963     1.0  0.56136  0.09667  0.21931  1.0000
  C   C1686     1.0  0.55557  0.07682  0.12533  1.0000
  C   C1687     1.0  0.54650  0.05981  0.14280  1.0000
  H   H2964     1.0  0.53097  0.08058  0.76395  1.0000
  C   C1688     1.0  0.54312  0.05813  0.40219  1.0000
  H   H2965     1.0  0.58122  0.00715  0.56299  1.0000
  H   H2966     1.0  0.61454  0.16213  0.54499  1.0000
  H   H2967     1.0  0.52150  0.06454  0.38432  1.0000
  C   C1689     1.0  0.60856  0.09884  0.71260  1.0000
  H   H2968     1.0  0.57649  0.03207  0.17612  1.0000
  C   C1690     1.0  0.59340  0.16345  0.34897  1.0000
  H   H2969     1.0  0.54172  0.06210  0.16670  1.0000
  H   H2970     1.0  0.60467  0.11669  0.20219  1.0000
  H   H2971     1.0  0.60606  0.12597  0.57577  1.0000
  C   C1691     1.0  0.52530  0.04398  0.76652  1.0000
  H   H2972     1.0  0.53129  0.02547  0.53032  1.0000
  H   H2973     1.0  0.62707  0.15044  0.61829  1.0000
  H   H2974     1.0  0.61856  0.13959  0.65766  1.0000
  C   C1692     1.0  0.58343  0.00441  0.53679  1.0000
  H   H2975     1.0  0.60935  0.09057  0.96922  1.0000
  H   H2976     1.0  0.51438  0.01722  0.37119  1.0000
  H   H2977     1.0  0.59799  0.04181  0.03782  1.0000
  H   H2978     1.0  0.54884  0.07935  0.13679  1.0000
  C   C1693     1.0  0.53927  0.05260  0.13278  1.0000
  H   H2979     1.0  0.52984  0.03790  0.15938  1.0000
  H   H2980     1.0  0.54079  0.04131  0.39210  1.0000
  H   H2981     1.0  0.57582  0.01944  0.53377  1.0000
  C   C1694     1.0  0.53377  0.03094  0.79110  1.0000
  C   C1695     1.0  0.62456  0.14231  0.62806  1.0000
  H   H2982     1.0  0.58719  0.02429  0.23392  1.0000
  H   H2983     1.0  0.63083  0.13919  0.63235  1.0000
  H   H2984     1.0  0.58276  0.14951  0.54825  1.0000
  C   C1696     1.0  0.55357  0.08189  0.04204  1.0000
  H   H2985     1.0  0.61112  0.14872  0.59931  1.0000
  S   S397      1.0  0.54679  0.00477  0.41643  1.0000
  H   H2986     1.0  0.66766  0.16337  0.21916  1.0000
  C   C1697     1.0  0.56869  0.04209  0.80452  1.0000
  H   H2987     1.0  0.57731  0.03012  0.42507  1.0000
  H   H2988     1.0  0.52576  0.03449  0.33006  1.0000
  H   H2989     1.0  0.60017  0.15828  0.53118  1.0000
  H   H2990     1.0  0.55498  0.08825  0.05283  1.0000
  H   H2991     1.0  0.54595  0.06671  0.06430  1.0000
  H   H2992     1.0  0.60144  0.15317  0.17383  1.0000
  C   C1698     1.0  0.53916  0.02749  0.51177  1.0000
  H   H2993     1.0  0.53349  0.04269  0.68903  1.0000
  H   H2994     1.0  0.60549  0.13618  0.61946  1.0000
  H   H2995     1.0  0.50830  0.02584  0.18459  1.0000
  C   C1699     1.0  0.51037  0.09118  0.08298  1.0000
  H   H2996     1.0  0.53010  0.00660  0.29145  1.0000
  H   H2997     1.0  0.64612  0.12509  0.88882  1.0000
  N   N94       1.0  0.53490  0.04167  0.76927  1.0000
  H   H2998     1.0  0.53347  0.04583  0.82334  1.0000
  H   H2999     1.0  0.55016  0.06101  0.81413  1.0000
  C   C1700     1.0  0.61143  0.14172  0.59304  1.0000
  C   C1701     1.0  0.62128  0.13919  0.59558  1.0000
  Fe  Fe201     1.0  0.55598  0.00739  0.67807  1.0000
  C   C1702     1.0  0.59094  0.01271  0.49918  1.0000
  H   H3000     1.0  0.62597  0.15893  0.54068  1.0000
  C   C1703     1.0  0.53968  0.04005  0.69689  1.0000
  H   H3001     1.0  0.62725  0.14272  0.56611  1.0000
  C   C1704     1.0  0.52380  0.11654  0.90996  1.0000
  H   H3002     1.0  0.57797  0.05203  0.19180  1.0000
  S   S398      1.0  0.58599  0.05693  0.94350  1.0000
  H   H3003     1.0  0.53589  0.06160  0.76448  1.0000
  H   H3004     1.0  0.54628  0.03958  0.63608  1.0000
  C   C1705     1.0  0.62037  0.15989  0.52536  1.0000
  H   H3005     1.0  0.63141  0.08951  0.02476  1.0000
  H   H3006     1.0  0.62041  0.13110  0.60341  1.0000
  H   H3007     1.0  0.58238  0.03959  0.46723  1.0000
  H   H3008     1.0  0.51905  0.11365  0.42615  1.0000
  S   S399      1.0  0.52301  0.01193  0.74642  1.0000
  C   C1706     1.0  0.54756  0.08446  0.01369  1.0000
  H   H3009     1.0  0.54632  0.07858  0.00011  1.0000
  C   C1707     1.0  0.54243  0.04461  0.72761  1.0000
  C   C1708     1.0  0.53895  0.04746  0.79293  1.0000
  C   C1709     1.0  0.63871  0.12628  0.90081  1.0000
  H   H3010     1.0  0.59394  0.09603  0.97646  1.0000
  N   N95       1.0  0.60947  0.14192  0.55383  1.0000
  C   C1710     1.0  0.59901  0.14259  0.55836  1.0000
  H   H3011     1.0  0.63532  0.12738  0.87634  1.0000
  H   H3012     1.0  0.59388  0.13649  0.58544  1.0000
  H   H3013     1.0  0.56698  0.07567  0.72371  1.0000
  H   H3014     1.0  0.61339  0.03866  0.38535  1.0000
  H   H3015     1.0  0.55853  0.06161  0.37456  1.0000
  C   C1711     1.0  0.54190  0.05884  0.77356  1.0000
  C   C1712     1.0  0.61045  0.13219  0.54759  1.0000
  C   C1713     1.0  0.61659  0.15021  0.51755  1.0000
  H   H3016     1.0  0.59891  0.15470  0.58439  1.0000
  C   C1714     1.0  0.57714  0.03357  0.49387  1.0000
  H   H3017     1.0  0.55486  0.05770  0.42843  1.0000
  H   H3018     1.0  0.61820  0.13163  0.54164  1.0000
  H   H3019     1.0  0.58717  0.02771  0.52326  1.0000
  H   H3020     1.0  0.54949  0.04297  0.73048  1.0000
  H   H3021     1.0  0.54858  0.06119  0.74653  1.0000
  H   H3022     1.0  0.55489  0.04118  0.66281  1.0000
  C   C1715     1.0  0.55250  0.01536  0.89822  1.0000
  C   C1716     1.0  0.55475  0.00793  0.54751  1.0000
  H   H3023     1.0  0.59765  0.09657  0.68383  1.0000
  H   H3024     1.0  0.54371  0.08438  0.89206  1.0000
  H   H3025     1.0  0.53074  0.02624  0.77564  1.0000
  C   C1717     1.0  0.60219  0.02483  0.41443  1.0000
  H   H3026     1.0  0.57689  0.06724  0.68244  1.0000
  C   C1718     1.0  0.62804  0.08750  0.91492  1.0000
  S   S400      1.0  0.60665  0.06551  0.98806  1.0000
  H   H3027     1.0  0.63798  0.10204  0.99586  1.0000
  H   H3028     1.0  0.54879  0.07403  0.38032  1.0000
  C   C1719     1.0  0.54443  0.06387  0.80293  1.0000
  H   H3029     1.0  0.54548  0.04509  0.79892  1.0000
  H   H3030     1.0  0.53787  0.06258  0.82952  1.0000
  S   S401      1.0  0.55102  0.01958  0.69855  1.0000
  H   H3031     1.0  0.57454  0.07661  0.81006  1.0000
  H   H3032     1.0  0.61461  0.10043  0.68374  1.0000
  H   H3033     1.0  0.53193  0.09481  0.90358  1.0000
  H   H3034     1.0  0.57948  0.10616  0.74354  1.0000
  C   C1720     1.0  0.50831  0.07641  0.39380  1.0000
  H   H3035     1.0  0.58884  0.14906  0.20717  1.0000
  H   H3036     1.0  0.56222  0.01759  0.44140  1.0000
  H   H3037     1.0  0.61204  0.07459  0.10317  1.0000
  C   C1721     1.0  0.62944  0.09961  0.05807  1.0000
  C   C1722     1.0  0.53172  0.01428  0.27091  1.0000
  C   C1723     1.0  0.63144  0.10782  0.92754  1.0000
  H   H3038     1.0  0.56607  0.05860  0.72027  1.0000
  S   S402      1.0  0.60655  0.07031  0.87292  1.0000
  Fe  Fe202     1.0  0.59251  0.06045  0.87562  1.0000
  C   C1724     1.0  0.60898  0.06984  0.05497  1.0000
  H   H3039     1.0  0.59929  0.12824  0.52004  1.0000
  H   H3040     1.0  0.57395  0.05287  0.83032  1.0000
  C   C1725     1.0  0.58682  0.03855  0.09680  1.0000
  H   H3041     1.0  0.61529  0.09845  0.91835  1.0000
  C   C1726     1.0  0.51825  0.10558  0.43397  1.0000
  C   C1727     1.0  0.60739  0.13009  0.51213  1.0000
  H   H3042     1.0  0.63802  0.15866  0.19116  1.0000
  H   H3043     1.0  0.51784  0.03301  0.26267  1.0000
  H   H3044     1.0  0.63622  0.16006  0.24049  1.0000
  C   C1728     1.0  0.58330  0.04289  0.82553  1.0000
  H   H3045     1.0  0.55100  0.04691  0.34798  1.0000
  H   H3046     1.0  0.60757  0.11457  0.52946  1.0000
  C   C1729     1.0  0.54871  0.04174  0.37948  1.0000
  H   H3047     1.0  0.54478  0.08967  0.93083  1.0000
  H   H3048     1.0  0.55807  0.08077  0.85766  1.0000
  H   H3049     1.0  0.52620  0.08221  0.91279  1.0000
  H   H3050     1.0  0.56270  0.09144  0.86975  1.0000
  C   C1730     1.0  0.51296  0.02550  0.27518  1.0000
  H   H3051     1.0  0.60107  0.04516  0.09720  1.0000
  H   H3052     1.0  0.61052  0.13658  0.48436  1.0000
  H   H3053     1.0  0.58993  0.05006  0.03905  1.0000
  H   H3054     1.0  0.53863  0.07683  0.94430  1.0000
  C   C1731     1.0  0.53994  0.08435  0.92307  1.0000
  C   C1732     1.0  0.57161  0.09067  0.81237  1.0000
  H   H3055     1.0  0.50778  0.10036  0.95200  1.0000
  C   C1733     1.0  0.61086  0.12133  0.50260  1.0000
  H   H3056     1.0  0.62066  0.06074  0.15551  1.0000
  C   C1734     1.0  0.59532  0.02850  0.44522  1.0000
  H   H3057     1.0  0.54196  0.05815  0.37295  1.0000
  H   H3058     1.0  0.53247  0.07934  0.71462  1.0000
  C   C1735     1.0  0.67547  0.16618  0.19972  1.0000
  C   C1736     1.0  0.57256  0.05192  0.39837  1.0000
  H   H3059     1.0  0.61897  0.12274  0.49349  1.0000
  H   H3060     1.0  0.63223  0.09405  0.88821  1.0000
  C   C1737     1.0  0.53025  0.08718  0.92448  1.0000
  H   H3061     1.0  0.60720  0.10614  0.98932  1.0000
  H   H3062     1.0  0.51916  0.01344  0.83618  1.0000
  C   C1738     1.0  0.51290  0.02223  0.34530  1.0000
  H   H3063     1.0  0.59921  0.10276  0.92256  1.0000
  C   C1739     1.0  0.54635  0.00649  0.89269  1.0000
  H   H3064     1.0  0.59444  0.10895  0.95799  1.0000
  H   H3065     1.0  0.52918  0.09106  0.97815  1.0000
  H   H3066     1.0  0.59767  0.03118  0.31267  1.0000
  C   C1740     1.0  0.52433  0.08628  0.96838  1.0000
  H   H3067     1.0  0.52347  0.07869  0.98823  1.0000
  H   H3068     1.0  0.52953  0.10608  0.94516  1.0000
  H   H3069     1.0  0.54417  0.02098  0.34970  1.0000
  H   H3070     1.0  0.57738  0.05116  0.14368  1.0000
  H   H3071     1.0  0.54716  0.07193  0.78736  1.0000
  H   H3072     1.0  0.55461  0.03215  0.44578  1.0000
  C   C1741     1.0  0.59839  0.10319  0.95347  1.0000
  C   C1742     1.0  0.58550  0.15155  0.57157  1.0000
  C   C1743     1.0  0.58081  0.10487  0.71396  1.0000
  H   H3073     1.0  0.52948  0.01906  0.32256  1.0000
  C   C1744     1.0  0.52222  0.10746  0.94636  1.0000
  H   H3074     1.0  0.57862  0.09453  0.81348  1.0000
  H   H3075     1.0  0.67036  0.16421  0.55908  1.0000
  H   H3076     1.0  0.56968  0.16784  0.36557  1.0000
  Fe  Fe203     1.0  0.55710  0.01538  0.75001  1.0000
  H   H3077     1.0  0.54472  0.03354  0.32324  1.0000
  H   H3078     1.0  0.56858  0.08139  0.87476  1.0000
  H   H3079     1.0  0.61580  0.09276  0.02279  1.0000
  C   C1745     1.0  0.57802  0.02284  0.42283  1.0000
  H   H3080     1.0  0.61055  0.05425  0.12130  1.0000
  H   H3081     1.0  0.64075  0.08118  0.91151  1.0000
  C   C1746     1.0  0.58477  0.03470  0.81294  1.0000
  H   H3082     1.0  0.50638  0.03413  0.39142  1.0000
  H   H3083     1.0  0.53572  0.06996  0.40423  1.0000
  H   H3084     1.0  0.59457  0.05537  0.16239  1.0000
  H   H3085     1.0  0.54119  0.02362  0.90470  1.0000
  H   H3086     1.0  0.63008  0.10933  0.89787  1.0000
  C   C1747     1.0  0.61270  0.05795  0.17254  1.0000
  C   C1748     1.0  0.60846  0.10572  0.95823  1.0000
  H   H3087     1.0  0.60240  0.03236  0.14734  1.0000
  H   H3088     1.0  0.58468  0.07260  0.75313  1.0000
  H   H3089     1.0  0.62511  0.11918  0.94886  1.0000
  H   H3090     1.0  0.68002  0.16723  0.21919  1.0000
  H   H3091     1.0  0.50033  0.02758  0.22838  1.0000
  S   S403      1.0  0.56528  0.01824  0.30417  1.0000
  N   N96       1.0  0.50439  0.08479  0.40400  1.0000
  H   H3092     1.0  0.57065  0.03069  0.48622  1.0000
  H   H3093     1.0  0.54609  0.01334  0.23680  1.0000
  H   H3094     1.0  0.51372  0.00400  0.34397  1.0000
  H   H3095     1.0  0.59498  0.01207  0.20925  1.0000
  H   H3096     1.0  0.57966  0.04118  0.53611  1.0000
  C   C1749     1.0  0.67534  0.14980  0.39976  1.0000
  H   H3097     1.0  0.68096  0.16261  0.47547  1.0000
  H   H3098     1.0  0.50551  0.04278  0.77723  1.0000
  C   C1750     1.0  0.58189  0.02510  0.50879  1.0000
  C   C1751     1.0  0.57348  0.03806  0.52715  1.0000
  H   H3099     1.0  0.52348  0.00442  0.56644  1.0000
  H   H3100     1.0  0.58169  0.00973  0.45229  1.0000
  H   H3101     1.0  0.55181  0.01398  0.93061  1.0000
  H   H3102     1.0  0.54609  0.01822  0.27767  1.0000
  H   H3103     1.0  0.55121  0.00534  0.49603  1.0000
  C   C1752     1.0  0.57171  0.16744  0.82184  1.0000
  H   H3104     1.0  0.50294  0.00995  0.75100  1.0000
  S   S404      1.0  0.65251  0.16864  0.61142  1.0000
  H   H3105     1.0  0.56905  0.01068  0.41395  1.0000
  C   C1753     1.0  0.53123  0.01055  0.62797  1.0000
  C   C1754     1.0  0.67170  0.15658  0.42315  1.0000
  H   H3106     1.0  0.50863  0.01434  0.24752  1.0000
  H   H3107     1.0  0.59685  0.01594  0.50942  1.0000
  C   C1755     1.0  0.57532  0.16841  0.85351  1.0000
  C   C1756     1.0  0.51119  0.00839  0.31995  1.0000
  H   H3108     1.0  0.58479  0.16761  0.96903  1.0000
  H   H3109     1.0  0.56792  0.03242  0.55437  1.0000
  H   H3110     1.0  0.66879  0.16379  0.49301  1.0000
  C   C1757     1.0  0.52094  0.00378  0.63860  1.0000
  Fe  Fe204     1.0  0.53748  0.00814  0.73826  1.0000
  H   H3111     1.0  0.50490  0.10306  0.42006  1.0000
  H   H3112     1.0  0.51344  0.00550  0.29431  1.0000
  H   H3113     1.0  0.58393  0.15871  0.57275  1.0000
  H   H3114     1.0  0.59443  0.00901  0.47782  1.0000
  H   H3115     1.0  0.53484  0.00744  0.65023  1.0000
  H   H3116     1.0  0.56462  0.00267  0.89252  1.0000
  H   H3117     1.0  0.59306  0.15863  0.25045  1.0000
  H   H3118     1.0  0.60816  0.16486  0.31460  1.0000
  H   H3119     1.0  0.66990  0.14259  0.41211  1.0000
  H   H3120     1.0  0.59800  0.01949  0.40451  1.0000
  H   H3121     1.0  0.59890  0.01472  0.24932  1.0000
  C   C1758     1.0  0.57957  0.01612  0.46087  1.0000
  H   H3122     1.0  0.51669  0.00834  0.62344  1.0000
  H   H3123     1.0  0.68660  0.16540  0.40424  1.0000
  H   H3124     1.0  0.53863  0.00583  0.91029  1.0000
  H   H3125     1.0  0.56182  0.00855  0.82471  1.0000
  H   H3126     1.0  0.66457  0.15751  0.41927  1.0000
  C   C1759     1.0  0.50811  0.02832  0.21127  1.0000
  C   C1760     1.0  0.67823  0.16788  0.54344  1.0000
  C   C1761     1.0  0.51513  0.06141  0.41276  1.0000
  H   H3127     1.0  0.50487  0.02155  0.35546  1.0000
  H   H3128     1.0  0.51745  0.05669  0.43653  1.0000
  H   H3129     1.0  0.59408  0.16192  0.17926  1.0000
  C   C1762     1.0  0.51153  0.06964  0.42674  1.0000
  S   S405      1.0  0.56329  0.00380  0.72665  1.0000
  H   H3130     1.0  0.50920  0.05674  0.40727  1.0000
  C   C1763     1.0  0.50465  0.00287  0.75351  1.0000
  H   H3131     1.0  0.63187  0.16779  0.20387  1.0000
  C   C1764     1.0  0.67916  0.16673  0.40691  1.0000
  H   H3132     1.0  0.50031  0.05895  0.15395  1.0000
  C   C1765     1.0  0.67644  0.16813  0.47500  1.0000
  C   C1766     1.0  0.72496  0.30561  0.25514  1.0000
  C   C1767     1.0  0.68888  0.22558  0.09749  1.0000
  H   H3133     1.0  0.66145  0.16941  0.44560  1.0000
  C   C1768     1.0  0.59758  0.33467  0.79354  1.0000
  H   H3134     1.0  0.72545  0.30921  0.33605  1.0000
  H   H3135     1.0  0.60603  0.19483  0.41575  1.0000
  H   H3136     1.0  0.58897  0.30175  0.74616  1.0000
  H   H3137     1.0  0.56403  0.30569  0.67035  1.0000
  C   C1769     1.0  0.56563  0.29907  0.68879  1.0000
  C   C1770     1.0  0.73285  0.31365  0.21958  1.0000
  H   H3138     1.0  0.65548  0.20124  0.97077  1.0000
  H   H3139     1.0  0.68483  0.25508  0.09974  1.0000
  H   H3140     1.0  0.62596  0.22476  0.30660  1.0000
  H   H3141     1.0  0.59354  0.29045  0.13053  1.0000
  H   H3142     1.0  0.62586  0.25942  0.99389  1.0000
  H   H3143     1.0  0.58539  0.27297  0.17185  1.0000
  H   H3144     1.0  0.57197  0.29727  0.66953  1.0000
  C   C1771     1.0  0.57371  0.17598  0.97625  1.0000
  H   H3145     1.0  0.64984  0.20649  0.93376  1.0000
  H   H3146     1.0  0.56110  0.30224  0.74449  1.0000
  H   H3147     1.0  0.58107  0.31769  0.39356  1.0000
  Fe  Fe205     1.0  0.62201  0.22279  0.20775  1.0000
  S   S406      1.0  0.61240  0.21185  0.19198  1.0000
  S   S407      1.0  0.63506  0.21891  0.22444  1.0000
  Fe  Fe206     1.0  0.60840  0.23682  0.20708  1.0000
  S   S408      1.0  0.59739  0.22663  0.19391  1.0000
  S   S409      1.0  0.60658  0.25236  0.20094  1.0000
  Fe  Fe207     1.0  0.60017  0.21416  0.23899  1.0000
  C   C1772     1.0  0.69634  0.22665  0.01605  1.0000
  Fe  Fe208     1.0  0.61046  0.22511  0.14837  1.0000
  S   S410      1.0  0.61162  0.22898  0.08208  1.0000
  S   S411      1.0  0.60992  0.22461  0.25658  1.0000
  S   S412      1.0  0.62136  0.23580  0.15955  1.0000
  Fe  Fe209     1.0  0.62508  0.31299  0.18320  1.0000
  S   S413      1.0  0.61076  0.30209  0.21849  1.0000
  S   S414      1.0  0.63274  0.31516  0.11750  1.0000
  Fe  Fe210     1.0  0.62696  0.31894  0.25633  1.0000
  S   S415      1.0  0.61285  0.30810  0.29830  1.0000
  H   H3148     1.0  0.61175  0.18166  0.33508  1.0000
  Fe  Fe211     1.0  0.61799  0.29761  0.26560  1.0000
  S   S416      1.0  0.61630  0.28133  0.29610  1.0000
  Fe  Fe212     1.0  0.60689  0.31344  0.24756  1.0000
  S   S417      1.0  0.59267  0.31801  0.25230  1.0000
  S   S418      1.0  0.63271  0.30799  0.22848  1.0000
  S   S419      1.0  0.62059  0.32479  0.20736  1.0000
  Fe  Fe213     1.0  0.59421  0.20549  0.85693  1.0000
  S   S420      1.0  0.60642  0.21907  0.81920  1.0000
  H   H3149     1.0  0.59803  0.19394  0.38664  1.0000
  Fe  Fe214     1.0  0.59817  0.20671  0.93513  1.0000
  S   S421      1.0  0.61076  0.21995  0.90317  1.0000
  S   S422      1.0  0.59379  0.19964  0.00332  1.0000
  Fe  Fe215     1.0  0.60111  0.22565  0.86835  1.0000
  S   S423      1.0  0.59996  0.24155  0.85340  1.0000
  Fe  Fe216     1.0  0.61511  0.21243  0.85716  1.0000
  S   S424      1.0  0.63072  0.21156  0.83209  1.0000
  S   S425      1.0  0.58809  0.21278  0.90296  1.0000
  H   H3150     1.0  0.71424  0.26993  0.35327  1.0000
  Fe  Fe217     1.0  0.61258  0.30163  0.96649  1.0000
  S   S426      1.0  0.62319  0.29212  0.96875  1.0000
  S   S427      1.0  0.60421  0.30448  0.02266  1.0000
  Fe  Fe218     1.0  0.61784  0.30731  0.87525  1.0000
  S   S428      1.0  0.62913  0.29825  0.86986  1.0000
  S   S429      1.0  0.61611  0.31784  0.82009  1.0000
  Fe  Fe219     1.0  0.61770  0.28666  0.92413  1.0000
  S   S430      1.0  0.61553  0.27006  0.94154  1.0000
  Fe  Fe220     1.0  0.63362  0.30442  0.91493  1.0000
  S   S431      1.0  0.64916  0.30912  0.91469  1.0000
  S   S432      1.0  0.60607  0.29527  0.92627  1.0000
  S   S433      1.0  0.62332  0.31429  0.91589  1.0000
  C   C1773     1.0  0.59215  0.29714  0.81798  1.0000
  C   C1774     1.0  0.74115  0.27585  0.25397  1.0000
  H   H3151     1.0  0.57935  0.24254  0.27084  1.0000
  S   S434      1.0  0.66113  0.23987  0.87399  1.0000
  H   H3152     1.0  0.66135  0.24757  0.02014  1.0000
  C   C1775     1.0  0.58334  0.30371  0.76840  1.0000
  H   H3153     1.0  0.56902  0.29391  0.74378  1.0000
  C   C1776     1.0  0.64823  0.32851  0.89806  1.0000
  H   H3154     1.0  0.59662  0.27103  0.17931  1.0000
  H   H3155     1.0  0.60511  0.26588  0.10792  1.0000
  H   H3156     1.0  0.58975  0.29209  0.25736  1.0000
  H   H3157     1.0  0.66639  0.26358  0.83346  1.0000
  S   S435      1.0  0.71687  0.26256  0.20835  1.0000
  C   C1777     1.0  0.65325  0.32150  0.91095  1.0000
  C   C1778     1.0  0.56792  0.20410  0.00059  1.0000
  C   C1779     1.0  0.66174  0.32445  0.92034  1.0000
  H   H3158     1.0  0.57403  0.24084  0.17273  1.0000
  H   H3159     1.0  0.66570  0.31908  0.93012  1.0000
  C   C1780     1.0  0.58994  0.24267  0.05187  1.0000
  C   C1781     1.0  0.65885  0.26512  0.89244  1.0000
  C   C1782     1.0  0.59213  0.27650  0.17594  1.0000
  H   H3160     1.0  0.63147  0.27423  0.14295  1.0000
  S   S436      1.0  0.70635  0.23371  0.21277  1.0000
  H   H3161     1.0  0.59732  0.28311  0.21485  1.0000
  H   H3162     1.0  0.69928  0.22701  0.98466  1.0000
  C   C1783     1.0  0.63701  0.28136  0.12874  1.0000
  H   H3163     1.0  0.71263  0.27971  0.99915  1.0000
  H   H3164     1.0  0.64309  0.28060  0.10452  1.0000
  C   C1784     1.0  0.63919  0.21940  0.84361  1.0000
  C   C1785     1.0  0.64753  0.21656  0.85026  1.0000
  C   C1786     1.0  0.65438  0.22284  0.85896  1.0000
  C   C1787     1.0  0.65299  0.23203  0.86075  1.0000
  C   C1788     1.0  0.64477  0.23493  0.85311  1.0000
  C   C1789     1.0  0.63784  0.22862  0.84507  1.0000
  N   N97       1.0  0.72242  0.29110  0.32019  1.0000
  H   H3165     1.0  0.58769  0.17438  0.73061  1.0000
  H   H3166     1.0  0.64371  0.24204  0.85361  1.0000
  H   H3167     1.0  0.63151  0.23094  0.83941  1.0000
  C   C1790     1.0  0.60430  0.24940  0.87825  1.0000
  C   C1791     1.0  0.60445  0.25944  0.86467  1.0000
  C   C1792     1.0  0.60787  0.26591  0.88363  1.0000
  C   C1793     1.0  0.61108  0.26233  0.91666  1.0000
  C   C1794     1.0  0.61089  0.25228  0.93038  1.0000
  C   C1795     1.0  0.60755  0.24585  0.91122  1.0000
  H   H3168     1.0  0.60196  0.26225  0.83917  1.0000
  H   H3169     1.0  0.60801  0.27363  0.87271  1.0000
  H   H3170     1.0  0.61334  0.24945  0.95598  1.0000
  H   H3171     1.0  0.60743  0.23814  0.92218  1.0000
  C   C1796     1.0  0.62475  0.31258  0.09084  1.0000
  C   C1797     1.0  0.61470  0.31178  0.10674  1.0000
  C   C1798     1.0  0.60843  0.30950  0.08529  1.0000
  C   C1799     1.0  0.61217  0.30787  0.04822  1.0000
  C   C1800     1.0  0.62226  0.30893  0.03189  1.0000
  C   C1801     1.0  0.62853  0.31131  0.05308  1.0000
  H   H3172     1.0  0.61175  0.31300  0.13538  1.0000
  H   H3173     1.0  0.60066  0.30890  0.09768  1.0000
  H   H3174     1.0  0.62528  0.30795  0.00285  1.0000
  H   H3175     1.0  0.63632  0.31209  0.04026  1.0000
  H   H3176     1.0  0.62547  0.21502  0.08471  1.0000
  H   H3177     1.0  0.64191  0.32642  0.88949  1.0000
  H   H3178     1.0  0.64395  0.19460  0.97127  1.0000
  H   H3179     1.0  0.58173  0.30586  0.82771  1.0000
  H   H3180     1.0  0.56558  0.30619  0.79472  1.0000
  H   H3181     1.0  0.63662  0.20079  0.12255  1.0000
  C   C1802     1.0  0.71670  0.28411  0.30538  1.0000
  H   H3182     1.0  0.62375  0.20033  0.14140  1.0000
  H   H3183     1.0  0.63269  0.21046  0.14078  1.0000
  C   C1803     1.0  0.60580  0.22060  0.06331  1.0000
  C   C1804     1.0  0.60433  0.22426  0.02590  1.0000
  C   C1805     1.0  0.60036  0.21787  0.00817  1.0000
  C   C1806     1.0  0.59799  0.20771  0.02735  1.0000
  C   C1807     1.0  0.59915  0.20401  0.06553  1.0000
  C   C1808     1.0  0.60305  0.21045  0.08356  1.0000
  H   H3184     1.0  0.60635  0.23210  0.01028  1.0000
  H   H3185     1.0  0.59918  0.22083  0.97949  1.0000
  H   H3186     1.0  0.72291  0.28122  0.37612  1.0000
  H   H3187     1.0  0.60414  0.20756  0.11255  1.0000
  C   C1809     1.0  0.61093  0.26010  0.22585  1.0000
  C   C1810     1.0  0.61302  0.27030  0.20697  1.0000
  C   C1811     1.0  0.61480  0.27682  0.22810  1.0000
  C   C1812     1.0  0.61459  0.27323  0.26837  1.0000
  C   C1813     1.0  0.61284  0.26303  0.28693  1.0000
  C   C1814     1.0  0.61102  0.25647  0.26575  1.0000
  H   H3188     1.0  0.61306  0.27318  0.17601  1.0000
  H   H3189     1.0  0.61633  0.28463  0.21312  1.0000
  H   H3190     1.0  0.61269  0.26019  0.31809  1.0000
  H   H3191     1.0  0.60929  0.24861  0.28083  1.0000
  C   C1815     1.0  0.73466  0.27377  0.08209  1.0000
  H   H3192     1.0  0.64683  0.17276  0.53941  1.0000
  C   C1816     1.0  0.65131  0.32633  0.27906  1.0000
  C   C1817     1.0  0.73963  0.25942  0.79765  1.0000
  H   H3193     1.0  0.74279  0.27823  0.36887  1.0000
  H   H3194     1.0  0.58594  0.28497  0.06069  1.0000
  H   H3195     1.0  0.66460  0.32256  0.28660  1.0000
  H   H3196     1.0  0.64772  0.31892  0.28274  1.0000
  C   C1818     1.0  0.55696  0.18419  0.96069  1.0000
  H   H3197     1.0  0.58940  0.24479  0.29011  1.0000
  C   C1819     1.0  0.69415  0.26841  0.95680  1.0000
  H   H3198     1.0  0.57733  0.29691  0.78387  1.0000
  C   C1820     1.0  0.58759  0.30548  0.80165  1.0000
  H   H3199     1.0  0.62313  0.23540  0.96658  1.0000
  H   H3200     1.0  0.67277  0.24405  0.00530  1.0000
  H   H3201     1.0  0.66706  0.24841  0.96770  1.0000
  C   C1821     1.0  0.56777  0.30080  0.72590  1.0000
  C   C1822     1.0  0.66197  0.24339  0.19794  1.0000
  C   C1823     1.0  0.66029  0.23422  0.22702  1.0000
  C   C1824     1.0  0.65187  0.22687  0.23562  1.0000
  C   C1825     1.0  0.64511  0.22860  0.21502  1.0000
  C   C1826     1.0  0.64667  0.23783  0.18644  1.0000
  C   C1827     1.0  0.65510  0.24521  0.17789  1.0000
  H   H3202     1.0  0.66546  0.23279  0.24314  1.0000
  H   H3203     1.0  0.65063  0.21982  0.25830  1.0000
  H   H3204     1.0  0.64150  0.23921  0.17036  1.0000
  H   H3205     1.0  0.65441  0.29014  0.19199  1.0000
  C   C1828     1.0  0.60470  0.33121  0.68455  1.0000
  C   C1829     1.0  0.67991  0.17431  0.49994  1.0000
  C   C1830     1.0  0.66085  0.32841  0.28131  1.0000
  C   C1831     1.0  0.60571  0.32278  0.82446  1.0000
  C   C1832     1.0  0.59706  0.31838  0.85735  1.0000
  C   C1833     1.0  0.58859  0.32191  0.85753  1.0000
  H   H3206     1.0  0.60451  0.17330  0.81173  1.0000
  H   H3207     1.0  0.70251  0.19607  0.35763  1.0000
  H   H3208     1.0  0.59678  0.31200  0.88174  1.0000
  H   H3209     1.0  0.58181  0.31823  0.88225  1.0000
  H   H3210     1.0  0.63091  0.26455  0.88054  1.0000
  H   H3211     1.0  0.58854  0.32455  0.75277  1.0000
  N   N98       1.0  0.64992  0.26834  0.88537  1.0000
  H   H3212     1.0  0.62045  0.22319  0.96259  1.0000
  H   H3213     1.0  0.61194  0.20051  0.27100  1.0000
  C   C1834     1.0  0.58534  0.26272  0.25757  1.0000
  H   H3214     1.0  0.59955  0.17581  0.39739  1.0000
  H   H3215     1.0  0.59665  0.31673  0.94421  1.0000
  H   H3216     1.0  0.62324  0.19729  0.27207  1.0000
  C   C1835     1.0  0.58846  0.32323  0.29060  1.0000
  C   C1836     1.0  0.58686  0.31807  0.33140  1.0000
  C   C1837     1.0  0.58258  0.32186  0.36199  1.0000
  H   H3217     1.0  0.73569  0.26967  0.14285  1.0000
  C   C1838     1.0  0.59123  0.17781  0.45201  1.0000
  H   H3218     1.0  0.58861  0.31101  0.33952  1.0000
  H   H3219     1.0  0.64586  0.20254  0.79810  1.0000
  C   C1839     1.0  0.61029  0.20217  0.73249  1.0000
  H   H3220     1.0  0.58400  0.26020  0.23271  1.0000
  S   S437      1.0  0.60337  0.19850  0.89193  1.0000
  C   C1840     1.0  0.61829  0.21187  0.36038  1.0000
  C   C1841     1.0  0.61804  0.21027  0.73545  1.0000
  H   H3221     1.0  0.63403  0.28481  0.18402  1.0000
  H   H3222     1.0  0.57087  0.27423  0.20205  1.0000
  H   H3223     1.0  0.58662  0.28999  0.83139  1.0000
  C   C1842     1.0  0.61687  0.22051  0.71536  1.0000
  H   H3224     1.0  0.59319  0.26306  0.25377  1.0000
  H   H3225     1.0  0.60290  0.20282  0.74915  1.0000
  H   H3226     1.0  0.61074  0.20426  0.70010  1.0000
  H   H3227     1.0  0.62955  0.20554  0.06661  1.0000
  N   N99       1.0  0.58352  0.27281  0.25416  1.0000
  H   H3228     1.0  0.69188  0.20483  0.17245  1.0000
  C   C1843     1.0  0.70184  0.26445  0.97505  1.0000
  N   N100      1.0  0.61115  0.19173  0.74813  1.0000
  H   H3229     1.0  0.62454  0.20117  0.66571  1.0000
  H   H3230     1.0  0.61726  0.20954  0.76754  1.0000
  H   H3231     1.0  0.62556  0.20991  0.72008  1.0000
  H   H3232     1.0  0.60489  0.28867  0.13935  1.0000
  H   H3233     1.0  0.59692  0.31861  0.67635  1.0000
  H   H3234     1.0  0.68744  0.20553  0.10994  1.0000
  C   C1844     1.0  0.59793  0.28498  0.13688  1.0000
  H   H3235     1.0  0.62693  0.23363  0.91784  1.0000
  H   H3236     1.0  0.59979  0.28218  0.11078  1.0000
  H   H3237     1.0  0.61849  0.22202  0.68213  1.0000
  H   H3238     1.0  0.60930  0.22115  0.72885  1.0000
  H   H3239     1.0  0.62203  0.22614  0.72031  1.0000
  H   H3240     1.0  0.65882  0.22950  0.04169  1.0000
  H   H3241     1.0  0.62938  0.28651  0.08604  1.0000
  C   C1845     1.0  0.70995  0.27443  0.33825  1.0000
  N   N101      1.0  0.57965  0.31202  0.74682  1.0000
  C   C1846     1.0  0.57682  0.30951  0.71279  1.0000
  C   C1847     1.0  0.58743  0.32154  0.72864  1.0000
  C   C1848     1.0  0.57102  0.31334  0.77724  1.0000
  C   C1849     1.0  0.56565  0.32098  0.75959  1.0000
  C   C1850     1.0  0.59757  0.32110  0.70219  1.0000
  H   H3242     1.0  0.69039  0.27088  0.04291  1.0000
  C   C1851     1.0  0.55661  0.32110  0.79257  1.0000
  H   H3243     1.0  0.58300  0.30761  0.69301  1.0000
  H   H3244     1.0  0.57550  0.31604  0.69226  1.0000
  C   C1852     1.0  0.74080  0.27198  0.11122  1.0000
  H   H3245     1.0  0.70980  0.26607  0.29631  1.0000
  H   H3246     1.0  0.57340  0.31581  0.80055  1.0000
  H   H3247     1.0  0.56316  0.31936  0.73510  1.0000
  H   H3248     1.0  0.73558  0.25015  0.09061  1.0000
  C   C1853     1.0  0.65357  0.20118  0.73944  1.0000
  C   C1854     1.0  0.62099  0.19038  0.72656  1.0000
  C   C1855     1.0  0.60439  0.19134  0.39365  1.0000
  C   C1856     1.0  0.57286  0.18660  0.97428  1.0000
  C   C1857     1.0  0.70637  0.25621  0.03395  1.0000
  H   H3249     1.0  0.61738  0.18126  0.26428  1.0000
  H   H3250     1.0  0.55289  0.32660  0.77922  1.0000
  H   H3251     1.0  0.55915  0.29281  0.69886  1.0000
  H   H3252     1.0  0.66133  0.18470  0.08050  1.0000
  H   H3253     1.0  0.57140  0.21889  0.95722  1.0000
  H   H3254     1.0  0.73756  0.31031  0.20003  1.0000
  C   C1858     1.0  0.65087  0.33286  0.15678  1.0000
  H   H3255     1.0  0.60762  0.16937  0.87697  1.0000
  H   H3256     1.0  0.67607  0.18026  0.50144  1.0000
  C   C1859     1.0  0.66468  0.18395  0.44920  1.0000
  C   C1860     1.0  0.57705  0.16975  0.30280  1.0000
  N   N102      1.0  0.56259  0.18810  0.98493  1.0000
  H   H3257     1.0  0.63883  0.18518  0.36405  1.0000
  C   C1861     1.0  0.72514  0.31576  0.02438  1.0000
  C   C1862     1.0  0.61211  0.32719  0.38435  1.0000
  H   H3258     1.0  0.66768  0.20131  0.11874  1.0000
  H   H3259     1.0  0.73643  0.23484  0.13774  1.0000
  H   H3260     1.0  0.61400  0.30851  0.38406  1.0000
  S   S438      1.0  0.74939  0.32472  0.29206  1.0000
  H   H3261     1.0  0.57082  0.17360  0.95399  1.0000
  H   H3262     1.0  0.72373  0.28168  0.07064  1.0000
  H   H3263     1.0  0.67044  0.19092  0.43551  1.0000
  N   N103      1.0  0.67714  0.17354  0.43163  1.0000
  H   H3264     1.0  0.58529  0.17416  0.23899  1.0000
  H   H3265     1.0  0.67919  0.17012  0.37530  1.0000
  H   H3266     1.0  0.54784  0.19241  0.04519  1.0000
  H   H3267     1.0  0.57748  0.19166  0.94352  1.0000
  H   H3268     1.0  0.63947  0.19437  0.67167  1.0000
  C   C1863     1.0  0.60685  0.30861  0.40465  1.0000
  H   H3269     1.0  0.57130  0.21845  0.00762  1.0000
  H   H3270     1.0  0.60447  0.19267  0.68018  1.0000
  H   H3271     1.0  0.54962  0.18584  0.96716  1.0000
  S   S439      1.0  0.64466  0.17303  0.71451  1.0000
  C   C1864     1.0  0.56318  0.19897  0.97535  1.0000
  H   H3272     1.0  0.73018  0.26680  0.08313  1.0000
  H   H3273     1.0  0.73815  0.26121  0.29582  1.0000
  H   H3274     1.0  0.72253  0.31077  0.05634  1.0000
  H   H3275     1.0  0.72367  0.31142  0.00462  1.0000
  H   H3276     1.0  0.64637  0.33355  0.06435  1.0000
  H   H3277     1.0  0.68073  0.19098  0.36505  1.0000
  C   C1865     1.0  0.61367  0.18729  0.25707  1.0000
  H   H3278     1.0  0.60980  0.26038  0.02924  1.0000
  H   H3279     1.0  0.70891  0.27005  0.96038  1.0000
  H   H3280     1.0  0.62326  0.22722  0.35419  1.0000
  N   N104      1.0  0.64366  0.22307  0.01162  1.0000
  C   C1866     1.0  0.63442  0.22455  0.00199  1.0000
  C   C1867     1.0  0.64143  0.21839  0.05697  1.0000
  C   C1868     1.0  0.65042  0.23315  0.99882  1.0000
  C   C1869     1.0  0.64887  0.21714  0.98833  1.0000
  C   C1870     1.0  0.64286  0.20677  0.99489  1.0000
  C   C1871     1.0  0.63559  0.22879  0.95624  1.0000
  C   C1872     1.0  0.66009  0.23347  0.00922  1.0000
  C   C1873     1.0  0.63137  0.21098  0.08146  1.0000
  C   C1874     1.0  0.63113  0.20531  0.12415  1.0000
  C   C1875     1.0  0.64841  0.20203  0.96585  1.0000
  C   C1876     1.0  0.62591  0.23035  0.95061  1.0000
  C   C1877     1.0  0.66562  0.24405  0.99997  1.0000
  H   H3281     1.0  0.63109  0.22941  0.01799  1.0000
  H   H3282     1.0  0.62870  0.21757  0.01373  1.0000
  H   H3283     1.0  0.64729  0.21468  0.06283  1.0000
  H   H3284     1.0  0.64157  0.22413  0.07220  1.0000
  H   H3285     1.0  0.64648  0.23803  0.01263  1.0000
  H   H3286     1.0  0.65276  0.23672  0.96534  1.0000
  H   H3287     1.0  0.65169  0.22129  0.95512  1.0000
  H   H3288     1.0  0.65551  0.21599  0.99663  1.0000
  H   H3289     1.0  0.63574  0.20700  0.98974  1.0000
  H   H3290     1.0  0.64158  0.20192  0.02619  1.0000
  H   H3291     1.0  0.64098  0.23597  0.94110  1.0000
  H   H3292     1.0  0.63792  0.22360  0.94014  1.0000
  H   H3293     1.0  0.66495  0.23009  0.99049  1.0000
  N   N105      1.0  0.67562  0.19394  0.15582  1.0000
  H   H3294     1.0  0.63704  0.28838  0.23399  1.0000
  H   H3295     1.0  0.59651  0.18200  0.77257  1.0000
  H   H3296     1.0  0.61623  0.25418  0.11208  1.0000
  C   C1878     1.0  0.64067  0.28447  0.16124  1.0000
  H   H3297     1.0  0.62597  0.28999  0.13122  1.0000
  C   C1879     1.0  0.58995  0.28017  0.21337  1.0000
  H   H3298     1.0  0.70676  0.24985  0.02246  1.0000
  H   H3299     1.0  0.69696  0.28814  0.04567  1.0000
  H   H3300     1.0  0.74229  0.28934  0.20810  1.0000
  H   H3301     1.0  0.67777  0.18627  0.08924  1.0000
  H   H3302     1.0  0.64519  0.29220  0.14678  1.0000
  H   H3303     1.0  0.58686  0.28671  0.20575  1.0000
  H   H3304     1.0  0.68818  0.26216  0.96041  1.0000
  C   C1880     1.0  0.58043  0.18630  0.82311  1.0000
  C   C1881     1.0  0.63220  0.28896  0.10836  1.0000
  C   C1882     1.0  0.71521  0.29510  0.34622  1.0000
  H   H3305     1.0  0.64452  0.25439  0.87901  1.0000
  H   H3306     1.0  0.66572  0.18073  0.20173  1.0000
  C   C1883     1.0  0.61487  0.20546  0.33613  1.0000
  H   H3307     1.0  0.63238  0.26842  0.22285  1.0000
  C   C1884     1.0  0.71880  0.25533  0.90360  1.0000
  C   C1885     1.0  0.67663  0.26456  0.86577  1.0000
  C   C1886     1.0  0.58647  0.27593  0.28690  1.0000
  C   C1887     1.0  0.57287  0.27281  0.26102  1.0000
  C   C1888     1.0  0.56805  0.26887  0.23327  1.0000
  C   C1889     1.0  0.58148  0.24448  0.29562  1.0000
  H   H3308     1.0  0.59414  0.27539  0.28445  1.0000
  H   H3309     1.0  0.57187  0.28042  0.25639  1.0000
  C   C1890     1.0  0.65239  0.27907  0.86073  1.0000
  H   H3310     1.0  0.55369  0.26504  0.22718  1.0000
  H   H3311     1.0  0.57725  0.23858  0.32482  1.0000
  S   S440      1.0  0.68813  0.20936  0.82737  1.0000
  C   C1891     1.0  0.59908  0.33210  0.94169  1.0000
  H   H3312     1.0  0.55362  0.26210  0.27903  1.0000
  C   C1892     1.0  0.57933  0.25433  0.29774  1.0000
  C   C1893     1.0  0.58573  0.28645  0.28738  1.0000
  C   C1894     1.0  0.55696  0.26763  0.24814  1.0000
  H   H3313     1.0  0.56937  0.26162  0.23235  1.0000
  H   H3314     1.0  0.63762  0.29615  0.09197  1.0000
  S   S441      1.0  0.68795  0.23639  0.83074  1.0000
  H   H3315     1.0  0.58954  0.29674  0.31760  1.0000
  H   H3316     1.0  0.58183  0.27093  0.31767  1.0000
  H   H3317     1.0  0.58128  0.25562  0.32389  1.0000
  H   H3318     1.0  0.57798  0.28693  0.29600  1.0000
  S   S442      1.0  0.68947  0.24387  0.25467  1.0000
  H   H3319     1.0  0.65772  0.21625  0.77137  1.0000
  H   H3320     1.0  0.63769  0.26432  0.18224  1.0000
  H   H3321     1.0  0.63654  0.27618  0.26443  1.0000
  H   H3322     1.0  0.63974  0.28843  0.29767  1.0000
  C   C1895     1.0  0.64148  0.28347  0.24528  1.0000
  H   H3323     1.0  0.59605  0.25041  0.14432  1.0000
  H   H3324     1.0  0.65638  0.25226  0.15519  1.0000
  C   C1896     1.0  0.73105  0.27749  0.20943  1.0000
  H   H3325     1.0  0.67878  0.26862  0.88530  1.0000
  H   H3326     1.0  0.74900  0.27448  0.16592  1.0000
  H   H3327     1.0  0.66531  0.29747  0.81810  1.0000
  H   H3328     1.0  0.73144  0.26076  0.02052  1.0000
  C   C1897     1.0  0.58997  0.28914  0.31849  1.0000
  H   H3329     1.0  0.56844  0.26866  0.29331  1.0000
  H   H3330     1.0  0.57135  0.25358  0.30380  1.0000
  H   H3331     1.0  0.58578  0.28406  0.34966  1.0000
  H   H3332     1.0  0.67138  0.19667  0.70816  1.0000
  C   C1898     1.0  0.63953  0.26787  0.20393  1.0000
  H   H3333     1.0  0.55517  0.27474  0.24892  1.0000
  H   H3334     1.0  0.62516  0.21047  0.36570  1.0000
  C   C1899     1.0  0.65500  0.27755  0.14796  1.0000
  H   H3335     1.0  0.65292  0.27148  0.13618  1.0000
  C   C1900     1.0  0.57666  0.18535  0.79189  1.0000
  H   H3336     1.0  0.62927  0.25169  0.27572  1.0000
  N   N106      1.0  0.64630  0.27796  0.18131  1.0000
  C   C1901     1.0  0.64579  0.28783  0.27276  1.0000
  H   H3337     1.0  0.65059  0.29531  0.25531  1.0000
  S   S443      1.0  0.67278  0.25248  0.18544  1.0000
  H   H3338     1.0  0.59777  0.28883  0.31140  1.0000
  H   H3339     1.0  0.72516  0.25392  0.27220  1.0000
  H   H3340     1.0  0.63323  0.24764  0.23205  1.0000
  H   H3341     1.0  0.66952  0.26843  0.11670  1.0000
  S   S444      1.0  0.69684  0.22468  0.89816  1.0000
  H   H3342     1.0  0.61262  0.21042  0.39006  1.0000
  H   H3343     1.0  0.72934  0.31835  0.20087  1.0000
  H   H3344     1.0  0.59188  0.19151  0.23291  1.0000
  H   H3345     1.0  0.63334  0.20284  0.31380  1.0000
  C   C1902     1.0  0.64967  0.28260  0.20962  1.0000
  H   H3346     1.0  0.67591  0.22147  0.78796  1.0000
  H   H3347     1.0  0.68351  0.25718  0.02855  1.0000
  S   S445      1.0  0.70873  0.25498  0.84749  1.0000
  H   H3348     1.0  0.66782  0.28332  0.16320  1.0000
  H   H3349     1.0  0.66454  0.28450  0.88125  1.0000
  H   H3350     1.0  0.63120  0.18901  0.81634  1.0000
  C   C1903     1.0  0.63570  0.25067  0.25387  1.0000
  H   H3351     1.0  0.65005  0.28304  0.28655  1.0000
  S   S446      1.0  0.68220  0.21499  0.30514  1.0000
  H   H3352     1.0  0.66421  0.30186  0.86086  1.0000
  H   H3353     1.0  0.61888  0.32690  0.36182  1.0000
  H   H3354     1.0  0.55134  0.31378  0.80576  1.0000
  C   C1904     1.0  0.64339  0.26043  0.23157  1.0000
  H   H3355     1.0  0.65730  0.28441  0.12128  1.0000
  S   S447      1.0  0.70050  0.25207  0.15649  1.0000
  S   S448      1.0  0.65997  0.17773  0.78447  1.0000
  H   H3356     1.0  0.67454  0.20826  0.16065  1.0000
  H   H3357     1.0  0.53555  0.18011  0.10580  1.0000
  C   C1905     1.0  0.67225  0.27526  0.12264  1.0000
  H   H3358     1.0  0.64529  0.26321  0.25497  1.0000
  H   H3359     1.0  0.65433  0.27847  0.22373  1.0000
  H   H3360     1.0  0.63926  0.20453  0.76221  1.0000
  H   H3361     1.0  0.65380  0.21420  0.64836  1.0000
  C   C1906     1.0  0.67445  0.24316  0.09806  1.0000
  H   H3362     1.0  0.64864  0.20943  0.84934  1.0000
  H   H3363     1.0  0.59837  0.29671  0.79333  1.0000
  H   H3364     1.0  0.70562  0.30271  0.40440  1.0000
  H   H3365     1.0  0.64992  0.25883  0.21312  1.0000
  H   H3366     1.0  0.70089  0.26901  0.89442  1.0000
  H   H3367     1.0  0.68118  0.23373  0.75252  1.0000
  C   C1907     1.0  0.72556  0.26003  0.91843  1.0000
  H   H3368     1.0  0.71044  0.23240  0.02015  1.0000
  H   H3369     1.0  0.67483  0.21963  0.09373  1.0000
  H   H3370     1.0  0.57572  0.20388  0.99401  1.0000
  S   S449      1.0  0.68298  0.23992  0.91867  1.0000
  C   C1908     1.0  0.67453  0.22755  0.76556  1.0000
  C   C1909     1.0  0.70454  0.28725  0.03469  1.0000
  C   C1910     1.0  0.58565  0.28343  0.03243  1.0000
  H   H3371     1.0  0.70708  0.28463  0.06115  1.0000
  H   H3372     1.0  0.57696  0.19189  0.76820  1.0000
  H   H3373     1.0  0.68191  0.20386  0.63564  1.0000
  H   H3374     1.0  0.68974  0.24764  0.02532  1.0000
  H   H3375     1.0  0.64930  0.22001  0.72699  1.0000
  H   H3376     1.0  0.55581  0.20045  0.97838  1.0000
  C   C1911     1.0  0.66803  0.19811  0.32412  1.0000
  H   H3377     1.0  0.55633  0.17515  0.90073  1.0000
  C   C1912     1.0  0.67229  0.22418  0.73164  1.0000
  H   H3378     1.0  0.67048  0.23035  0.71157  1.0000
  H   H3379     1.0  0.65708  0.25700  0.90695  1.0000
  H   H3380     1.0  0.57886  0.28500  0.02669  1.0000
  H   H3381     1.0  0.54202  0.18236  0.03276  1.0000
  H   H3382     1.0  0.64984  0.23037  0.63701  1.0000
  H   H3383     1.0  0.65928  0.19085  0.23058  1.0000
  Fe  Fe221     1.0  0.67444  0.23449  0.88230  1.0000
  H   H3384     1.0  0.68479  0.17816  0.14765  1.0000
  H   H3385     1.0  0.68479  0.18766  0.43080  1.0000
  H   H3386     1.0  0.72733  0.25574  0.94384  1.0000
  C   C1913     1.0  0.64249  0.26671  0.92621  1.0000
  C   C1914     1.0  0.67989  0.19009  0.27351  1.0000
  C   C1915     1.0  0.72789  0.27549  0.86700  1.0000
  S   S450      1.0  0.63417  0.33156  0.27258  1.0000
  C   C1916     1.0  0.58592  0.33228  0.28060  1.0000
  C   C1917     1.0  0.70266  0.22966  0.03626  1.0000
  H   H3387     1.0  0.66834  0.23015  0.78139  1.0000
  H   H3388     1.0  0.59212  0.18186  0.47340  1.0000
  H   H3389     1.0  0.58881  0.18250  0.68130  1.0000
  C   C1918     1.0  0.62038  0.22283  0.33711  1.0000
  H   H3390     1.0  0.67216  0.23864  0.13060  1.0000
  H   H3391     1.0  0.58496  0.32727  0.70900  1.0000
  H   H3392     1.0  0.67240  0.17427  0.14751  1.0000
  Fe  Fe222     1.0  0.70058  0.23649  0.15971  1.0000
  H   H3393     1.0  0.67709  0.18385  0.20876  1.0000
  H   H3394     1.0  0.70508  0.28009  0.90516  1.0000
  H   H3395     1.0  0.64950  0.32825  0.13806  1.0000
  H   H3396     1.0  0.66036  0.33399  0.19370  1.0000
  H   H3397     1.0  0.67032  0.27557  0.83692  1.0000
  C   C1919     1.0  0.70406  0.20307  0.12912  1.0000
  H   H3398     1.0  0.64598  0.27004  0.94497  1.0000
  Fe  Fe223     1.0  0.70522  0.24912  0.21253  1.0000
  H   H3399     1.0  0.58770  0.17761  0.98786  1.0000
  C   C1920     1.0  0.63739  0.25582  0.95199  1.0000
  C   C1921     1.0  0.67694  0.17584  0.16628  1.0000
  H   H3400     1.0  0.66644  0.20128  0.85764  1.0000
  C   C1922     1.0  0.66458  0.27655  0.15798  1.0000
  H   H3401     1.0  0.63665  0.27065  0.92280  1.0000
  H   H3402     1.0  0.59674  0.25682  0.00483  1.0000
  H   H3403     1.0  0.67910  0.22279  0.71388  1.0000
  H   H3404     1.0  0.64558  0.28144  0.85870  1.0000
  H   H3405     1.0  0.60634  0.17752  0.43085  1.0000
  H   H3406     1.0  0.67473  0.25654  0.88225  1.0000
  C   C1923     1.0  0.60501  0.25863  0.06118  1.0000
  C   C1924     1.0  0.73035  0.23839  0.14668  1.0000
  H   H3407     1.0  0.57961  0.25046  0.18868  1.0000
  H   H3408     1.0  0.72374  0.25031  0.01715  1.0000
  C   C1925     1.0  0.69863  0.27407  0.91136  1.0000
  H   H3409     1.0  0.59203  0.28843  0.00666  1.0000
  H   H3410     1.0  0.61732  0.17742  0.80521  1.0000
  C   C1926     1.0  0.72615  0.26743  0.22696  1.0000
  C   C1927     1.0  0.58458  0.18954  0.29577  1.0000
  C   C1928     1.0  0.58708  0.18637  0.26185  1.0000
  C   C1929     1.0  0.71692  0.26253  0.02132  1.0000
  H   H3411     1.0  0.66331  0.27024  0.18545  1.0000
  H   H3412     1.0  0.67903  0.27466  0.13055  1.0000
  S   S451      1.0  0.68482  0.23049  0.19757  1.0000
  H   H3413     1.0  0.65094  0.20380  0.24168  1.0000
  S   S452      1.0  0.67823  0.21834  0.01394  1.0000
  C   C1930     1.0  0.68332  0.19972  0.27316  1.0000
  H   H3414     1.0  0.64300  0.20879  0.69222  1.0000
  H   H3415     1.0  0.65667  0.19727  0.18589  1.0000
  H   H3416     1.0  0.59724  0.19615  0.08075  1.0000
  Fe  Fe224     1.0  0.68504  0.24581  0.19866  1.0000
  H   H3417     1.0  0.62205  0.26660  0.10534  1.0000
  C   C1931     1.0  0.72957  0.29911  0.28306  1.0000
  N   N107      1.0  0.66011  0.21140  0.71861  1.0000
  H   H3418     1.0  0.60811  0.20731  0.33057  1.0000
  H   H3419     1.0  0.68056  0.17250  0.56085  1.0000
  H   H3420     1.0  0.62029  0.18341  0.37860  1.0000
  H   H3421     1.0  0.58566  0.22993  0.03437  1.0000
  N   N108      1.0  0.59480  0.25956  0.06215  1.0000
  H   H3422     1.0  0.67410  0.28166  0.09464  1.0000
  H   H3423     1.0  0.59338  0.31239  0.78979  1.0000
  S   S453      1.0  0.70700  0.23315  0.10159  1.0000
  C   C1932     1.0  0.69894  0.22919  0.07704  1.0000
  C   C1933     1.0  0.69797  0.26978  0.03740  1.0000
  H   H3424     1.0  0.63891  0.24523  0.27103  1.0000
  H   H3425     1.0  0.56207  0.18415  0.04799  1.0000
  H   H3426     1.0  0.62722  0.24708  0.01176  1.0000
  C   C1934     1.0  0.58571  0.27271  0.03660  1.0000
  H   H3427     1.0  0.73025  0.27967  0.33124  1.0000
  H   H3428     1.0  0.59503  0.29856  0.84200  1.0000
  C   C1935     1.0  0.64592  0.26235  0.86248  1.0000
  H   H3429     1.0  0.71706  0.26785  0.03828  1.0000
  H   H3430     1.0  0.64695  0.19549  0.32152  1.0000
  C   C1936     1.0  0.64406  0.20012  0.77377  1.0000
  H   H3431     1.0  0.56755  0.20295  0.94294  1.0000
  H   H3432     1.0  0.68300  0.26619  0.83794  1.0000
  S   S454      1.0  0.58548  0.19837  0.82278  1.0000
  H   H3433     1.0  0.65339  0.19205  0.45694  1.0000
  H   H3434     1.0  0.70942  0.29454  0.01481  1.0000
  H   H3435     1.0  0.55608  0.17454  0.03528  1.0000
  C   C1937     1.0  0.72132  0.27074  0.85147  1.0000
  H   H3436     1.0  0.60092  0.31604  0.72024  1.0000
  H   H3437     1.0  0.66076  0.22055  0.86403  1.0000
  H   H3438     1.0  0.69894  0.26790  0.06795  1.0000
  C   C1938     1.0  0.73851  0.28166  0.22260  1.0000
  C   C1939     1.0  0.61878  0.26182  0.09057  1.0000
  H   H3439     1.0  0.69986  0.27212  0.30465  1.0000
  H   H3440     1.0  0.62929  0.24951  0.86135  1.0000
  Fe  Fe225     1.0  0.69661  0.24053  0.87016  1.0000
  C   C1940     1.0  0.68495  0.24932  0.08491  1.0000
  S   S455      1.0  0.58918  0.20180  0.29342  1.0000
  H   H3441     1.0  0.72246  0.30011  0.38550  1.0000
  N   N109      1.0  0.69897  0.26134  0.02085  1.0000
  H   H3442     1.0  0.69976  0.26124  0.34330  1.0000
  H   H3443     1.0  0.61356  0.22484  0.33358  1.0000
  C   C1941     1.0  0.66378  0.21478  0.74924  1.0000
  C   C1942     1.0  0.70491  0.28002  0.01076  1.0000
  N   N110      1.0  0.74730  0.26487  0.10706  1.0000
  H   H3444     1.0  0.66621  0.20887  0.76801  1.0000
  H   H3445     1.0  0.65144  0.26358  0.83253  1.0000
  H   H3446     1.0  0.66348  0.20116  0.34424  1.0000
  H   H3447     1.0  0.59804  0.17582  0.68695  1.0000
  H   H3448     1.0  0.71982  0.27492  0.82506  1.0000
  H   H3449     1.0  0.58003  0.25368  0.10450  1.0000
  H   H3450     1.0  0.74387  0.25390  0.79253  1.0000
  H   H3451     1.0  0.65974  0.22583  0.68331  1.0000
  H   H3452     1.0  0.64233  0.18490  0.80943  1.0000
  H   H3453     1.0  0.63606  0.25721  0.01165  1.0000
  C   C1943     1.0  0.57244  0.17602  0.79097  1.0000
  C   C1944     1.0  0.65461  0.21856  0.70183  1.0000
  C   C1945     1.0  0.70453  0.26812  0.31935  1.0000
  C   C1946     1.0  0.68260  0.22244  0.07756  1.0000
  H   H3454     1.0  0.66312  0.20653  0.24491  1.0000
  H   H3455     1.0  0.70270  0.28317  0.98391  1.0000
  H   H3456     1.0  0.63963  0.22111  0.64038  1.0000
  H   H3457     1.0  0.65758  0.19625  0.75386  1.0000
  H   H3458     1.0  0.63745  0.25631  0.81021  1.0000
  H   H3459     1.0  0.65162  0.19795  0.71706  1.0000
  H   H3460     1.0  0.64280  0.25133  0.95471  1.0000
  H   H3461     1.0  0.63832  0.27180  0.82957  1.0000
  H   H3462     1.0  0.62826  0.17507  0.49233  1.0000
  H   H3463     1.0  0.70323  0.25812  0.96435  1.0000
  C   C1947     1.0  0.63127  0.25486  0.99496  1.0000
  H   H3464     1.0  0.69081  0.27329  0.97230  1.0000
  C   C1948     1.0  0.67532  0.20455  0.69639  1.0000
  H   H3465     1.0  0.72180  0.28196  0.28201  1.0000
  H   H3466     1.0  0.65283  0.28612  0.90732  1.0000
  C   C1949     1.0  0.58082  0.24425  0.17720  1.0000
  H   H3467     1.0  0.65367  0.29923  0.84522  1.0000
  C   C1950     1.0  0.65888  0.20580  0.22405  1.0000
  C   C1951     1.0  0.64414  0.22364  0.65775  1.0000
  H   H3468     1.0  0.66113  0.26820  0.91454  1.0000
  H   H3469     1.0  0.63933  0.22550  0.68283  1.0000
  H   H3470     1.0  0.73135  0.28325  0.85250  1.0000
  H   H3471     1.0  0.71190  0.28773  0.29014  1.0000
  C   C1952     1.0  0.72787  0.28535  0.34456  1.0000
  C   C1953     1.0  0.63654  0.26451  0.85322  1.0000
  H   H3472     1.0  0.68592  0.22510  0.12883  1.0000
  C   C1954     1.0  0.73739  0.29113  0.34718  1.0000
  H   H3473     1.0  0.66567  0.20823  0.66265  1.0000
  C   C1955     1.0  0.68630  0.22291  0.03690  1.0000
  H   H3474     1.0  0.66936  0.24801  0.09410  1.0000
  H   H3475     1.0  0.74706  0.26937  0.84663  1.0000
  C   C1956     1.0  0.68396  0.19561  0.79027  1.0000
  C   C1957     1.0  0.65767  0.28630  0.87745  1.0000
  C   C1958     1.0  0.63203  0.25682  0.83734  1.0000
  C   C1959     1.0  0.66795  0.26760  0.85408  1.0000
  C   C1960     1.0  0.66848  0.21112  0.68405  1.0000
  Fe  Fe226     1.0  0.69029  0.22872  0.25060  1.0000
  C   C1961     1.0  0.66037  0.29684  0.84848  1.0000
  Fe  Fe227     1.0  0.68288  0.22413  0.94532  1.0000
  H   H3476     1.0  0.63238  0.25264  0.93789  1.0000
  C   C1962     1.0  0.63158  0.19491  0.33123  1.0000
  C   C1963     1.0  0.59877  0.18827  0.70943  1.0000
  H   H3477     1.0  0.62571  0.25891  0.82859  1.0000
  H   H3478     1.0  0.71542  0.24755  0.91779  1.0000
  H   H3479     1.0  0.70624  0.19771  0.11364  1.0000
  Fe  Fe228     1.0  0.68685  0.22042  0.86323  1.0000
  S   S456      1.0  0.67307  0.21859  0.91348  1.0000
  H   H3480     1.0  0.62691  0.19449  0.73407  1.0000
  H   H3481     1.0  0.65684  0.28034  0.82868  1.0000
  H   H3482     1.0  0.60320  0.19117  0.80893  1.0000
  C   C1964     1.0  0.64891  0.21555  0.67464  1.0000
  C   C1965     1.0  0.56757  0.21491  0.99012  1.0000
  H   H3483     1.0  0.62449  0.26208  0.06274  1.0000
  H   H3484     1.0  0.61739  0.33301  0.87317  1.0000
  H   H3485     1.0  0.74201  0.27489  0.78877  1.0000
  C   C1966     1.0  0.61006  0.18949  0.79273  1.0000
  H   H3486     1.0  0.73482  0.25683  0.82983  1.0000
  H   H3487     1.0  0.67301  0.21868  0.66563  1.0000
  H   H3488     1.0  0.62053  0.20820  0.30571  1.0000
  C   C1967     1.0  0.69339  0.19934  0.15686  1.0000
  C   C1968     1.0  0.67456  0.19273  0.08577  1.0000
  C   C1969     1.0  0.62387  0.19322  0.67978  1.0000
  H   H3489     1.0  0.59379  0.19299  0.71775  1.0000
  C   C1970     1.0  0.60409  0.31828  0.38876  1.0000
  H   H3490     1.0  0.70435  0.27596  0.36183  1.0000
  H   H3491     1.0  0.72070  0.30121  0.24190  1.0000
  C   C1971     1.0  0.64001  0.19312  0.34745  1.0000
  C   C1972     1.0  0.61022  0.26540  0.07996  1.0000
  H   H3492     1.0  0.60573  0.18417  0.26448  1.0000
  H   H3493     1.0  0.57626  0.18515  0.35947  1.0000
  H   H3494     1.0  0.65820  0.33098  0.00865  1.0000
  N   N111      1.0  0.61306  0.19445  0.35512  1.0000
  H   H3495     1.0  0.65527  0.32160  0.19663  1.0000
  H   H3496     1.0  0.71012  0.29781  0.33018  1.0000
  C   C1973     1.0  0.68923  0.25384  0.03790  1.0000
  C   C1974     1.0  0.59146  0.25397  0.03647  1.0000
  H   H3497     1.0  0.68930  0.24440  0.09687  1.0000
  C   C1975     1.0  0.71668  0.26063  0.86965  1.0000
  H   H3498     1.0  0.70410  0.25311  0.06754  1.0000
  H   H3499     1.0  0.72158  0.32816  0.04107  1.0000
  C   C1976     1.0  0.68740  0.18865  0.36836  1.0000
  C   C1977     1.0  0.66720  0.19153  0.06320  1.0000
  H   H3500     1.0  0.74422  0.32581  0.13375  1.0000
  H   H3501     1.0  0.60356  0.33391  0.32750  1.0000
  C   C1978     1.0  0.66133  0.19789  0.20522  1.0000
  H   H3502     1.0  0.58258  0.17828  0.87816  1.0000
  H   H3503     1.0  0.73648  0.29777  0.35560  1.0000
  H   H3504     1.0  0.73199  0.28743  0.09162  1.0000
  C   C1979     1.0  0.59296  0.17971  0.70177  1.0000
  H   H3505     1.0  0.71988  0.26654  0.98834  1.0000
  H   H3506     1.0  0.69272  0.19223  0.17971  1.0000
  C   C1980     1.0  0.68423  0.20583  0.65999  1.0000
  C   C1981     1.0  0.61034  0.18914  0.32731  1.0000
  C   C1982     1.0  0.67744  0.20375  0.29885  1.0000
  H   H3507     1.0  0.67805  0.20629  0.72011  1.0000
  C   C1983     1.0  0.66972  0.19777  0.83632  1.0000
  H   H3508     1.0  0.61320  0.27297  0.05777  1.0000
  C   C1984     1.0  0.67994  0.20033  0.81788  1.0000
  C   C1985     1.0  0.58698  0.23805  0.02212  1.0000
  H   H3509     1.0  0.60507  0.25091  0.07616  1.0000
  H   H3510     1.0  0.57655  0.18862  0.99521  1.0000
  H   H3511     1.0  0.67388  0.23810  0.08016  1.0000
  H   H3512     1.0  0.67623  0.20024  0.20357  1.0000
  H   H3513     1.0  0.59669  0.24057  0.05563  1.0000
  H   H3514     1.0  0.61616  0.19421  0.79703  1.0000
  H   H3515     1.0  0.69181  0.19745  0.77581  1.0000
  H   H3516     1.0  0.71039  0.28913  0.37430  1.0000
  H   H3517     1.0  0.60113  0.27324  0.01173  1.0000
  H   H3518     1.0  0.72165  0.25260  0.06511  1.0000
  H   H3519     1.0  0.72011  0.30931  0.27219  1.0000
  C   C1986     1.0  0.60746  0.17702  0.86148  1.0000
  C   C1987     1.0  0.60299  0.18458  0.74442  1.0000
  C   C1988     1.0  0.67242  0.20045  0.18066  1.0000
  C   C1989     1.0  0.72881  0.26164  0.25824  1.0000
  H   H3520     1.0  0.72915  0.28208  0.18505  1.0000
  H   H3521     1.0  0.66055  0.21301  0.19994  1.0000
  C   C1990     1.0  0.73620  0.26582  0.27163  1.0000
  H   H3522     1.0  0.69334  0.32690  0.06097  1.0000
  H   H3523     1.0  0.60652  0.32952  0.98579  1.0000
  C   C1991     1.0  0.58939  0.24777  0.13738  1.0000
  C   C1992     1.0  0.57982  0.17773  0.85375  1.0000
  H   H3524     1.0  0.69068  0.20386  0.25439  1.0000
  C   C1993     1.0  0.64638  0.33384  0.27288  1.0000
  C   C1994     1.0  0.68638  0.19815  0.13195  1.0000
  H   H3525     1.0  0.69312  0.27734  0.90002  1.0000
  H   H3526     1.0  0.72400  0.23493  0.13957  1.0000
  H   H3527     1.0  0.73457  0.29579  0.26430  1.0000
  H   H3528     1.0  0.58739  0.26234  0.11741  1.0000
  C   C1995     1.0  0.66759  0.17608  0.42996  1.0000
  H   H3529     1.0  0.72820  0.23709  0.17995  1.0000
  C   C1996     1.0  0.66370  0.19067  0.82695  1.0000
  C   C1997     1.0  0.72776  0.28026  0.09283  1.0000
  H   H3530     1.0  0.73744  0.31837  0.23073  1.0000
  H   H3531     1.0  0.59289  0.24070  0.99227  1.0000
  C   C1998     1.0  0.69561  0.19795  0.35447  1.0000
  C   C1999     1.0  0.58760  0.25613  0.10491  1.0000
  H   H3532     1.0  0.57918  0.26807  0.06253  1.0000
  H   H3533     1.0  0.55873  0.32315  0.81716  1.0000
  H   H3534     1.0  0.73449  0.30421  0.29135  1.0000
  H   H3535     1.0  0.60732  0.30755  0.43566  1.0000
  C   C2000     1.0  0.69205  0.33106  0.03295  1.0000
  H   H3536     1.0  0.60535  0.17779  0.74205  1.0000
  H   H3537     1.0  0.68871  0.21352  0.64783  1.0000
  H   H3538     1.0  0.63441  0.33312  0.02459  1.0000
  H   H3539     1.0  0.73556  0.28204  0.40884  1.0000
  H   H3540     1.0  0.59770  0.27477  0.06020  1.0000
  H   H3541     1.0  0.66388  0.19796  0.05845  1.0000
  C   C2001     1.0  0.66967  0.19410  0.12721  1.0000
  C   C2002     1.0  0.56177  0.18835  0.91376  1.0000
  H   H3542     1.0  0.56191  0.19627  0.90231  1.0000
  C   C2003     1.0  0.58332  0.17653  0.26538  1.0000
  H   H3543     1.0  0.72698  0.25248  0.13148  1.0000
  H   H3544     1.0  0.59347  0.17137  0.34107  1.0000
  H   H3545     1.0  0.60232  0.18794  0.33197  1.0000
  H   H3546     1.0  0.63780  0.33499  0.12204  1.0000
  H   H3547     1.0  0.60047  0.33482  0.90842  1.0000
  C   C2004     1.0  0.72385  0.25614  0.03169  1.0000
  H   H3548     1.0  0.58387  0.23943  0.08118  1.0000
  C   C2005     1.0  0.73347  0.24941  0.12326  1.0000
  C   C2006     1.0  0.70103  0.33316  0.99563  1.0000
  H   H3549     1.0  0.58015  0.23984  0.01762  1.0000
  H   H3550     1.0  0.59933  0.32654  0.45657  1.0000
  C   C2007     1.0  0.66453  0.18854  0.32381  1.0000
  C   C2008     1.0  0.67796  0.18858  0.78084  1.0000
  H   H3551     1.0  0.70870  0.31191  0.35490  1.0000
  H   H3552     1.0  0.73109  0.33241  0.96296  1.0000
  H   H3553     1.0  0.56955  0.17548  0.76679  1.0000
  C   C2009     1.0  0.55737  0.18261  0.02954  1.0000
  C   C2010     1.0  0.59537  0.27029  0.04228  1.0000
  H   H3554     1.0  0.68921  0.19371  0.11290  1.0000
  H   H3555     1.0  0.68055  0.19933  0.06600  1.0000
  H   H3556     1.0  0.70513  0.21028  0.10587  1.0000
  S   S457      1.0  0.57776  0.33344  0.82359  1.0000
  H   H3557     1.0  0.58431  0.25516  0.03370  1.0000
  H   H3558     1.0  0.73492  0.26003  0.77798  1.0000
  H   H3559     1.0  0.66257  0.18848  0.14270  1.0000
  H   H3560     1.0  0.58492  0.27144  0.00846  1.0000
  H   H3561     1.0  0.60324  0.31868  0.35884  1.0000
  H   H3562     1.0  0.59043  0.24134  0.12737  1.0000
  H   H3563     1.0  0.74524  0.27941  0.10603  1.0000
  H   H3564     1.0  0.60001  0.17802  0.87421  1.0000
  C   C2011     1.0  0.65526  0.18637  0.44293  1.0000
  C   C2012     1.0  0.59269  0.32161  0.95771  1.0000
  C   C2013     1.0  0.71955  0.30332  0.36086  1.0000
  H   H3565     1.0  0.64906  0.17977  0.45729  1.0000
  H   H3566     1.0  0.67102  0.19108  0.03289  1.0000
  C   C2014     1.0  0.61526  0.19430  0.28084  1.0000
  H   H3567     1.0  0.61289  0.18215  0.86758  1.0000
  H   H3568     1.0  0.73846  0.25452  0.16617  1.0000
  H   H3569     1.0  0.71494  0.31388  0.38987  1.0000
  H   H3570     1.0  0.73318  0.31872  0.01541  1.0000
  H   H3571     1.0  0.66755  0.17845  0.39803  1.0000
  H   H3572     1.0  0.58247  0.23865  0.20057  1.0000
  C   C2015     1.0  0.71168  0.30822  0.37859  1.0000
  C   C2016     1.0  0.58016  0.33098  0.35200  1.0000
  C   C2017     1.0  0.73013  0.27015  0.90051  1.0000
  C   C2018     1.0  0.55607  0.18301  0.89269  1.0000
  C   C2019     1.0  0.74188  0.25457  0.13457  1.0000
  C   C2020     1.0  0.63820  0.18942  0.79348  1.0000
  H   H3573     1.0  0.62268  0.19415  0.39154  1.0000
  H   H3574     1.0  0.63658  0.18627  0.77048  1.0000
  C   C2021     1.0  0.57827  0.18278  0.33308  1.0000
  C   C2022     1.0  0.74654  0.26943  0.78747  1.0000
  H   H3575     1.0  0.63596  0.19384  0.62790  1.0000
  H   H3576     1.0  0.63139  0.19056  0.31033  1.0000
  H   H3577     1.0  0.64076  0.19745  0.36803  1.0000
  H   H3578     1.0  0.62126  0.18256  0.73772  1.0000
  C   C2023     1.0  0.67368  0.18370  0.18488  1.0000
  H   H3579     1.0  0.65789  0.33338  0.07429  1.0000
  S   S458      1.0  0.73890  0.27553  0.92008  1.0000
  H   H3580     1.0  0.66328  0.18120  0.48239  1.0000
  H   H3581     1.0  0.61373  0.32583  0.41349  1.0000
  H   H3582     1.0  0.56964  0.17070  0.00705  1.0000
  C   C2024     1.0  0.62170  0.19155  0.36624  1.0000
  H   H3583     1.0  0.56938  0.18755  0.90409  1.0000
  H   H3584     1.0  0.60117  0.30238  0.40606  1.0000
  H   H3585     1.0  0.56417  0.20057  0.03372  1.0000
  H   H3586     1.0  0.71191  0.32078  0.03247  1.0000
  H   H3587     1.0  0.61680  0.19136  0.22396  1.0000
  H   H3588     1.0  0.59692  0.31794  0.41022  1.0000
  H   H3589     1.0  0.68467  0.18691  0.25488  1.0000
  C   C2025     1.0  0.65837  0.32930  0.17594  1.0000
  C   C2026     1.0  0.58437  0.17530  0.96646  1.0000
  H   H3590     1.0  0.68885  0.20089  0.66973  1.0000
  H   H3591     1.0  0.69695  0.20204  0.32199  1.0000
  H   H3592     1.0  0.74319  0.29354  0.31714  1.0000
  H   H3593     1.0  0.69255  0.18028  0.41446  1.0000
  S   S459      1.0  0.66629  0.17251  0.29668  1.0000
  H   H3594     1.0  0.74711  0.24979  0.13708  1.0000
  H   H3595     1.0  0.65729  0.18429  0.34339  1.0000
  H   H3596     1.0  0.73956  0.27766  0.05031  1.0000
  C   C2027     1.0  0.57451  0.17295  0.33660  1.0000
  H   H3597     1.0  0.54832  0.18354  0.90127  1.0000
  H   H3598     1.0  0.70890  0.20409  0.14745  1.0000
  S   S460      1.0  0.74382  0.29776  0.96185  1.0000
  H   H3599     1.0  0.63741  0.32986  0.97891  1.0000
  H   H3600     1.0  0.70250  0.32607  0.99293  1.0000
  C   C2028     1.0  0.66776  0.18604  0.79890  1.0000
  H   H3601     1.0  0.69350  0.20286  0.37245  1.0000
  H   H3602     1.0  0.68791  0.17769  0.48617  1.0000
  S   S461      1.0  0.74612  0.32586  0.90342  1.0000
  H   H3603     1.0  0.61188  0.33075  0.66564  1.0000
  H   H3604     1.0  0.59065  0.31862  0.99135  1.0000
  H   H3605     1.0  0.61841  0.18882  0.67120  1.0000
  H   H3606     1.0  0.58801  0.33268  0.50248  1.0000
  H   H3607     1.0  0.68126  0.18517  0.75915  1.0000
  H   H3608     1.0  0.61267  0.33452  0.76758  1.0000
  H   H3609     1.0  0.61197  0.32662  0.94214  1.0000
  C   C2029     1.0  0.60871  0.33232  0.95202  1.0000
  H   H3610     1.0  0.65584  0.18886  0.84116  1.0000
  H   H3611     1.0  0.66512  0.32958  0.15194  1.0000
  H   H3612     1.0  0.72018  0.32627  0.95936  1.0000
  C   C2030     1.0  0.54724  0.18454  0.04800  1.0000
  C   C2031     1.0  0.71991  0.32414  0.02076  1.0000
  H   H3613     1.0  0.55986  0.21559  0.99804  1.0000
  C   C2032     1.0  0.67044  0.18447  0.29852  1.0000
  H   H3614     1.0  0.58532  0.17984  0.43984  1.0000
  H   H3615     1.0  0.63286  0.18289  0.67080  1.0000
  H   H3616     1.0  0.72235  0.27657  0.12374  1.0000
  C   C2033     1.0  0.72299  0.33090  0.97591  1.0000
  H   H3617     1.0  0.74791  0.28894  0.37933  1.0000
  C   C2034     1.0  0.60084  0.18013  0.41728  1.0000
  C   C2035     1.0  0.60995  0.17879  0.81589  1.0000
  H   H3618     1.0  0.55943  0.18642  0.85920  1.0000
  H   H3619     1.0  0.58290  0.33033  0.46469  1.0000
  C   C2036     1.0  0.60597  0.33101  0.79287  1.0000
  H   H3620     1.0  0.58589  0.32156  0.94949  1.0000
  C   C2037     1.0  0.63366  0.19097  0.66161  1.0000
  C   C2038     1.0  0.54279  0.17863  0.09326  1.0000
  H   H3621     1.0  0.74540  0.26392  0.05027  1.0000
  H   H3622     1.0  0.57057  0.32847  0.74702  1.0000
  C   C2039     1.0  0.74110  0.28466  0.37802  1.0000
  H   H3623     1.0  0.58866  0.18005  0.93496  1.0000
  C   C2040     1.0  0.68564  0.18250  0.41308  1.0000
  C   C2041     1.0  0.66512  0.33434  0.91705  1.0000
  H   H3624     1.0  0.65621  0.18926  0.41010  1.0000
  H   H3625     1.0  0.68959  0.18443  0.34742  1.0000
  C   C2042     1.0  0.58876  0.32994  0.82518  1.0000
  H   H3626     1.0  0.68561  0.32661  0.02959  1.0000
  H   H3627     1.0  0.61976  0.32926  0.00450  1.0000
  H   H3628     1.0  0.64388  0.33149  0.18164  1.0000
  H   H3629     1.0  0.62800  0.33450  0.93004  1.0000
  C   C2043     1.0  0.59889  0.33428  0.44513  1.0000
  Fe  Fe229     1.0  0.74853  0.29038  0.91468  1.0000
  H   H3630     1.0  0.60583  0.33393  0.70928  1.0000
  H   H3631     1.0  0.54761  0.18078  0.11023  1.0000
  H   H3632     1.0  0.62240  0.33242  0.10739  1.0000
  H   H3633     1.0  0.58895  0.16982  0.46917  1.0000
  H   H3634     1.0  0.59410  0.33293  0.39441  1.0000
  H   H3635     1.0  0.55544  0.17602  0.97018  1.0000
  H   H3636     1.0  0.74933  0.26192  0.18718  1.0000
  H   H3637     1.0  0.61943  0.17030  0.47134  1.0000
  C   C2044     1.0  0.58889  0.33508  0.46956  1.0000
  H   H3638     1.0  0.54172  0.17063  0.09800  1.0000
  S   S462      1.0  0.57481  0.33545  0.39148  1.0000
  C   C2045     1.0  0.63495  0.33551  0.99202  1.0000
  H   H3639     1.0  0.71263  0.33557  0.32958  1.0000
  Fe  Fe230     1.0  0.51763  0.40230  0.30220  1.0000
  S   S463      1.0  0.52921  0.41444  0.25211  1.0000
  S   S464      1.0  0.52140  0.39116  0.34912  1.0000
  H   H3640     1.0  0.58698  0.42641  0.31290  1.0000
  S   S465      1.0  0.51148  0.42356  0.22822  1.0000
  H   H3641     1.0  0.54942  0.48971  0.31164  1.0000
  Fe  Fe231     1.0  0.51969  0.41241  0.21386  1.0000
  S   S466      1.0  0.52858  0.41409  0.14962  1.0000
  Fe  Fe232     1.0  0.51997  0.42435  0.27089  1.0000
  S   S467      1.0  0.52588  0.43837  0.28011  1.0000
  H   H3642     1.0  0.55567  0.39125  0.17537  1.0000
  S   S468      1.0  0.50911  0.41247  0.32431  1.0000
  S   S469      1.0  0.51436  0.39768  0.92172  1.0000
  S   S470      1.0  0.57760  0.37940  0.35684  1.0000
  H   H3643     1.0  0.70621  0.35562  0.36741  1.0000
  Fe  Fe233     1.0  0.58885  0.37149  0.33585  1.0000
  S   S471      1.0  0.60428  0.38018  0.30095  1.0000
  H   H3644     1.0  0.63377  0.35956  0.35796  1.0000
  Fe  Fe234     1.0  0.62831  0.39415  0.44467  1.0000
  S   S472      1.0  0.63252  0.40865  0.39513  1.0000
  S   S473      1.0  0.62051  0.37948  0.44590  1.0000
  Fe  Fe235     1.0  0.63917  0.40220  0.49487  1.0000
  S   S474      1.0  0.64448  0.41740  0.44904  1.0000
  S   S475      1.0  0.64223  0.39616  0.55351  1.0000
  Fe  Fe236     1.0  0.62907  0.41500  0.44595  1.0000
  S   S476      1.0  0.61906  0.42529  0.45430  1.0000
  Fe  Fe237     1.0  0.64742  0.40963  0.40222  1.0000
  S   S477      1.0  0.66031  0.41331  0.34489  1.0000
  S   S478      1.0  0.62371  0.40037  0.49509  1.0000
  S   S479      1.0  0.64333  0.39472  0.44836  1.0000
  Fe  Fe238     1.0  0.56636  0.44374  0.35430  1.0000
  S   S480      1.0  0.57685  0.44710  0.38666  1.0000
  S   S481      1.0  0.55368  0.43042  0.38417  1.0000
  Fe  Fe239     1.0  0.57742  0.46128  0.27760  1.0000
  S   S482      1.0  0.58874  0.46629  0.30440  1.0000
  S   S483      1.0  0.57584  0.46908  0.21709  1.0000
  Fe  Fe240     1.0  0.58851  0.45016  0.32696  1.0000
  S   S484      1.0  0.60173  0.44365  0.31624  1.0000
  Fe  Fe241     1.0  0.57596  0.46279  0.36186  1.0000
  S   S485      1.0  0.57227  0.47099  0.40719  1.0000
  S   S486      1.0  0.57797  0.44546  0.29628  1.0000
  S   S487      1.0  0.56474  0.45913  0.33312  1.0000
  Fe  Fe242     1.0  0.52242  0.39919  0.96581  1.0000
  H   H3645     1.0  0.61295  0.40807  0.55930  1.0000
  H   H3646     1.0  0.62009  0.41749  0.57072  1.0000
  Fe  Fe243     1.0  0.54197  0.40751  0.89903  1.0000
  S   S488      1.0  0.53564  0.40698  0.84961  1.0000
  S   S489      1.0  0.55802  0.41355  0.88294  1.0000
  Fe  Fe244     1.0  0.52374  0.41277  0.88304  1.0000
  H   H3647     1.0  0.61487  0.41174  0.71946  1.0000
  Fe  Fe245     1.0  0.52700  0.39203  0.89222  1.0000
  S   S490      1.0  0.52569  0.37847  0.87269  1.0000
  S   S491      1.0  0.53098  0.41463  0.92896  1.0000
  S   S492      1.0  0.53417  0.39220  0.93988  1.0000
  H   H3648     1.0  0.54598  0.38897  0.57107  1.0000
  Fe  Fe246     1.0  0.59204  0.36442  0.70650  1.0000
  H   H3649     1.0  0.50702  0.40678  0.85068  1.0000
  S   S493      1.0  0.60670  0.37476  0.68385  1.0000
  H   H3650     1.0  0.50487  0.43999  0.99609  1.0000
  H   H3651     1.0  0.56053  0.39351  0.62097  1.0000
  H   H3652     1.0  0.64977  0.44088  0.42958  1.0000
  S   S494      1.0  0.58114  0.36795  0.67540  1.0000
  Fe  Fe247     1.0  0.63342  0.41070  0.74738  1.0000
  S   S495      1.0  0.63425  0.41924  0.79034  1.0000
  S   S496      1.0  0.63506  0.41888  0.68211  1.0000
  Fe  Fe248     1.0  0.62845  0.39123  0.81370  1.0000
  S   S497      1.0  0.62890  0.39791  0.86238  1.0000
  S   S498      1.0  0.62329  0.37498  0.82738  1.0000
  Fe  Fe249     1.0  0.62078  0.40813  0.83414  1.0000
  S   S499      1.0  0.60782  0.41079  0.87684  1.0000
  Fe  Fe250     1.0  0.64239  0.40853  0.81553  1.0000
  S   S500      1.0  0.65481  0.41577  0.83179  1.0000
  S   S501      1.0  0.61908  0.40046  0.78948  1.0000
  S   S502      1.0  0.64282  0.40092  0.76858  1.0000
  Fe  Fe251     1.0  0.58842  0.45656  0.01554  1.0000
  S   S503      1.0  0.59076  0.46710  0.95343  1.0000
  S   S504      1.0  0.59642  0.45951  0.05845  1.0000
  Fe  Fe252     1.0  0.57483  0.44040  0.00333  1.0000
  S   S505      1.0  0.57585  0.44963  0.94106  1.0000
  S   S506      1.0  0.56570  0.42485  0.03032  1.0000
  Fe  Fe253     1.0  0.59193  0.45389  0.93224  1.0000
  S   S507      1.0  0.60334  0.45360  0.87599  1.0000
  Fe  Fe254     1.0  0.57446  0.46176  0.96784  1.0000
  H   H3653     1.0  0.51805  0.47415  0.74571  1.0000
  S   S508      1.0  0.59092  0.44390  0.99313  1.0000
  S   S509      1.0  0.57215  0.45212  0.03149  1.0000
  H   H3654     1.0  0.72846  0.42009  0.78939  1.0000
  Fe  Fe255     1.0  0.68852  0.37408  0.29484  1.0000
  S   S510      1.0  0.69414  0.36036  0.30764  1.0000
  S   S511      1.0  0.68248  0.37889  0.34905  1.0000
  Fe  Fe256     1.0  0.69273  0.37621  0.20625  1.0000
  S   S512      1.0  0.69888  0.36292  0.21185  1.0000
  S   S513      1.0  0.69164  0.38444  0.14588  1.0000
  C   C2046     1.0  0.54063  0.46216  0.40867  1.0000
  Fe  Fe257     1.0  0.70661  0.36867  0.25005  1.0000
  S   S514      1.0  0.72231  0.36720  0.23964  1.0000
  S   S515      1.0  0.67925  0.36890  0.26051  1.0000
  S   S516      1.0  0.70156  0.38271  0.23956  1.0000
  H   H3655     1.0  0.57183  0.41010  0.35042  1.0000
  S   S517      1.0  0.68812  0.37300  0.87324  1.0000
  H   H3656     1.0  0.66740  0.38036  0.08152  1.0000
  Fe  Fe258     1.0  0.68335  0.36168  0.98838  1.0000
  S   S518      1.0  0.69519  0.37511  0.94988  1.0000
  C   C2047     1.0  0.51118  0.46938  0.58304  1.0000
  Fe  Fe259     1.0  0.68412  0.37999  0.92155  1.0000
  S   S519      1.0  0.68435  0.39604  0.90734  1.0000
  Fe  Fe260     1.0  0.69830  0.36705  0.90529  1.0000
  S   S520      1.0  0.71414  0.36773  0.87298  1.0000
  S   S521      1.0  0.67184  0.36732  0.96489  1.0000
  H   H3657     1.0  0.51000  0.40096  0.16177  1.0000
  H   H3658     1.0  0.56890  0.49381  0.55926  1.0000
  H   H3659     1.0  0.56491  0.40788  0.16365  1.0000
  C   C2048     1.0  0.72340  0.37194  0.89187  1.0000
  H   H3660     1.0  0.57267  0.40084  0.73367  1.0000
  H   H3661     1.0  0.57508  0.38049  0.60493  1.0000
  H   H3662     1.0  0.51629  0.46075  0.71867  1.0000
  H   H3663     1.0  0.50505  0.45295  0.35253  1.0000
  C   C2049     1.0  0.51191  0.46777  0.66730  1.0000
  C   C2050     1.0  0.50948  0.46086  0.71064  1.0000
  H   H3664     1.0  0.55185  0.38604  0.89252  1.0000
  C   C2051     1.0  0.68829  0.37625  0.12107  1.0000
  C   C2052     1.0  0.68521  0.36612  0.14155  1.0000
  C   C2053     1.0  0.68322  0.35959  0.12076  1.0000
  C   C2054     1.0  0.68415  0.36316  0.07953  1.0000
  C   C2055     1.0  0.68684  0.37331  0.05945  1.0000
  C   C2056     1.0  0.68897  0.37985  0.08013  1.0000
  H   H3665     1.0  0.68429  0.36328  0.17353  1.0000
  C   C2057     1.0  0.51164  0.47233  0.53776  1.0000
  H   H3666     1.0  0.68720  0.37617  0.02816  1.0000
  H   H3667     1.0  0.69115  0.38769  0.06440  1.0000
  H   H3668     1.0  0.61583  0.42825  0.67285  1.0000
  H   H3669     1.0  0.61671  0.34616  0.81473  1.0000
  H   H3670     1.0  0.68312  0.39095  0.76602  1.0000
  H   H3671     1.0  0.56645  0.41747  0.11711  1.0000
  H   H3672     1.0  0.57127  0.40111  0.68545  1.0000
  H   H3673     1.0  0.61123  0.39748  0.70419  1.0000
  C   C2058     1.0  0.59272  0.40972  0.70425  1.0000
  H   H3674     1.0  0.60075  0.39354  0.69277  1.0000
  H   H3675     1.0  0.58760  0.39645  0.58080  1.0000
  H   H3676     1.0  0.53338  0.42488  0.98959  1.0000
  H   H3677     1.0  0.66494  0.47596  0.38375  1.0000
  C   C2059     1.0  0.51012  0.48791  0.79275  1.0000
  C   C2060     1.0  0.50848  0.47984  0.82728  1.0000
  H   H3678     1.0  0.71561  0.34978  0.92087  1.0000
  H   H3679     1.0  0.59269  0.41761  0.69372  1.0000
  H   H3680     1.0  0.50970  0.41549  0.46400  1.0000
  H   H3681     1.0  0.55170  0.49558  0.49871  1.0000
  H   H3682     1.0  0.57484  0.41251  0.69469  1.0000
  H   H3683     1.0  0.58269  0.49225  0.48034  1.0000
  H   H3684     1.0  0.58671  0.39692  0.68848  1.0000
  H   H3685     1.0  0.51597  0.41889  0.01341  1.0000
  H   H3686     1.0  0.73315  0.35270  0.88488  1.0000
  C   C2061     1.0  0.58235  0.41631  0.39334  1.0000
  H   H3687     1.0  0.61683  0.41554  0.64727  1.0000
  H   H3688     1.0  0.70263  0.34054  0.35057  1.0000
  H   H3689     1.0  0.51809  0.42750  0.50648  1.0000
  H   H3690     1.0  0.59990  0.34957  0.32477  1.0000
  H   H3691     1.0  0.72290  0.39831  0.94512  1.0000
  C   C2062     1.0  0.63443  0.38394  0.25844  1.0000
  C   C2063     1.0  0.60686  0.42280  0.87553  1.0000
  C   C2064     1.0  0.60023  0.42402  0.90888  1.0000
  C   C2065     1.0  0.59915  0.43342  0.90900  1.0000
  C   C2066     1.0  0.60463  0.44172  0.87572  1.0000
  C   C2067     1.0  0.61127  0.44051  0.84218  1.0000
  C   C2068     1.0  0.61237  0.43105  0.84203  1.0000
  H   H3692     1.0  0.59590  0.41768  0.93486  1.0000
  H   H3693     1.0  0.59405  0.43423  0.93495  1.0000
  H   H3694     1.0  0.61553  0.44688  0.81622  1.0000
  H   H3695     1.0  0.61737  0.43014  0.81593  1.0000
  C   C2069     1.0  0.66259  0.40963  0.85334  1.0000
  C   C2070     1.0  0.67072  0.41544  0.85645  1.0000
  C   C2071     1.0  0.67723  0.41110  0.87317  1.0000
  C   C2072     1.0  0.67574  0.40088  0.88695  1.0000
  C   C2073     1.0  0.66754  0.39496  0.88436  1.0000
  C   C2074     1.0  0.66092  0.39935  0.86766  1.0000
  H   H3696     1.0  0.67204  0.42337  0.84562  1.0000
  H   H3697     1.0  0.68350  0.41571  0.87527  1.0000
  H   H3698     1.0  0.66629  0.38704  0.89535  1.0000
  H   H3699     1.0  0.65453  0.39484  0.86604  1.0000
  C   C2075     1.0  0.61192  0.37389  0.72262  1.0000
  C   C2076     1.0  0.61987  0.38137  0.71709  1.0000
  C   C2077     1.0  0.62345  0.38152  0.74920  1.0000
  C   C2078     1.0  0.61929  0.37403  0.78665  1.0000
  C   C2079     1.0  0.61167  0.36622  0.79170  1.0000
  C   C2080     1.0  0.60794  0.36618  0.75965  1.0000
  H   H3700     1.0  0.62300  0.38725  0.68836  1.0000
  H   H3701     1.0  0.62939  0.38750  0.74504  1.0000
  H   H3702     1.0  0.60840  0.36043  0.82067  1.0000
  H   H3703     1.0  0.60193  0.36024  0.76383  1.0000
  C   C2081     1.0  0.60891  0.41314  0.65121  1.0000
  C   C2082     1.0  0.53631  0.37793  0.83653  1.0000
  C   C2083     1.0  0.54249  0.38650  0.80653  1.0000
  C   C2084     1.0  0.55076  0.38600  0.77718  1.0000
  C   C2085     1.0  0.55307  0.37695  0.77802  1.0000
  C   C2086     1.0  0.54692  0.36833  0.80797  1.0000
  C   C2087     1.0  0.53848  0.36882  0.83689  1.0000
  H   H3704     1.0  0.54080  0.39351  0.80543  1.0000
  H   H3705     1.0  0.55536  0.39267  0.75376  1.0000
  H   H3706     1.0  0.51820  0.44496  0.36683  1.0000
  H   H3707     1.0  0.53367  0.36215  0.85986  1.0000
  C   C2088     1.0  0.56035  0.41614  0.92458  1.0000
  C   C2089     1.0  0.55368  0.41151  0.96387  1.0000
  C   C2090     1.0  0.55555  0.41380  0.99692  1.0000
  C   C2091     1.0  0.56397  0.42089  0.99043  1.0000
  C   C2092     1.0  0.57075  0.42524  0.95137  1.0000
  C   C2093     1.0  0.56895  0.42289  0.91845  1.0000
  H   H3708     1.0  0.54706  0.40622  0.96870  1.0000
  H   H3709     1.0  0.55034  0.41036  0.02714  1.0000
  H   H3710     1.0  0.57739  0.43045  0.94644  1.0000
  H   H3711     1.0  0.57418  0.42642  0.88820  1.0000
  H   H3712     1.0  0.57361  0.49971  0.44574  1.0000
  H   H3713     1.0  0.62127  0.42728  0.73322  1.0000
  C   C2094     1.0  0.58115  0.46533  0.17537  1.0000
  C   C2095     1.0  0.59013  0.46274  0.17003  1.0000
  C   C2096     1.0  0.59469  0.46079  0.13431  1.0000
  C   C2097     1.0  0.59012  0.46101  0.10462  1.0000
  C   C2098     1.0  0.58086  0.46298  0.11122  1.0000
  C   C2099     1.0  0.57653  0.46543  0.14588  1.0000
  H   H3714     1.0  0.59377  0.46267  0.19254  1.0000
  H   H3715     1.0  0.60186  0.45923  0.12944  1.0000
  H   H3716     1.0  0.57723  0.46295  0.08883  1.0000
  H   H3717     1.0  0.56962  0.46747  0.14971  1.0000
  C   C2100     1.0  0.64032  0.40264  0.58863  1.0000
  C   C2101     1.0  0.63810  0.41181  0.57878  1.0000
  C   C2102     1.0  0.63665  0.41682  0.60743  1.0000
  C   C2103     1.0  0.63727  0.41261  0.64625  1.0000
  C   C2104     1.0  0.63957  0.40348  0.65590  1.0000
  C   C2105     1.0  0.64111  0.39852  0.62710  1.0000
  H   H3718     1.0  0.63757  0.41505  0.54899  1.0000
  H   H3719     1.0  0.63499  0.42395  0.59962  1.0000
  H   H3720     1.0  0.64021  0.40026  0.68544  1.0000
  H   H3721     1.0  0.64286  0.39144  0.63463  1.0000
  C   C2106     1.0  0.61363  0.42958  0.41699  1.0000
  C   C2107     1.0  0.61664  0.42819  0.37914  1.0000
  C   C2108     1.0  0.61276  0.43238  0.34880  1.0000
  C   C2109     1.0  0.60581  0.43792  0.35617  1.0000
  C   C2110     1.0  0.60262  0.43912  0.39433  1.0000
  C   C2111     1.0  0.60658  0.43500  0.42458  1.0000
  H   H3722     1.0  0.62213  0.42411  0.37285  1.0000
  H   H3723     1.0  0.61529  0.43148  0.31924  1.0000
  H   H3724     1.0  0.59733  0.44344  0.40012  1.0000
  H   H3725     1.0  0.60427  0.43614  0.45374  1.0000
  C   C2112     1.0  0.66686  0.40403  0.34527  1.0000
  C   C2113     1.0  0.67177  0.40263  0.30873  1.0000
  C   C2114     1.0  0.67661  0.39493  0.30916  1.0000
  C   C2115     1.0  0.67668  0.38872  0.34617  1.0000
  C   C2116     1.0  0.67201  0.39033  0.38238  1.0000
  C   C2117     1.0  0.66711  0.39791  0.38196  1.0000
  H   H3726     1.0  0.67173  0.40743  0.28017  1.0000
  H   H3727     1.0  0.68029  0.39381  0.28102  1.0000
  H   H3728     1.0  0.67216  0.38566  0.41102  1.0000
  H   H3729     1.0  0.66374  0.39917  0.41008  1.0000
  H   H3730     1.0  0.53052  0.46153  0.23642  1.0000
  H   H3731     1.0  0.65348  0.40805  0.25287  1.0000
  C   C2118     1.0  0.52551  0.46628  0.24390  1.0000
  H   H3732     1.0  0.63018  0.38937  0.26488  1.0000
  C   C2119     1.0  0.60986  0.38005  0.33813  1.0000
  C   C2120     1.0  0.61411  0.38888  0.34184  1.0000
  C   C2121     1.0  0.61743  0.38875  0.37489  1.0000
  C   C2122     1.0  0.61667  0.37981  0.40373  1.0000
  C   C2123     1.0  0.61274  0.37097  0.39909  1.0000
  C   C2124     1.0  0.60933  0.37110  0.36630  1.0000
  H   H3733     1.0  0.61442  0.39581  0.32030  1.0000
  H   H3734     1.0  0.62026  0.39557  0.37863  1.0000
  H   H3735     1.0  0.61211  0.36404  0.42139  1.0000
  H   H3736     1.0  0.60609  0.36429  0.36321  1.0000
  H   H3737     1.0  0.71738  0.34835  0.43594  1.0000
  C   C2125     1.0  0.55460  0.37839  0.58772  1.0000
  C   C2126     1.0  0.56973  0.48436  0.89134  1.0000
  C   C2127     1.0  0.51781  0.40010  0.06482  1.0000
  C   C2128     1.0  0.52707  0.40648  0.05126  1.0000
  C   C2129     1.0  0.53021  0.41080  0.07757  1.0000
  H   H3738     1.0  0.53038  0.47614  0.71244  1.0000
  H   H3739     1.0  0.64184  0.38514  0.38183  1.0000
  H   H3740     1.0  0.55117  0.38863  0.42026  1.0000
  H   H3741     1.0  0.58820  0.34280  0.46040  1.0000
  C   C2130     1.0  0.53224  0.38722  0.33394  1.0000
  C   C2131     1.0  0.53541  0.38143  0.36362  1.0000
  C   C2132     1.0  0.54394  0.37806  0.35237  1.0000
  C   C2133     1.0  0.54931  0.38041  0.31130  1.0000
  C   C2134     1.0  0.54616  0.38623  0.28162  1.0000
  C   C2135     1.0  0.53769  0.38968  0.29285  1.0000
  H   H3742     1.0  0.53121  0.37950  0.39543  1.0000
  H   H3743     1.0  0.54628  0.37353  0.37542  1.0000
  H   H3744     1.0  0.55039  0.38819  0.24990  1.0000
  H   H3745     1.0  0.53533  0.39418  0.26985  1.0000
  C   C2136     1.0  0.53218  0.43569  0.31513  1.0000
  C   C2137     1.0  0.53324  0.42615  0.33053  1.0000
  C   C2138     1.0  0.53940  0.42438  0.35412  1.0000
  C   C2139     1.0  0.54453  0.43217  0.36200  1.0000
  C   C2140     1.0  0.54277  0.44151  0.34960  1.0000
  C   C2141     1.0  0.53658  0.44326  0.32629  1.0000
  H   H3746     1.0  0.52964  0.42018  0.32310  1.0000
  H   H3747     1.0  0.54056  0.41709  0.36452  1.0000
  H   H3748     1.0  0.54630  0.44740  0.35745  1.0000
  H   H3749     1.0  0.53555  0.45057  0.31534  1.0000
  H   H3750     1.0  0.65442  0.39420  0.23214  1.0000
  N   N112      1.0  0.58032  0.39505  0.89984  1.0000
  C   C2142     1.0  0.58783  0.39042  0.87885  1.0000
  C   C2143     1.0  0.58247  0.40592  0.87669  1.0000
  C   C2144     1.0  0.58118  0.39406  0.94151  1.0000
  C   C2145     1.0  0.56999  0.38997  0.90549  1.0000
  C   C2146     1.0  0.58660  0.37926  0.89903  1.0000
  C   C2147     1.0  0.57501  0.39957  0.96623  1.0000
  C   C2148     1.0  0.58709  0.40932  0.82978  1.0000
  C   C2149     1.0  0.58714  0.42007  0.81081  1.0000
  C   C2150     1.0  0.59459  0.37554  0.87424  1.0000
  C   C2151     1.0  0.57661  0.39822  0.00731  1.0000
  H   H3751     1.0  0.59530  0.39426  0.87606  1.0000
  H   H3752     1.0  0.58797  0.39139  0.84723  1.0000
  H   H3753     1.0  0.57573  0.40862  0.88402  1.0000
  H   H3754     1.0  0.58768  0.41029  0.88671  1.0000
  H   H3755     1.0  0.58898  0.39676  0.93879  1.0000
  H   H3756     1.0  0.57891  0.38622  0.96097  1.0000
  H   H3757     1.0  0.56791  0.38243  0.92781  1.0000
  H   H3758     1.0  0.56467  0.39384  0.91910  1.0000
  H   H3759     1.0  0.58722  0.37767  0.92993  1.0000
  H   H3760     1.0  0.57941  0.37499  0.90109  1.0000
  H   H3761     1.0  0.56706  0.39684  0.97228  1.0000
  H   H3762     1.0  0.57710  0.40758  0.94986  1.0000
  H   H3763     1.0  0.59482  0.40871  0.82171  1.0000
  H   H3764     1.0  0.58315  0.40487  0.81580  1.0000
  H   H3765     1.0  0.57953  0.42106  0.81783  1.0000
  H   H3766     1.0  0.59143  0.42488  0.82269  1.0000
  H   H3767     1.0  0.59050  0.42237  0.77730  1.0000
  H   H3768     1.0  0.60198  0.37940  0.87225  1.0000
  H   H3769     1.0  0.59356  0.36754  0.88897  1.0000
  H   H3770     1.0  0.59426  0.37670  0.84301  1.0000
  H   H3771     1.0  0.58444  0.40117  0.00294  1.0000
  H   H3772     1.0  0.57217  0.40232  0.02391  1.0000
  H   H3773     1.0  0.57431  0.39032  0.02604  1.0000
  C   C2152     1.0  0.71879  0.34325  0.92613  1.0000
  C   C2153     1.0  0.60764  0.34954  0.31021  1.0000
  H   H3774     1.0  0.60096  0.49406  0.01892  1.0000
  C   C2154     1.0  0.65025  0.46013  0.39226  1.0000
  C   C2155     1.0  0.54030  0.47154  0.37801  1.0000
  C   C2156     1.0  0.51060  0.49921  0.62482  1.0000
  C   C2157     1.0  0.64449  0.39538  0.30575  1.0000
  H   H3775     1.0  0.61750  0.39876  0.95447  1.0000
  H   H3776     1.0  0.63557  0.41962  0.95501  1.0000
  H   H3777     1.0  0.69690  0.38234  0.39033  1.0000
  H   H3778     1.0  0.60892  0.36609  0.97261  1.0000
  C   C2158     1.0  0.57557  0.42147  0.45513  1.0000
  C   C2159     1.0  0.73131  0.37414  0.25252  1.0000
  C   C2160     1.0  0.63533  0.46021  0.34454  1.0000
  N   N113      1.0  0.55440  0.37818  0.62990  1.0000
  H   H3779     1.0  0.58884  0.40722  0.73754  1.0000
  C   C2161     1.0  0.65989  0.37590  0.08855  1.0000
  H   H3780     1.0  0.62334  0.40341  0.98612  1.0000
  H   H3781     1.0  0.55162  0.37437  0.13668  1.0000
  C   C2162     1.0  0.58041  0.39508  0.60433  1.0000
  C   C2163     1.0  0.61261  0.41290  0.57850  1.0000
  H   H3782     1.0  0.61877  0.41656  0.94019  1.0000
  H   H3783     1.0  0.63039  0.44512  0.38576  1.0000
  S   S522      1.0  0.50860  0.39941  0.26300  1.0000
  S   S523      1.0  0.57204  0.37272  0.47168  1.0000
  N   N114      1.0  0.54193  0.46847  0.81069  1.0000
  C   C2164     1.0  0.55284  0.47232  0.79959  1.0000
  C   C2165     1.0  0.53945  0.45753  0.81692  1.0000
  C   C2166     1.0  0.53893  0.47371  0.77528  1.0000
  C   C2167     1.0  0.53628  0.47068  0.84761  1.0000
  C   C2168     1.0  0.53925  0.46736  0.88618  1.0000
  C   C2169     1.0  0.55654  0.48353  0.79018  1.0000
  C   C2170     1.0  0.52823  0.46986  0.77724  1.0000
  C   C2171     1.0  0.54616  0.45134  0.83344  1.0000
  C   C2172     1.0  0.54202  0.44036  0.84309  1.0000
  C   C2173     1.0  0.53283  0.47005  0.92081  1.0000
  C   C2174     1.0  0.56768  0.48639  0.77914  1.0000
  H   H3784     1.0  0.74179  0.38694  0.06271  1.0000
  H   H3785     1.0  0.55672  0.47047  0.77245  1.0000
  H   H3786     1.0  0.55558  0.46867  0.82421  1.0000
  H   H3787     1.0  0.53171  0.45407  0.83684  1.0000
  H   H3788     1.0  0.53986  0.45625  0.78748  1.0000
  H   H3789     1.0  0.54385  0.47346  0.74620  1.0000
  H   H3790     1.0  0.53972  0.48162  0.77222  1.0000
  H   H3791     1.0  0.53671  0.47871  0.84033  1.0000
  H   H3792     1.0  0.52835  0.46718  0.85678  1.0000
  H   H3793     1.0  0.54699  0.47095  0.88068  1.0000
  H   H3794     1.0  0.53817  0.45930  0.89689  1.0000
  H   H3795     1.0  0.55477  0.48788  0.76389  1.0000
  H   H3796     1.0  0.55327  0.48574  0.81694  1.0000
  H   H3797     1.0  0.52291  0.46974  0.80576  1.0000
  H   H3798     1.0  0.52697  0.46229  0.77547  1.0000
  H   H3799     1.0  0.55352  0.45335  0.81007  1.0000
  H   H3800     1.0  0.54720  0.45247  0.86124  1.0000
  H   H3801     1.0  0.53489  0.43776  0.86799  1.0000
  H   H3802     1.0  0.54099  0.43879  0.81581  1.0000
  H   H3803     1.0  0.54718  0.43614  0.85285  1.0000
  H   H3804     1.0  0.53493  0.46746  0.94850  1.0000
  H   H3805     1.0  0.53379  0.47814  0.91233  1.0000
  H   H3806     1.0  0.52497  0.46658  0.92795  1.0000
  C   C2175     1.0  0.57872  0.41316  0.44050  1.0000
  Fe  Fe261     1.0  0.68586  0.35589  0.26840  1.0000
  H   H3807     1.0  0.58703  0.39397  0.38648  1.0000
  C   C2176     1.0  0.50763  0.43040  0.11181  1.0000
  H   H3808     1.0  0.52728  0.47349  0.51182  1.0000
  S   S524      1.0  0.57938  0.36230  0.31343  1.0000
  C   C2177     1.0  0.64077  0.41209  0.28353  1.0000
  H   H3809     1.0  0.64198  0.41870  0.25710  1.0000
  H   H3810     1.0  0.63275  0.40902  0.29874  1.0000
  H   H3811     1.0  0.64404  0.41433  0.30512  1.0000
  H   H3812     1.0  0.64400  0.43501  0.50505  1.0000
  C   C2178     1.0  0.58698  0.40009  0.39956  1.0000
  C   C2179     1.0  0.53281  0.43556  0.47113  1.0000
  H   H3813     1.0  0.56345  0.38802  0.50315  1.0000
  H   H3814     1.0  0.65685  0.37937  0.06471  1.0000
  H   H3815     1.0  0.62551  0.46573  0.31311  1.0000
  H   H3816     1.0  0.54407  0.38725  0.63776  1.0000
  H   H3817     1.0  0.66687  0.39169  0.75777  1.0000
  C   C2180     1.0  0.62254  0.34031  0.86337  1.0000
  C   C2181     1.0  0.61933  0.44757  0.94879  1.0000
  H   H3818     1.0  0.54462  0.37519  0.22428  1.0000
  H   H3819     1.0  0.59751  0.38790  0.43437  1.0000
  H   H3820     1.0  0.51745  0.38933  0.20449  1.0000
  H   H3821     1.0  0.63248  0.43677  0.53251  1.0000
  C   C2182     1.0  0.50306  0.42189  0.99738  1.0000
  H   H3822     1.0  0.60447  0.42924  0.27022  1.0000
  S   S525      1.0  0.68168  0.35478  0.05418  1.0000
  H   H3823     1.0  0.66363  0.43977  0.92005  1.0000
  H   H3824     1.0  0.53930  0.39037  0.20130  1.0000
  H   H3825     1.0  0.54980  0.40626  0.14373  1.0000
  H   H3826     1.0  0.53471  0.39487  0.16125  1.0000
  Fe  Fe262     1.0  0.56758  0.36935  0.33936  1.0000
  C   C2183     1.0  0.62226  0.34014  0.10565  1.0000
  C   C2184     1.0  0.51421  0.44497  0.93285  1.0000
  C   C2185     1.0  0.62523  0.45946  0.33933  1.0000
  H   H3827     1.0  0.54899  0.44443  0.94249  1.0000
  H   H3828     1.0  0.71543  0.34171  0.38431  1.0000
  H   H3829     1.0  0.54360  0.46532  0.32883  1.0000
  C   C2186     1.0  0.66556  0.33799  0.27711  1.0000
  N   N115      1.0  0.54526  0.38627  0.14771  1.0000
  C   C2187     1.0  0.54869  0.37243  0.20062  1.0000
  H   H3830     1.0  0.57322  0.41912  0.48884  1.0000
  H   H3831     1.0  0.70976  0.40131  0.77071  1.0000
  H   H3832     1.0  0.61968  0.45959  0.36700  1.0000
  C   C2188     1.0  0.54265  0.37823  0.69784  1.0000
  H   H3833     1.0  0.54829  0.38348  0.70211  1.0000
  H   H3834     1.0  0.58165  0.39669  0.43071  1.0000
  H   H3835     1.0  0.55867  0.39464  0.55981  1.0000
  H   H3836     1.0  0.50434  0.40873  0.98021  1.0000
  C   C2189     1.0  0.51092  0.44025  0.37259  1.0000
  H   H3837     1.0  0.63605  0.34653  0.05832  1.0000
  N   N116      1.0  0.55947  0.43368  0.20314  1.0000
  C   C2190     1.0  0.55512  0.42916  0.17670  1.0000
  C   C2191     1.0  0.55658  0.42644  0.24563  1.0000
  C   C2192     1.0  0.55510  0.44235  0.20625  1.0000
  C   C2193     1.0  0.57044  0.43747  0.18465  1.0000
  C   C2194     1.0  0.57638  0.42976  0.17851  1.0000
  C   C2195     1.0  0.55811  0.43553  0.13128  1.0000
  C   C2196     1.0  0.55693  0.44695  0.23856  1.0000
  C   C2197     1.0  0.55621  0.41544  0.25031  1.0000
  C   C2198     1.0  0.55533  0.40964  0.29374  1.0000
  C   C2199     1.0  0.58700  0.43466  0.15180  1.0000
  C   C2200     1.0  0.55122  0.43170  0.11065  1.0000
  C   C2201     1.0  0.55251  0.45585  0.23727  1.0000
  H   H3838     1.0  0.54697  0.42717  0.18975  1.0000
  H   H3839     1.0  0.55707  0.42212  0.17640  1.0000
  H   H3840     1.0  0.56149  0.42889  0.26188  1.0000
  H   H3841     1.0  0.54904  0.42636  0.26362  1.0000
  H   H3842     1.0  0.54699  0.44021  0.21338  1.0000
  H   H3843     1.0  0.55796  0.44846  0.17687  1.0000
  H   H3844     1.0  0.57235  0.44332  0.15487  1.0000
  H   H3845     1.0  0.57347  0.44111  0.20368  1.0000
  H   H3846     1.0  0.57325  0.42491  0.16379  1.0000
  H   H3847     1.0  0.57659  0.42529  0.20835  1.0000
  H   H3848     1.0  0.55798  0.44331  0.12710  1.0000
  H   H3849     1.0  0.56567  0.43532  0.11493  1.0000
  H   H3850     1.0  0.56483  0.44937  0.23366  1.0000
  H   H3851     1.0  0.55354  0.44160  0.26963  1.0000
  H   H3852     1.0  0.54971  0.41211  0.24376  1.0000
  H   H3853     1.0  0.56270  0.41433  0.22958  1.0000
  H   H3854     1.0  0.55601  0.40206  0.29568  1.0000
  H   H3855     1.0  0.56124  0.41310  0.30322  1.0000
  H   H3856     1.0  0.54809  0.40921  0.31511  1.0000
  H   H3857     1.0  0.59057  0.43955  0.16545  1.0000
  H   H3858     1.0  0.59115  0.42896  0.14889  1.0000
  H   H3859     1.0  0.58732  0.43902  0.12086  1.0000
  H   H3860     1.0  0.55099  0.42388  0.11344  1.0000
  H   H3861     1.0  0.54371  0.43243  0.12443  1.0000
  H   H3862     1.0  0.55375  0.43604  0.07783  1.0000
  H   H3863     1.0  0.54458  0.45381  0.24146  1.0000
  H   H3864     1.0  0.55351  0.45868  0.26194  1.0000
  H   H3865     1.0  0.55617  0.46181  0.20786  1.0000
  C   C2202     1.0  0.59802  0.39186  0.75634  1.0000
  C   C2203     1.0  0.58743  0.38632  0.76570  1.0000
  H   H3866     1.0  0.60325  0.41157  0.75149  1.0000
  H   H3867     1.0  0.60205  0.38618  0.76497  1.0000
  H   H3868     1.0  0.59822  0.39618  0.77706  1.0000
  H   H3869     1.0  0.58682  0.38280  0.74246  1.0000
  H   H3870     1.0  0.58499  0.38043  0.79561  1.0000
  H   H3871     1.0  0.58232  0.39117  0.76760  1.0000
  H   H3872     1.0  0.61609  0.43766  0.72006  1.0000
  H   H3873     1.0  0.60905  0.42696  0.76299  1.0000
  N   N117      1.0  0.61664  0.36430  0.57649  1.0000
  C   C2204     1.0  0.61032  0.37112  0.58755  1.0000
  C   C2205     1.0  0.61683  0.35726  0.61537  1.0000
  C   C2206     1.0  0.62679  0.37043  0.55019  1.0000
  C   C2207     1.0  0.61262  0.35850  0.55305  1.0000
  C   C2208     1.0  0.60207  0.35195  0.57516  1.0000
  C   C2209     1.0  0.60677  0.37690  0.55355  1.0000
  C   C2210     1.0  0.63441  0.36454  0.53722  1.0000
  C   C2211     1.0  0.62316  0.36167  0.63771  1.0000
  C   C2212     1.0  0.62079  0.35496  0.68139  1.0000
  C   C2213     1.0  0.59803  0.34806  0.54586  1.0000
  C   C2214     1.0  0.60151  0.38438  0.56655  1.0000
  C   C2215     1.0  0.64489  0.37083  0.52175  1.0000
  H   H3874     1.0  0.61433  0.37663  0.59754  1.0000
  H   H3875     1.0  0.60365  0.36708  0.61425  1.0000
  H   H3876     1.0  0.60925  0.35411  0.63713  1.0000
  H   H3877     1.0  0.61941  0.35077  0.61004  1.0000
  H   H3878     1.0  0.62973  0.37538  0.56531  1.0000
  H   H3879     1.0  0.62656  0.37556  0.52159  1.0000
  H   H3880     1.0  0.61298  0.36348  0.52300  1.0000
  H   H3881     1.0  0.61728  0.35345  0.54555  1.0000
  H   H3882     1.0  0.59694  0.35594  0.58873  1.0000
  H   H3883     1.0  0.60208  0.34554  0.60004  1.0000
  H   H3884     1.0  0.61301  0.38085  0.52562  1.0000
  H   H3885     1.0  0.60157  0.37194  0.54585  1.0000
  H   H3886     1.0  0.63313  0.36196  0.51233  1.0000
  H   H3887     1.0  0.63395  0.35802  0.56256  1.0000
  H   H3888     1.0  0.63106  0.36270  0.62170  1.0000
  H   H3889     1.0  0.62203  0.36897  0.63859  1.0000
  C   C2216     1.0  0.73660  0.39182  0.06173  1.0000
  H   H3890     1.0  0.66378  0.36252  0.11253  1.0000
  C   C2217     1.0  0.56223  0.49388  0.35419  1.0000
  H   H3891     1.0  0.59791  0.34102  0.76905  1.0000
  H   H3892     1.0  0.62538  0.35837  0.69650  1.0000
  H   H3893     1.0  0.51500  0.47528  0.66681  1.0000
  H   H3894     1.0  0.59480  0.38058  0.59306  1.0000
  H   H3895     1.0  0.60636  0.38957  0.57482  1.0000
  H   H3896     1.0  0.59938  0.38862  0.54102  1.0000
  H   H3897     1.0  0.65014  0.36631  0.51400  1.0000
  H   H3898     1.0  0.64606  0.37703  0.49398  1.0000
  H   H3899     1.0  0.64650  0.37379  0.54530  1.0000
  H   H3900     1.0  0.64673  0.44525  0.89409  1.0000
  H   H3901     1.0  0.67087  0.43908  0.87228  1.0000
  S   S526      1.0  0.58199  0.36166  0.76905  1.0000
  H   H3902     1.0  0.71853  0.36385  0.46141  1.0000
  H   H3903     1.0  0.70615  0.36309  0.46269  1.0000
  H   H3904     1.0  0.53610  0.43104  0.49158  1.0000
  H   H3905     1.0  0.60302  0.40342  0.37501  1.0000
  N   N118      1.0  0.53866  0.47843  0.30665  1.0000
  C   C2218     1.0  0.53684  0.47514  0.27243  1.0000
  C   C2219     1.0  0.54854  0.48564  0.29022  1.0000
  C   C2220     1.0  0.59771  0.48912  0.08324  1.0000
  H   H3906     1.0  0.66708  0.34180  0.00249  1.0000
  C   C2221     1.0  0.52638  0.46897  0.28118  1.0000
  C   C2222     1.0  0.55758  0.48122  0.28036  1.0000
  C   C2223     1.0  0.50715  0.43011  0.07030  1.0000
  C   C2224     1.0  0.57135  0.35476  0.52508  1.0000
  H   H3907     1.0  0.51045  0.43805  0.11049  1.0000
  H   H3908     1.0  0.54193  0.47058  0.26346  1.0000
  H   H3909     1.0  0.53852  0.48158  0.24459  1.0000
  H   H3910     1.0  0.55573  0.46616  0.05546  1.0000
  H   H3911     1.0  0.61814  0.34283  0.08490  1.0000
  H   H3912     1.0  0.56933  0.42339  0.44522  1.0000
  H   H3913     1.0  0.52015  0.47155  0.47978  1.0000
  H   H3914     1.0  0.55891  0.47755  0.30891  1.0000
  H   H3915     1.0  0.50387  0.44783  0.26188  1.0000
  H   H3916     1.0  0.50206  0.43459  0.06208  1.0000
  C   C2225     1.0  0.50947  0.48425  0.60083  1.0000
  C   C2226     1.0  0.61440  0.42951  0.73177  1.0000
  H   H3917     1.0  0.50752  0.40015  0.81468  1.0000
  H   H3918     1.0  0.73306  0.34805  0.82487  1.0000
  C   C2227     1.0  0.56777  0.38928  0.86666  1.0000
  H   H3919     1.0  0.56788  0.39668  0.84736  1.0000
  H   H3920     1.0  0.57303  0.38606  0.84894  1.0000
  C   C2228     1.0  0.60787  0.41381  0.71922  1.0000
  C   C2229     1.0  0.60341  0.39784  0.71051  1.0000
  C   C2230     1.0  0.61025  0.42523  0.70360  1.0000
  H   H3921     1.0  0.60364  0.42796  0.70221  1.0000
  H   H3922     1.0  0.57348  0.48647  0.33487  1.0000
  C   C2231     1.0  0.64557  0.40448  0.26922  1.0000
  H   H3923     1.0  0.63692  0.39349  0.32740  1.0000
  H   H3924     1.0  0.64935  0.39812  0.32163  1.0000
  H   H3925     1.0  0.64227  0.40260  0.24725  1.0000
  N   N119      1.0  0.60305  0.40850  0.69597  1.0000
  C   C2232     1.0  0.64264  0.37828  0.37483  1.0000
  H   H3926     1.0  0.65349  0.37626  0.40570  1.0000
  C   C2233     1.0  0.58640  0.40469  0.68371  1.0000
  C   C2234     1.0  0.57565  0.40483  0.70045  1.0000
  H   H3927     1.0  0.60671  0.41996  0.63804  1.0000
  H   H3928     1.0  0.61353  0.40147  0.62840  1.0000
  C   C2235     1.0  0.55756  0.38278  0.87733  1.0000
  H   H3929     1.0  0.55628  0.38217  0.84909  1.0000
  N   N120      1.0  0.64694  0.38632  0.29664  1.0000
  C   C2236     1.0  0.64627  0.37220  0.40698  1.0000
  H   H3930     1.0  0.66213  0.39344  0.26225  1.0000
  H   H3931     1.0  0.65709  0.38449  0.33072  1.0000
  H   H3932     1.0  0.63175  0.37815  0.32229  1.0000
  H   H3933     1.0  0.63530  0.37406  0.37848  1.0000
  H   H3934     1.0  0.64693  0.36504  0.40243  1.0000
  C   C2237     1.0  0.60874  0.40663  0.62339  1.0000
  H   H3935     1.0  0.60135  0.40216  0.62936  1.0000
  S   S527      1.0  0.56350  0.37688  0.73974  1.0000
  H   H3936     1.0  0.55683  0.37526  0.89740  1.0000
  C   C2238     1.0  0.56750  0.48659  0.35994  1.0000
  C   C2239     1.0  0.64987  0.38052  0.33133  1.0000
  H   H3937     1.0  0.58895  0.40873  0.65057  1.0000
  C   C2240     1.0  0.56522  0.47966  0.39838  1.0000
  C   C2241     1.0  0.65564  0.38916  0.25839  1.0000
  C   C2242     1.0  0.63813  0.37984  0.29442  1.0000
  H   H3938     1.0  0.65089  0.37333  0.32817  1.0000
  H   H3939     1.0  0.62150  0.37178  0.28151  1.0000
  H   H3940     1.0  0.64096  0.37076  0.43758  1.0000
  C   C2243     1.0  0.74036  0.37167  0.24801  1.0000
  H   H3941     1.0  0.63957  0.37258  0.29404  1.0000
  H   H3942     1.0  0.53101  0.46430  0.35234  1.0000
  H   H3943     1.0  0.63772  0.46761  0.34669  1.0000
  H   H3944     1.0  0.73355  0.39648  0.13497  1.0000
  C   C2244     1.0  0.65868  0.38055  0.24443  1.0000
  C   C2245     1.0  0.62759  0.37575  0.25280  1.0000
  H   H3945     1.0  0.66084  0.37551  0.26770  1.0000
  H   H3946     1.0  0.66558  0.38930  0.18022  1.0000
  S   S528      1.0  0.56227  0.46967  0.96650  1.0000
  H   H3947     1.0  0.60771  0.41775  0.57133  1.0000
  H   H3948     1.0  0.57622  0.39950  0.34714  1.0000
  H   H3949     1.0  0.55578  0.47466  0.46063  1.0000
  C   C2246     1.0  0.55757  0.48003  0.43088  1.0000
  H   H3950     1.0  0.64045  0.38746  0.22921  1.0000
  H   H3951     1.0  0.62440  0.37894  0.22908  1.0000
  H   H3952     1.0  0.56314  0.38505  0.65942  1.0000
  H   H3953     1.0  0.67767  0.38751  0.82065  1.0000
  C   C2247     1.0  0.66739  0.38436  0.20511  1.0000
  H   H3954     1.0  0.65260  0.37628  0.23835  1.0000
  H   H3955     1.0  0.63164  0.37044  0.24332  1.0000
  H   H3956     1.0  0.66937  0.37807  0.19559  1.0000
  C   C2248     1.0  0.53525  0.38311  0.10038  1.0000
  C   C2249     1.0  0.57279  0.38749  0.59917  1.0000
  H   H3957     1.0  0.64771  0.35618  0.80807  1.0000
  C   C2250     1.0  0.72972  0.38200  0.26680  1.0000
  H   H3958     1.0  0.70839  0.38831  0.79544  1.0000
  H   H3959     1.0  0.56286  0.40260  0.42257  1.0000
  H   H3960     1.0  0.57822  0.40216  0.60099  1.0000
  H   H3961     1.0  0.67387  0.38840  0.20973  1.0000
  C   C2251     1.0  0.71894  0.39215  0.08861  1.0000
  H   H3962     1.0  0.56137  0.37653  0.57180  1.0000
  H   H3963     1.0  0.58125  0.39227  0.63472  1.0000
  H   H3964     1.0  0.53908  0.37056  0.16530  1.0000
  H   H3965     1.0  0.55435  0.39493  0.49772  1.0000
  C   C2252     1.0  0.65913  0.33843  0.01172  1.0000
  H   H3966     1.0  0.64904  0.43081  0.30373  1.0000
  H   H3967     1.0  0.65172  0.37548  0.67785  1.0000
  C   C2253     1.0  0.50638  0.43643  0.83270  1.0000
  H   H3968     1.0  0.51793  0.42444  0.96117  1.0000
  H   H3969     1.0  0.63060  0.40074  0.94279  1.0000
  H   H3970     1.0  0.54825  0.35789  0.62964  1.0000
  C   C2254     1.0  0.50614  0.44621  0.34498  1.0000
  H   H3971     1.0  0.64673  0.44215  0.77696  1.0000
  H   H3972     1.0  0.54401  0.39671  0.09477  1.0000
  C   C2255     1.0  0.53691  0.38831  0.17715  1.0000
  C   C2256     1.0  0.56243  0.38626  0.62867  1.0000
  H   H3973     1.0  0.63374  0.44076  0.78512  1.0000
  C   C2257     1.0  0.64027  0.44498  0.78865  1.0000
  H   H3974     1.0  0.64165  0.45280  0.77001  1.0000
  C   C2258     1.0  0.63657  0.43560  0.50410  1.0000
  C   C2259     1.0  0.63494  0.45223  0.38355  1.0000
  H   H3975     1.0  0.57723  0.42036  0.38202  1.0000
  H   H3976     1.0  0.64098  0.41825  0.90689  1.0000
  H   H3977     1.0  0.53242  0.38767  0.70230  1.0000
  H   H3978     1.0  0.59334  0.39475  0.46800  1.0000
  C   C2260     1.0  0.64273  0.44261  0.42696  1.0000
  H   H3979     1.0  0.57300  0.39002  0.56704  1.0000
  H   H3980     1.0  0.62961  0.42953  0.85903  1.0000
  H   H3981     1.0  0.63205  0.44714  0.84301  1.0000
  H   H3982     1.0  0.63238  0.45099  0.89776  1.0000
  H   H3983     1.0  0.62063  0.45522  0.94962  1.0000
  H   H3984     1.0  0.61418  0.44677  0.93159  1.0000
  C   C2261     1.0  0.64560  0.43717  0.90653  1.0000
  H   H3985     1.0  0.52413  0.42270  0.46804  1.0000
  H   H3986     1.0  0.65520  0.42696  0.89861  1.0000
  H   H3987     1.0  0.65393  0.47001  0.32878  1.0000
  H   H3988     1.0  0.71527  0.36545  0.13129  1.0000
  H   H3989     1.0  0.72152  0.37629  0.34921  1.0000
  H   H3990     1.0  0.59311  0.48903  0.89923  1.0000
  H   H3991     1.0  0.53743  0.41569  0.06702  1.0000
  H   H3992     1.0  0.53188  0.40795  0.02070  1.0000
  H   H3993     1.0  0.71749  0.39366  0.05910  1.0000
  C   C2262     1.0  0.63854  0.44420  0.83318  1.0000
  C   C2263     1.0  0.54621  0.43634  0.95126  1.0000
  C   C2264     1.0  0.63664  0.43341  0.86017  1.0000
  C   C2265     1.0  0.62903  0.44544  0.92837  1.0000
  H   H3994     1.0  0.62130  0.43357  0.91419  1.0000
  H   H3995     1.0  0.64219  0.42996  0.84508  1.0000
  H   H3996     1.0  0.64509  0.44894  0.83428  1.0000
  H   H3997     1.0  0.62556  0.41380  0.89682  1.0000
  H   H3998     1.0  0.54882  0.35924  0.24580  1.0000
  C   C2266     1.0  0.63267  0.34664  0.08955  1.0000
  C   C2267     1.0  0.62745  0.43479  0.92659  1.0000
  H   H3999     1.0  0.63388  0.44646  0.94668  1.0000
  H   H4000     1.0  0.61589  0.44247  0.98048  1.0000
  C   C2268     1.0  0.62537  0.41408  0.92735  1.0000
  H   H4001     1.0  0.53697  0.43410  0.01129  1.0000
  H   H4002     1.0  0.63919  0.44037  0.33679  1.0000
  N   N121      1.0  0.63623  0.43182  0.90368  1.0000
  C   C2269     1.0  0.62416  0.40361  0.95440  1.0000
  H   H4003     1.0  0.62451  0.43001  0.95909  1.0000
  C   C2270     1.0  0.63501  0.42096  0.92387  1.0000
  H   H4004     1.0  0.71895  0.37924  0.15424  1.0000
  H   H4005     1.0  0.72932  0.37500  0.13591  1.0000
  H   H4006     1.0  0.65621  0.43615  0.85190  1.0000
  H   H4007     1.0  0.60005  0.50105  0.89362  1.0000
  C   C2271     1.0  0.72108  0.40200  0.09703  1.0000
  S   S529      1.0  0.55990  0.37613  0.29559  1.0000
  H   H4008     1.0  0.66386  0.46531  0.34037  1.0000
  C   C2272     1.0  0.72659  0.38182  0.13252  1.0000
  C   C2273     1.0  0.65519  0.43474  0.88468  1.0000
  H   H4009     1.0  0.64506  0.43564  0.93911  1.0000
  H   H4010     1.0  0.62231  0.34769  0.68177  1.0000
  H   H4011     1.0  0.51394  0.43840  0.92275  1.0000
  C   C2274     1.0  0.59730  0.40294  0.40338  1.0000
  N   N122      1.0  0.58381  0.40831  0.37442  1.0000
  H   H4012     1.0  0.63057  0.45424  0.40921  1.0000
  H   H4013     1.0  0.53193  0.44218  0.48009  1.0000
  H   H4014     1.0  0.72164  0.33901  0.85259  1.0000
  H   H4015     1.0  0.60303  0.34416  0.53069  1.0000
  H   H4016     1.0  0.70290  0.39061  0.86294  1.0000
  H   H4017     1.0  0.57247  0.40665  0.45458  1.0000
  H   H4018     1.0  0.58351  0.41716  0.29115  1.0000
  C   C2275     1.0  0.52290  0.42954  0.47459  1.0000
  C   C2276     1.0  0.70611  0.37215  0.38283  1.0000
  H   H4019     1.0  0.53796  0.43785  0.43956  1.0000
  C   C2277     1.0  0.63874  0.34296  0.11735  1.0000
  C   C2278     1.0  0.58938  0.42059  0.30088  1.0000
  C   C2279     1.0  0.56569  0.39788  0.40495  1.0000
  C   C2280     1.0  0.59833  0.42550  0.26274  1.0000
  H   H4020     1.0  0.66599  0.34419  0.75834  1.0000
  C   C2281     1.0  0.65153  0.33832  0.89513  1.0000
  H   H4021     1.0  0.72824  0.38712  0.18200  1.0000
  H   H4022     1.0  0.66262  0.35136  0.05149  1.0000
  S   S530      1.0  0.66405  0.35384  0.89802  1.0000
  H   H4023     1.0  0.65493  0.45816  0.41164  1.0000
  C   C2282     1.0  0.57457  0.40411  0.36711  1.0000
  H   H4024     1.0  0.60073  0.41998  0.24873  1.0000
  H   H4025     1.0  0.65939  0.43558  0.31681  1.0000
  C   C2283     1.0  0.66415  0.44106  0.88772  1.0000
  S   S531      1.0  0.53652  0.50135  0.57209  1.0000
  H   H4026     1.0  0.59645  0.43112  0.24029  1.0000
  H   H4027     1.0  0.65767  0.44684  0.35939  1.0000
  C   C2284     1.0  0.53835  0.46950  0.34045  1.0000
  H   H4028     1.0  0.58932  0.42202  0.38331  1.0000
  C   C2285     1.0  0.59173  0.41276  0.33340  1.0000
  C   C2286     1.0  0.56183  0.47967  0.92717  1.0000
  H   H4029     1.0  0.59360  0.40688  0.32031  1.0000
  C   C2287     1.0  0.71608  0.40026  0.94118  1.0000
  H   H4030     1.0  0.52470  0.37685  0.17893  1.0000
  H   H4031     1.0  0.74185  0.37855  0.16308  1.0000
  C   C2288     1.0  0.65739  0.46807  0.35265  1.0000
  H   H4032     1.0  0.58176  0.42809  0.44284  1.0000
  C   C2289     1.0  0.65078  0.44822  0.35373  1.0000
  H   H4033     1.0  0.64085  0.45099  0.47054  1.0000
  H   H4034     1.0  0.70962  0.38817  0.36233  1.0000
  N   N123      1.0  0.72645  0.38610  0.08962  1.0000
  H   H4035     1.0  0.56757  0.39168  0.42450  1.0000
  C   C2290     1.0  0.51843  0.43536  0.44413  1.0000
  Fe  Fe263     1.0  0.67641  0.35985  0.91818  1.0000
  H   H4036     1.0  0.59861  0.41642  0.33664  1.0000
  C   C2291     1.0  0.65277  0.43725  0.30954  1.0000
  H   H4037     1.0  0.53939  0.47297  0.58620  1.0000
  H   H4038     1.0  0.55689  0.36835  0.68127  1.0000
  H   H4039     1.0  0.71178  0.38790  0.11167  1.0000
  H   H4040     1.0  0.64366  0.43237  0.37153  1.0000
  H   H4041     1.0  0.59865  0.41019  0.40811  1.0000
  C   C2292     1.0  0.70452  0.38189  0.38852  1.0000
  H   H4042     1.0  0.58633  0.47893  0.52800  1.0000
  C   C2293     1.0  0.64580  0.43916  0.34506  1.0000
  C   C2294     1.0  0.71394  0.39752  0.90510  1.0000
  C   C2295     1.0  0.63718  0.44414  0.46726  1.0000
  H   H4043     1.0  0.53438  0.47443  0.39408  1.0000
  H   H4044     1.0  0.54735  0.47692  0.36907  1.0000
  C   C2296     1.0  0.54438  0.38891  0.10557  1.0000
  H   H4045     1.0  0.66482  0.44898  0.87269  1.0000
  C   C2297     1.0  0.73840  0.38093  0.91558  1.0000
  N   N124      1.0  0.64467  0.45097  0.38824  1.0000
  H   H4046     1.0  0.58468  0.41129  0.45250  1.0000
  H   H4047     1.0  0.65501  0.44369  0.28145  1.0000
  H   H4048     1.0  0.64504  0.46373  0.40845  1.0000
  H   H4049     1.0  0.54851  0.37255  0.58918  1.0000
  H   H4050     1.0  0.63830  0.43582  0.42635  1.0000
  H   H4051     1.0  0.65319  0.45434  0.32458  1.0000
  C   C2298     1.0  0.59863  0.39524  0.43856  1.0000
  H   H4052     1.0  0.63262  0.42857  0.50300  1.0000
  C   C2299     1.0  0.72351  0.37768  0.07472  1.0000
  C   C2300     1.0  0.54788  0.35921  0.65886  1.0000
  H   H4053     1.0  0.73919  0.36258  0.09068  1.0000
  H   H4054     1.0  0.54614  0.48731  0.44981  1.0000
  C   C2301     1.0  0.54467  0.37966  0.65193  1.0000
  H   H4055     1.0  0.62954  0.44444  0.46875  1.0000
  C   C2302     1.0  0.57267  0.49676  0.52578  1.0000
  H   H4056     1.0  0.60617  0.39731  0.43971  1.0000
  C   C2303     1.0  0.65477  0.37564  0.75141  1.0000
  H   H4057     1.0  0.70128  0.34579  0.50960  1.0000
  C   C2304     1.0  0.51166  0.39815  0.10473  1.0000
  C   C2305     1.0  0.55357  0.38812  0.56017  1.0000
  H   H4058     1.0  0.54043  0.35998  0.67300  1.0000
  C   C2306     1.0  0.57728  0.36921  0.54081  1.0000
  C   C2307     1.0  0.52411  0.40878  0.11755  1.0000
  C   C2308     1.0  0.62815  0.34700  0.34154  1.0000
  C   C2309     1.0  0.55569  0.38816  0.51632  1.0000
  C   C2310     1.0  0.51938  0.38326  0.22473  1.0000
  H   H4059     1.0  0.64035  0.45956  0.31680  1.0000
  H   H4060     1.0  0.54858  0.36131  0.80862  1.0000
  C   C2311     1.0  0.55594  0.36841  0.65161  1.0000
  S   S532      1.0  0.51986  0.42597  0.84594  1.0000
  H   H4061     1.0  0.56292  0.36723  0.63417  1.0000
  H   H4062     1.0  0.55086  0.38168  0.51477  1.0000
  H   H4063     1.0  0.56114  0.39073  0.12578  1.0000
  C   C2312     1.0  0.71007  0.33984  0.99803  1.0000
  C   C2313     1.0  0.55222  0.48508  0.55277  1.0000
  S   S533      1.0  0.51467  0.48066  0.86209  1.0000
  H   H4064     1.0  0.53285  0.48644  0.34632  1.0000
  H   H4065     1.0  0.51604  0.48036  0.40007  1.0000
  H   H4066     1.0  0.51275  0.37710  0.24075  1.0000
  H   H4067     1.0  0.51538  0.44927  0.98471  1.0000
  H   H4068     1.0  0.51097  0.44840  0.31306  1.0000
  H   H4069     1.0  0.60083  0.35222  0.93152  1.0000
  H   H4070     1.0  0.55696  0.40615  0.09464  1.0000
  H   H4071     1.0  0.72005  0.40054  0.12986  1.0000
  H   H4072     1.0  0.55665  0.37534  0.19416  1.0000
  C   C2314     1.0  0.55726  0.39343  0.39266  1.0000
  H   H4073     1.0  0.65340  0.34242  0.78814  1.0000
  H   H4074     1.0  0.52072  0.47305  0.28908  1.0000
  H   H4075     1.0  0.52147  0.45008  0.91495  1.0000
  C   C2315     1.0  0.57193  0.48257  0.02127  1.0000
  H   H4076     1.0  0.74574  0.34851  0.11542  1.0000
  C   C2316     1.0  0.55480  0.39264  0.14480  1.0000
  H   H4077     1.0  0.55443  0.39929  0.37585  1.0000
  H   H4078     1.0  0.53850  0.37481  0.64848  1.0000
  H   H4079     1.0  0.72517  0.35575  0.96034  1.0000
  H   H4080     1.0  0.70062  0.36604  0.40836  1.0000
  H   H4081     1.0  0.54263  0.37065  0.71499  1.0000
  H   H4082     1.0  0.51490  0.42197  0.41148  1.0000
  H   H4083     1.0  0.72280  0.38405  0.27001  1.0000
  H   H4084     1.0  0.52671  0.37476  0.71462  1.0000
  C   C2317     1.0  0.52592  0.47650  0.74197  1.0000
  H   H4085     1.0  0.61211  0.34847  0.88195  1.0000
  C   C2318     1.0  0.52753  0.37982  0.19992  1.0000
  C   C2319     1.0  0.51477  0.40252  0.13103  1.0000
  S   S534      1.0  0.51376  0.39440  0.03282  1.0000
  C   C2320     1.0  0.56544  0.40945  0.13120  1.0000
  H   H4086     1.0  0.54605  0.43429  0.92393  1.0000
  H   H4087     1.0  0.52899  0.37366  0.22157  1.0000
  C   C2321     1.0  0.50487  0.48734  0.76584  1.0000
  H   H4088     1.0  0.73238  0.33970  0.89524  1.0000
  H   H4089     1.0  0.71907  0.37454  0.40113  1.0000
  H   H4090     1.0  0.51764  0.46542  0.64744  1.0000
  H   H4091     1.0  0.59759  0.35659  0.99549  1.0000
  C   C2322     1.0  0.55614  0.40390  0.12745  1.0000
  H   H4092     1.0  0.62293  0.45257  0.33308  1.0000
  H   H4093     1.0  0.55967  0.38887  0.37336  1.0000
  H   H4094     1.0  0.59078  0.34283  0.56287  1.0000
  H   H4095     1.0  0.51874  0.44286  0.44654  1.0000
  Fe  Fe264     1.0  0.57066  0.36417  0.73857  1.0000
  H   H4096     1.0  0.71544  0.41506  0.09426  1.0000
  H   H4097     1.0  0.65532  0.37590  0.11860  1.0000
  C   C2323     1.0  0.71180  0.35881  0.46357  1.0000
  C   C2324     1.0  0.64996  0.35888  0.09931  1.0000
  H   H4098     1.0  0.60440  0.49415  0.08198  1.0000
  H   H4099     1.0  0.52736  0.48425  0.74162  1.0000
  H   H4100     1.0  0.57196  0.40733  0.11491  1.0000
  C   C2325     1.0  0.50850  0.42095  0.43863  1.0000
  S   S535      1.0  0.68699  0.35309  0.94541  1.0000
  H   H4101     1.0  0.50019  0.42746  0.13474  1.0000
  C   C2326     1.0  0.73626  0.35687  0.00714  1.0000
  H   H4102     1.0  0.54698  0.45936  0.39559  1.0000
  C   C2327     1.0  0.72857  0.37850  0.94027  1.0000
  C   C2328     1.0  0.50298  0.40072  0.84369  1.0000
  C   C2329     1.0  0.61279  0.34914  0.95671  1.0000
  H   H4103     1.0  0.65431  0.38342  0.74667  1.0000
  C   C2330     1.0  0.72113  0.37382  0.92891  1.0000
  C   C2331     1.0  0.53270  0.38002  0.71712  1.0000
  C   C2332     1.0  0.54921  0.35001  0.68716  1.0000
  C   C2333     1.0  0.65108  0.34341  0.26856  1.0000
  H   H4104     1.0  0.55141  0.43276  0.96381  1.0000
  C   C2334     1.0  0.55743  0.49246  0.50912  1.0000
  H   H4105     1.0  0.50234  0.42191  0.51179  1.0000
  S   S536      1.0  0.53076  0.50168  0.88233  1.0000
  H   H4106     1.0  0.66301  0.34362  0.81072  1.0000
  C   C2335     1.0  0.52017  0.46951  0.51169  1.0000
  C   C2336     1.0  0.50387  0.48998  0.62582  1.0000
  C   C2337     1.0  0.71054  0.34242  0.33271  1.0000
  S   S537      1.0  0.67744  0.34027  0.28146  1.0000
  C   C2338     1.0  0.53604  0.43286  0.98333  1.0000
  C   C2339     1.0  0.71676  0.34709  0.35394  1.0000
  H   H4107     1.0  0.55106  0.38824  0.08361  1.0000
  N   N125      1.0  0.65583  0.37124  0.79246  1.0000
  H   H4108     1.0  0.53153  0.37893  0.74990  1.0000
  H   H4109     1.0  0.64049  0.34263  0.97612  1.0000
  H   H4110     1.0  0.62979  0.33923  0.86505  1.0000
  C   C2340     1.0  0.54598  0.37572  0.16104  1.0000
  H   H4111     1.0  0.56680  0.47358  0.08569  1.0000
  C   C2341     1.0  0.56908  0.49259  0.86176  1.0000
  H   H4112     1.0  0.71361  0.37200  0.94819  1.0000
  C   C2342     1.0  0.74796  0.40292  0.99238  1.0000
  C   C2343     1.0  0.53647  0.38491  0.05539  1.0000
  H   H4113     1.0  0.58072  0.36651  0.59677  1.0000
  H   H4114     1.0  0.64506  0.38345  0.69879  1.0000
  H   H4115     1.0  0.68093  0.35175  0.13677  1.0000
  H   H4116     1.0  0.61901  0.34210  0.40430  1.0000
  H   H4117     1.0  0.54720  0.47963  0.96081  1.0000
  C   C2344     1.0  0.52880  0.43856  0.96897  1.0000
  C   C2345     1.0  0.57499  0.35299  0.58854  1.0000
  H   H4118     1.0  0.70070  0.39605  0.97938  1.0000
  N   N126      1.0  0.64944  0.34823  0.10233  1.0000
  C   C2346     1.0  0.51283  0.44230  0.97910  1.0000
  H   H4119     1.0  0.52872  0.38568  0.11353  1.0000
  H   H4120     1.0  0.67164  0.37584  0.76669  1.0000
  H   H4121     1.0  0.73269  0.36349  0.42650  1.0000
  C   C2347     1.0  0.74610  0.36694  0.37852  1.0000
  H   H4122     1.0  0.72953  0.37384  0.06906  1.0000
  H   H4123     1.0  0.53705  0.49490  0.65361  1.0000
  C   C2348     1.0  0.53098  0.48344  0.32324  1.0000
  H   H4124     1.0  0.71700  0.36231  0.32639  1.0000
  C   C2349     1.0  0.73326  0.37387  0.86835  1.0000
  H   H4125     1.0  0.66725  0.37245  0.82018  1.0000
  H   H4126     1.0  0.51432  0.49083  0.32650  1.0000
  Fe  Fe265     1.0  0.57734  0.35193  0.68345  1.0000
  H   H4127     1.0  0.53834  0.39290  0.03849  1.0000
  H   H4128     1.0  0.62414  0.35375  0.87860  1.0000
  Fe  Fe266     1.0  0.57468  0.35156  0.37651  1.0000
  C   C2350     1.0  0.72929  0.36175  0.37270  1.0000
  H   H4129     1.0  0.55059  0.35815  0.19587  1.0000
  H   H4130     1.0  0.64305  0.35535  0.32689  1.0000
  H   H4131     1.0  0.59936  0.48188  0.08398  1.0000
  H   H4132     1.0  0.70779  0.37294  0.11201  1.0000
  C   C2351     1.0  0.71408  0.36968  0.10317  1.0000
  H   H4133     1.0  0.67783  0.39940  0.78848  1.0000
  H   H4134     1.0  0.52950  0.38148  0.05224  1.0000
  H   H4135     1.0  0.70625  0.40404  0.10545  1.0000
  C   C2352     1.0  0.71391  0.40814  0.08704  1.0000
  C   C2353     1.0  0.66713  0.38739  0.78775  1.0000
  C   C2354     1.0  0.57735  0.48888  0.51157  1.0000
  C   C2355     1.0  0.72142  0.42030  0.80990  1.0000
  H   H4136     1.0  0.53382  0.37508  0.11488  1.0000
  C   C2356     1.0  0.54650  0.36124  0.21835  1.0000
  H   H4137     1.0  0.66141  0.38865  0.81170  1.0000
  H   H4138     1.0  0.71468  0.41005  0.05426  1.0000
  H   H4139     1.0  0.61638  0.33863  0.30807  1.0000
  H   H4140     1.0  0.74968  0.40907  0.00407  1.0000
  C   C2357     1.0  0.65470  0.34792  0.06068  1.0000
  N   N127      1.0  0.61619  0.34205  0.93510  1.0000
  H   H4141     1.0  0.66520  0.36591  0.05917  1.0000
  H   H4142     1.0  0.55706  0.48041  0.56219  1.0000
  C   C2358     1.0  0.67706  0.39153  0.79089  1.0000
  C   C2359     1.0  0.72739  0.34869  0.96861  1.0000
  C   C2360     1.0  0.73709  0.38715  0.27742  1.0000
  H   H4143     1.0  0.72857  0.40652  0.07868  1.0000
  H   H4144     1.0  0.61580  0.35171  0.37280  1.0000
  H   H4145     1.0  0.72208  0.35197  0.84340  1.0000
  H   H4146     1.0  0.64048  0.36797  0.82689  1.0000
  C   C2361     1.0  0.66567  0.37631  0.79227  1.0000
  H   H4147     1.0  0.63881  0.37048  0.76661  1.0000
  C   C2362     1.0  0.63961  0.37199  0.89703  1.0000
  C   C2363     1.0  0.61795  0.34464  0.37414  1.0000
  H   H4148     1.0  0.51238  0.44144  0.80688  1.0000
  H   H4149     1.0  0.64565  0.36269  0.74624  1.0000
  C   C2364     1.0  0.50806  0.42817  0.85823  1.0000
  C   C2365     1.0  0.64814  0.36982  0.86818  1.0000
  H   H4150     1.0  0.66141  0.37600  0.72655  1.0000
  H   H4151     1.0  0.63851  0.37204  0.69792  1.0000
  H   H4152     1.0  0.73511  0.37232  0.83990  1.0000
  C   C2366     1.0  0.70826  0.35087  0.50530  1.0000
  S   S538      1.0  0.56590  0.34817  0.74480  1.0000
  H   H4153     1.0  0.74014  0.41707  0.81522  1.0000
  C   C2367     1.0  0.62553  0.34019  0.94289  1.0000
  C   C2368     1.0  0.66064  0.34550  0.27038  1.0000
  S   S539      1.0  0.56202  0.35781  0.40169  1.0000
  H   H4154     1.0  0.64670  0.38028  0.81544  1.0000
  H   H4155     1.0  0.65501  0.37400  0.86939  1.0000
  H   H4156     1.0  0.50388  0.43036  0.74068  1.0000
  H   H4157     1.0  0.63716  0.34843  0.37994  1.0000
  H   H4158     1.0  0.53852  0.35795  0.22750  1.0000
  H   H4159     1.0  0.73245  0.40140  0.01330  1.0000
  H   H4160     1.0  0.71386  0.34661  0.50862  1.0000
  H   H4161     1.0  0.64731  0.34925  0.26376  1.0000
  C   C2369     1.0  0.51419  0.42482  0.99164  1.0000
  H   H4162     1.0  0.66414  0.35288  0.26709  1.0000
  H   H4163     1.0  0.51548  0.49459  0.78647  1.0000
  H   H4164     1.0  0.53759  0.48259  0.54754  1.0000
  N   N128      1.0  0.71839  0.36106  0.38570  1.0000
  H   H4165     1.0  0.73394  0.34161  0.01302  1.0000
  H   H4166     1.0  0.66115  0.35967  0.73972  1.0000
  C   C2370     1.0  0.64755  0.37259  0.82443  1.0000
  C   C2371     1.0  0.64525  0.37568  0.70203  1.0000
  C   C2372     1.0  0.64564  0.37043  0.74412  1.0000
  H   H4167     1.0  0.53147  0.44634  0.96692  1.0000
  C   C2373     1.0  0.65530  0.36039  0.80189  1.0000
  H   H4168     1.0  0.64773  0.36186  0.88010  1.0000
  S   S540      1.0  0.58941  0.34874  0.70855  1.0000
  H   H4169     1.0  0.64010  0.36979  0.92824  1.0000
  H   H4170     1.0  0.67015  0.36070  0.76496  1.0000
  H   H4171     1.0  0.59907  0.36693  0.95180  1.0000
  H   H4172     1.0  0.63513  0.34345  0.14794  1.0000
  H   H4173     1.0  0.70937  0.39696  0.00623  1.0000
  H   H4174     1.0  0.52324  0.49908  0.33659  1.0000
  C   C2374     1.0  0.66242  0.35737  0.76941  1.0000
  H   H4175     1.0  0.54586  0.49364  0.90752  1.0000
  H   H4176     1.0  0.65699  0.35755  0.83039  1.0000
  C   C2375     1.0  0.74254  0.38649  0.14841  1.0000
  C   C2376     1.0  0.71433  0.35690  0.35761  1.0000
  H   H4177     1.0  0.52978  0.43861  0.93727  1.0000
  H   H4178     1.0  0.63988  0.37997  0.88722  1.0000
  H   H4179     1.0  0.57442  0.47612  0.01463  1.0000
  C   C2377     1.0  0.66002  0.34130  0.90431  1.0000
  C   C2378     1.0  0.72979  0.34739  0.00865  1.0000
  C   C2379     1.0  0.63600  0.35297  0.35229  1.0000
  H   H4180     1.0  0.71707  0.35870  0.07356  1.0000
  C   C2380     1.0  0.60940  0.35189  0.26466  1.0000
  H   H4181     1.0  0.63250  0.36783  0.89770  1.0000
  H   H4182     1.0  0.61921  0.35419  0.95784  1.0000
  C   C2381     1.0  0.57384  0.36500  0.51485  1.0000
  N   N129      1.0  0.58064  0.49054  0.01542  1.0000
  C   C2382     1.0  0.50189  0.47106  0.83391  1.0000
  H   H4183     1.0  0.73307  0.40635  0.88453  1.0000
  C   C2383     1.0  0.66034  0.36542  0.08941  1.0000
  H   H4184     1.0  0.54826  0.35070  0.71780  1.0000
  C   C2384     1.0  0.73759  0.39660  0.01652  1.0000
  H   H4185     1.0  0.74586  0.39064  0.16523  1.0000
  C   C2385     1.0  0.70786  0.39461  0.98123  1.0000
  C   C2386     1.0  0.60290  0.36176  0.96635  1.0000
  C   C2387     1.0  0.55250  0.49108  0.90273  1.0000
  Fe  Fe267     1.0  0.57312  0.36744  0.41711  1.0000
  H   H4186     1.0  0.73075  0.35429  0.37836  1.0000
  H   H4187     1.0  0.50088  0.41328  0.78201  1.0000
  C   C2388     1.0  0.62387  0.34538  0.81866  1.0000
  H   H4188     1.0  0.61719  0.35246  0.24834  1.0000
  C   C2389     1.0  0.61860  0.34660  0.88972  1.0000
  H   H4189     1.0  0.73577  0.39314  0.28894  1.0000
  H   H4190     1.0  0.57946  0.37712  0.53256  1.0000
  C   C2390     1.0  0.51746  0.43389  0.03801  1.0000
  H   H4191     1.0  0.57780  0.48055  0.57081  1.0000
  H   H4192     1.0  0.61194  0.36170  0.90900  1.0000
  H   H4193     1.0  0.60761  0.35901  0.25257  1.0000
  H   H4194     1.0  0.73260  0.36553  0.33923  1.0000
  H   H4195     1.0  0.53377  0.45643  0.41779  1.0000
  H   H4196     1.0  0.64523  0.35934  0.12837  1.0000
  H   H4197     1.0  0.50844  0.43939  0.51063  1.0000
  H   H4198     1.0  0.63205  0.35422  0.08808  1.0000
  H   H4199     1.0  0.56811  0.48504  0.99916  1.0000
  C   C2391     1.0  0.66108  0.34622  0.78257  1.0000
  H   H4200     1.0  0.72667  0.38057  0.96747  1.0000
  H   H4201     1.0  0.74300  0.35937  0.98022  1.0000
  C   C2392     1.0  0.71337  0.35418  0.42890  1.0000
  C   C2393     1.0  0.55216  0.48721  0.42489  1.0000
  H   H4202     1.0  0.70935  0.36619  0.05503  1.0000
  H   H4203     1.0  0.60833  0.34507  0.98906  1.0000
  H   H4204     1.0  0.55146  0.47729  0.04330  1.0000
  H   H4205     1.0  0.72271  0.43527  0.77349  1.0000
  H   H4206     1.0  0.59912  0.34505  0.39072  1.0000
  H   H4207     1.0  0.70445  0.35669  0.10374  1.0000
  H   H4208     1.0  0.57015  0.49440  0.77350  1.0000
  H   H4209     1.0  0.61298  0.35393  0.69904  1.0000
  C   C2394     1.0  0.60699  0.35615  0.93801  1.0000
  H   H4210     1.0  0.52378  0.47802  0.33964  1.0000
  H   H4211     1.0  0.62895  0.35278  0.80720  1.0000
  H   H4212     1.0  0.71442  0.43166  0.82474  1.0000
  H   H4213     1.0  0.57802  0.49236  0.93864  1.0000
  C   C2395     1.0  0.57793  0.36322  0.57732  1.0000
  H   H4214     1.0  0.72232  0.38048  0.04493  1.0000
  S   S541      1.0  0.58516  0.36028  0.39704  1.0000
  H   H4215     1.0  0.57997  0.34317  0.30308  1.0000
  H   H4216     1.0  0.53635  0.49825  0.27785  1.0000
  H   H4217     1.0  0.64707  0.36252  0.07519  1.0000
  H   H4218     1.0  0.52753  0.49010  0.26743  1.0000
  C   C2396     1.0  0.74075  0.37828  0.88029  1.0000
  C   C2397     1.0  0.56038  0.49584  0.86698  1.0000
  S   S542      1.0  0.57514  0.34529  0.63549  1.0000
  H   H4219     1.0  0.50488  0.43894  0.67190  1.0000
  H   H4220     1.0  0.73501  0.37498  0.38604  1.0000
  H   H4221     1.0  0.54147  0.46374  0.43618  1.0000
  H   H4222     1.0  0.54365  0.34348  0.69026  1.0000
  N   N130      1.0  0.72070  0.40370  0.86295  1.0000
  H   H4223     1.0  0.55017  0.48890  0.57536  1.0000
  Fe  Fe268     1.0  0.57842  0.34609  0.76942  1.0000
  H   H4224     1.0  0.63157  0.34700  0.92715  1.0000
  H   H4225     1.0  0.58876  0.49016  0.53975  1.0000
  C   C2398     1.0  0.58515  0.49668  0.93652  1.0000
  H   H4226     1.0  0.51574  0.49714  0.64157  1.0000
  H   H4227     1.0  0.71684  0.40824  0.93629  1.0000
  H   H4228     1.0  0.59489  0.49793  0.97006  1.0000
  H   H4229     1.0  0.71401  0.38967  0.91029  1.0000
  H   H4230     1.0  0.54460  0.47410  0.53333  1.0000
  C   C2399     1.0  0.56414  0.47861  0.06438  1.0000
  H   H4231     1.0  0.70566  0.38246  0.41710  1.0000
  C   C2400     1.0  0.57187  0.34878  0.56191  1.0000
  H   H4232     1.0  0.66642  0.48293  0.33215  1.0000
  H   H4233     1.0  0.50607  0.49363  0.73943  1.0000
  H   H4234     1.0  0.51247  0.42577  0.12197  1.0000
  C   C2401     1.0  0.71111  0.36239  0.08240  1.0000
  H   H4235     1.0  0.52161  0.42858  0.04940  1.0000
  H   H4236     1.0  0.56872  0.35144  0.50521  1.0000
  H   H4237     1.0  0.70861  0.34731  0.99350  1.0000
  H   H4238     1.0  0.64751  0.34361  0.88546  1.0000
  H   H4239     1.0  0.50447  0.39322  0.11537  1.0000
  H   H4240     1.0  0.65216  0.35249  0.03723  1.0000
  H   H4241     1.0  0.55659  0.34882  0.67469  1.0000
  H   H4242     1.0  0.71557  0.41753  0.79856  1.0000
  H   H4243     1.0  0.57182  0.48280  0.51124  1.0000
  H   H4244     1.0  0.57003  0.48233  0.80432  1.0000
  H   H4245     1.0  0.57637  0.48175  0.88674  1.0000
  C   C2402     1.0  0.73532  0.36715  0.39323  1.0000
  H   H4246     1.0  0.51689  0.48486  0.60406  1.0000
  H   H4247     1.0  0.73225  0.36279  0.00570  1.0000
  C   C2403     1.0  0.72832  0.34551  0.88985  1.0000
  H   H4248     1.0  0.70733  0.38658  0.98876  1.0000
  H   H4249     1.0  0.73925  0.36116  0.14175  1.0000
  H   H4250     1.0  0.73957  0.39781  0.07186  1.0000
  C   C2404     1.0  0.66114  0.47749  0.36073  1.0000
  H   H4251     1.0  0.70622  0.39788  0.90803  1.0000
  N   N131      1.0  0.56584  0.50063  0.50424  1.0000
  H   H4252     1.0  0.65350  0.34762  0.15655  1.0000
  H   H4253     1.0  0.70468  0.37190  0.35432  1.0000
  H   H4254     1.0  0.73455  0.34977  0.94531  1.0000
  H   H4255     1.0  0.72413  0.41825  0.86765  1.0000
  H   H4256     1.0  0.59706  0.35422  0.52240  1.0000
  H   H4257     1.0  0.74171  0.36569  0.23649  1.0000
  Fe  Fe269     1.0  0.52383  0.49604  0.84198  1.0000
  H   H4258     1.0  0.71178  0.41412  0.87136  1.0000
  H   H4259     1.0  0.57127  0.48478  0.75111  1.0000
  H   H4260     1.0  0.52461  0.46202  0.30655  1.0000
  H   H4261     1.0  0.74757  0.38883  0.11677  1.0000
  H   H4262     1.0  0.51791  0.46218  0.25021  1.0000
  C   C2405     1.0  0.73933  0.40905  0.82126  1.0000
  H   H4263     1.0  0.61245  0.35554  0.31441  1.0000
  H   H4264     1.0  0.62259  0.34175  0.00428  1.0000
  H   H4265     1.0  0.54234  0.38166  0.04143  1.0000
  C   C2406     1.0  0.65407  0.33764  0.05575  1.0000
  H   H4266     1.0  0.69785  0.39351  0.80196  1.0000
  H   H4267     1.0  0.74841  0.37074  0.09915  1.0000
  C   C2407     1.0  0.73250  0.38854  0.14966  1.0000
  H   H4268     1.0  0.70414  0.40345  0.83939  1.0000
  H   H4269     1.0  0.72312  0.34544  0.03542  1.0000
  C   C2408     1.0  0.70722  0.39709  0.83604  1.0000
  H   H4270     1.0  0.73798  0.40704  0.79538  1.0000
  C   C2409     1.0  0.73105  0.40332  0.86188  1.0000
  H   H4271     1.0  0.65498  0.48077  0.37166  1.0000
  H   H4272     1.0  0.72755  0.43439  0.81496  1.0000
  H   H4273     1.0  0.72261  0.40328  0.80162  1.0000
  H   H4274     1.0  0.72005  0.39165  0.83844  1.0000
  C   C2410     1.0  0.70577  0.39493  0.79860  1.0000
  H   H4275     1.0  0.56417  0.49938  0.32468  1.0000
  H   H4276     1.0  0.52172  0.38583  0.24786  1.0000
  H   H4277     1.0  0.50414  0.42230  0.07418  1.0000
  C   C2411     1.0  0.71943  0.41410  0.85488  1.0000
  C   C2412     1.0  0.71816  0.39894  0.83345  1.0000
  C   C2413     1.0  0.72153  0.43106  0.80569  1.0000
  H   H4278     1.0  0.73157  0.39553  0.87060  1.0000
  C   C2414     1.0  0.58815  0.49248  0.97442  1.0000
  C   C2415     1.0  0.74609  0.38452  0.27376  1.0000
  C   C2416     1.0  0.55453  0.47271  0.06455  1.0000
  H   H4279     1.0  0.52362  0.43652  0.41347  1.0000
  C   C2417     1.0  0.58289  0.48438  0.53935  1.0000
  C   C2418     1.0  0.52955  0.49226  0.29191  1.0000
  H   H4280     1.0  0.51620  0.49320  0.43290  1.0000
  H   H4281     1.0  0.73848  0.35555  0.03485  1.0000
  H   H4282     1.0  0.54910  0.47014  0.09562  1.0000
  H   H4283     1.0  0.74696  0.35933  0.38950  1.0000
  H   H4284     1.0  0.66250  0.34576  0.11714  1.0000
  H   H4285     1.0  0.74600  0.34225  0.30935  1.0000
  C   C2419     1.0  0.65444  0.34403  0.13250  1.0000
  H   H4286     1.0  0.62693  0.34088  0.80024  1.0000
  C   C2420     1.0  0.52139  0.49648  0.31257  1.0000
  H   H4287     1.0  0.59047  0.48561  0.97281  1.0000
  H   H4288     1.0  0.63046  0.34024  0.33890  1.0000
  C   C2421     1.0  0.56685  0.48914  0.25282  1.0000
  C   C2422     1.0  0.54288  0.47827  0.55494  1.0000
  H   H4289     1.0  0.65593  0.34294  0.99095  1.0000
  H   H4290     1.0  0.57526  0.49633  0.83442  1.0000
  H   H4291     1.0  0.55657  0.47572  0.26486  1.0000
  H   H4292     1.0  0.56807  0.49519  0.26554  1.0000
  C   C2423     1.0  0.50961  0.48006  0.42392  1.0000
  H   H4293     1.0  0.52095  0.44111  0.03933  1.0000
  H   H4294     1.0  0.51883  0.47153  0.58313  1.0000
  C   C2424     1.0  0.50113  0.42822  0.48979  1.0000
  C   C2425     1.0  0.50969  0.48734  0.44261  1.0000
  N   N132      1.0  0.50822  0.43049  0.44757  1.0000
  H   H4295     1.0  0.55988  0.48808  0.48914  1.0000
  C   C2426     1.0  0.55328  0.48313  0.93290  1.0000
  C   C2427     1.0  0.60956  0.33939  0.32879  1.0000
  C   C2428     1.0  0.74771  0.37686  0.25819  1.0000
  H   H4296     1.0  0.50609  0.40484  0.41294  1.0000
  H   H4297     1.0  0.58712  0.47953  0.04490  1.0000
  C   C2429     1.0  0.71674  0.37127  0.37971  1.0000
  H   H4298     1.0  0.73615  0.39088  0.00238  1.0000
  H   H4299     1.0  0.56970  0.34087  0.57004  1.0000
  C   C2430     1.0  0.74397  0.36306  0.10965  1.0000
  H   H4300     1.0  0.58002  0.48481  0.07828  1.0000
  S   S543      1.0  0.52867  0.49660  0.48739  1.0000
  H   H4301     1.0  0.59179  0.48818  0.11175  1.0000
  H   H4302     1.0  0.52728  0.47300  0.21724  1.0000
  H   H4303     1.0  0.56260  0.48462  0.07668  1.0000
  C   C2431     1.0  0.58527  0.48656  0.04721  1.0000
  H   H4304     1.0  0.70697  0.35437  0.52948  1.0000
  H   H4305     1.0  0.72457  0.34845  0.33548  1.0000
  H   H4306     1.0  0.70591  0.35007  0.43250  1.0000
  H   H4307     1.0  0.54908  0.49145  0.26192  1.0000
  N   N133      1.0  0.51809  0.43473  0.99471  1.0000
  H   H4308     1.0  0.71176  0.34751  0.30183  1.0000
  N   N134      1.0  0.71980  0.34046  0.96805  1.0000
  S   S544      1.0  0.53762  0.50052  0.78898  1.0000
  C   C2432     1.0  0.72609  0.34616  0.85033  1.0000
  H   H4309     1.0  0.56632  0.49220  0.22201  1.0000
  C   C2433     1.0  0.62496  0.33656  0.98827  1.0000
  H   H4310     1.0  0.57330  0.48587  0.24991  1.0000
  H   H4311     1.0  0.62803  0.35134  0.31131  1.0000
  C   C2434     1.0  0.59472  0.49336  0.04589  1.0000
  H   H4312     1.0  0.60465  0.34608  0.25883  1.0000
  C   C2435     1.0  0.55451  0.49417  0.38643  1.0000
  H   H4313     1.0  0.51193  0.43371  0.36337  1.0000
  H   H4314     1.0  0.59047  0.49995  0.87110  1.0000
  C   C2436     1.0  0.59269  0.49667  0.89786  1.0000
  H   H4315     1.0  0.61833  0.34032  0.13631  1.0000
  H   H4316     1.0  0.69031  0.33804  0.03613  1.0000
  H   H4317     1.0  0.51245  0.48031  0.52493  1.0000
  H   H4318     1.0  0.51092  0.48850  0.56843  1.0000
  H   H4319     1.0  0.50479  0.44441  0.42441  1.0000
  C   C2437     1.0  0.50268  0.46756  0.65363  1.0000
  C   C2438     1.0  0.50647  0.45004  0.92152  1.0000
  S   S545      1.0  0.74709  0.38941  0.92335  1.0000
  H   H4320     1.0  0.74829  0.38026  0.86070  1.0000
  H   H4321     1.0  0.50785  0.45185  0.88828  1.0000
  H   H4322     1.0  0.50441  0.46340  0.73252  1.0000
  H   H4323     1.0  0.71014  0.33735  0.02975  1.0000
  H   H4324     1.0  0.67169  0.33657  0.92406  1.0000
  H   H4325     1.0  0.50611  0.45324  0.71355  1.0000
  H   H4326     1.0  0.51947  0.46146  0.52306  1.0000
  H   H4327     1.0  0.50680  0.45697  0.92913  1.0000
  H   H4328     1.0  0.59367  0.50080  0.04509  1.0000
  H   H4329     1.0  0.50902  0.46119  0.59488  1.0000
  H   H4330     1.0  0.57580  0.49953  0.05239  1.0000
  H   H4331     1.0  0.56214  0.49753  0.02645  1.0000
  C   C2439     1.0  0.57787  0.49987  0.01990  1.0000
  C   C2440     1.0  0.50474  0.43737  0.41795  1.0000
  N   N135      1.0  0.50444  0.47363  0.61009  1.0000
  H   H4332     1.0  0.50482  0.46852  0.53470  1.0000
  N   N136      1.0  0.60995  0.33717  0.37155  1.0000
  H   H4333     1.0  0.58698  0.33622  0.24917  1.0000
  H   H4334     1.0  0.60454  0.33905  0.45153  1.0000
  H   H4335     1.0  0.71353  0.33724  0.92360  1.0000
  H   H4336     1.0  0.69912  0.33691  0.96858  1.0000
  C   C2441     1.0  0.74916  0.40695  0.82323  1.0000
  H   H4337     1.0  0.74895  0.39905  0.82768  1.0000
  H   H4338     1.0  0.74863  0.40605  0.95987  1.0000
  H   H4339     1.0  0.74914  0.36980  0.34483  1.0000
  C   C2442     1.0  0.50121  0.43685  0.50756  1.0000
  H   H4340     1.0  0.59476  0.33652  0.95654  1.0000
  C   C2443     1.0  0.60026  0.33747  0.39902  1.0000
  H   H4341     1.0  0.74931  0.34652  0.89379  1.0000
  S   S546      1.0  0.50152  0.49603  0.49726  1.0000
  C   C2444     1.0  0.50135  0.48704  0.47348  1.0000
  S   S547      1.0  0.50090  0.46389  0.40996  1.0000
  H   H4342     1.0  0.50156  0.42595  0.96976  1.0000
  Fe  Fe270     1.0  0.50116  0.41080  0.28074  1.0000
  C   C2445     1.0  0.50120  0.47251  0.43581  1.0000
  H   H4343     1.0  0.50153  0.41537  0.91153  1.0000
  H   H4344     1.0  0.60179  0.33650  0.66530  1.0000
  C   C2446     1.0  0.58195  0.33623  0.31113  1.0000
  H   H4345     1.0  0.50179  0.39372  0.86826  1.0000
  H   H4346     1.0  0.56983  0.50203  0.97484  1.0000
  H   H4347     1.0  0.50047  0.48557  0.65812  1.0000
  H   H4348     1.0  0.50064  0.46478  0.86035  1.0000
  C   C2447     1.0  0.50030  0.42177  0.89179  1.0000
  H   H4349     1.0  0.54573  0.58045  0.12248  1.0000
  H   H4350     1.0  0.54381  0.54474  0.75822  1.0000
  H   H4351     1.0  0.56088  0.56663  0.76616  1.0000
  H   H4352     1.0  0.50964  0.54451  0.34886  1.0000
  H   H4353     1.0  0.52962  0.59165  0.13784  1.0000
  H   H4354     1.0  0.56888  0.53106  0.53090  1.0000
  C   C2448     1.0  0.53569  0.55422  0.86238  1.0000
  H   H4355     1.0  0.53199  0.54165  0.72254  1.0000
  S   S548      1.0  0.55950  0.50582  0.82854  1.0000
  C   C2449     1.0  0.51323  0.57463  0.11880  1.0000
  H   H4356     1.0  0.52976  0.56502  0.91603  1.0000
  Fe  Fe271     1.0  0.53325  0.50804  0.51423  1.0000
  Fe  Fe272     1.0  0.53097  0.52451  0.44679  1.0000
  S   S549      1.0  0.52092  0.51528  0.50935  1.0000
  S   S550      1.0  0.53325  0.54098  0.42516  1.0000
  H   H4357     1.0  0.50151  0.54595  0.94395  1.0000
  H   H4358     1.0  0.50473  0.58840  0.75598  1.0000
  H   H4359     1.0  0.55578  0.51007  0.51018  1.0000
  C   C2450     1.0  0.53569  0.50737  0.60892  1.0000
  H   H4360     1.0  0.50959  0.55534  0.14737  1.0000
  H   H4361     1.0  0.56753  0.51384  0.03442  1.0000
  H   H4362     1.0  0.52847  0.57002  0.14238  1.0000
  S   S551      1.0  0.52604  0.51436  0.41523  1.0000
  S   S552      1.0  0.54379  0.51820  0.45418  1.0000
  Fe  Fe273     1.0  0.54430  0.50728  0.82765  1.0000
  C   C2451     1.0  0.55443  0.56676  0.75537  1.0000
  H   H4363     1.0  0.56167  0.53911  0.85710  1.0000
  Fe  Fe274     1.0  0.52666  0.51576  0.85633  1.0000
  S   S553      1.0  0.51847  0.50953  0.82082  1.0000
  S   S554      1.0  0.52051  0.52350  0.90100  1.0000
  H   H4364     1.0  0.56322  0.57844  0.69948  1.0000
  H   H4365     1.0  0.58436  0.50623  0.00372  1.0000
  Fe  Fe275     1.0  0.53291  0.51451  0.77016  1.0000
  S   S555      1.0  0.53364  0.52263  0.70601  1.0000
  N   N137      1.0  0.51473  0.57417  0.15913  1.0000
  S   S556      1.0  0.54084  0.52187  0.80408  1.0000
  H   H4366     1.0  0.51156  0.59726  0.20718  1.0000
  C   C2452     1.0  0.53450  0.51698  0.60094  1.0000
  C   C2453     1.0  0.53387  0.52156  0.63098  1.0000
  C   C2454     1.0  0.53433  0.51655  0.66931  1.0000
  H   H4367     1.0  0.55851  0.52662  0.51694  1.0000
  H   H4368     1.0  0.57373  0.50866  0.37749  1.0000
  H   H4369     1.0  0.53409  0.52091  0.57160  1.0000
  H   H4370     1.0  0.53301  0.52902  0.62453  1.0000
  H   H4371     1.0  0.50588  0.57004  0.12389  1.0000
  H   H4372     1.0  0.51781  0.56462  0.91043  1.0000
  C   C2455     1.0  0.51401  0.58450  0.04775  1.0000
  H   H4373     1.0  0.54691  0.56955  0.80892  1.0000
  C   C2456     1.0  0.55626  0.57694  0.72463  1.0000
  H   H4374     1.0  0.55917  0.52078  0.56681  1.0000
  S   S557      1.0  0.51106  0.56585  0.32178  1.0000
  C   C2457     1.0  0.50387  0.54274  0.92029  1.0000
  H   H4375     1.0  0.52630  0.57366  0.18612  1.0000
  C   C2458     1.0  0.52933  0.54159  0.75449  1.0000
  H   H4376     1.0  0.50249  0.58047  0.17713  1.0000
  H   H4377     1.0  0.57856  0.51044  0.45488  1.0000
  H   H4378     1.0  0.53084  0.56809  0.84452  1.0000
  C   C2459     1.0  0.53372  0.54837  0.80690  1.0000
  H   H4379     1.0  0.52107  0.55335  0.93094  1.0000
  H   H4380     1.0  0.57407  0.51561  0.53478  1.0000
  C   C2460     1.0  0.50521  0.54547  0.20813  1.0000
  H   H4381     1.0  0.55329  0.52712  0.87784  1.0000
  H   H4382     1.0  0.50128  0.56345  0.19749  1.0000
  C   C2461     1.0  0.56852  0.51301  0.00397  1.0000
  C   C2462     1.0  0.50510  0.54188  0.85324  1.0000
  C   C2463     1.0  0.51031  0.53451  0.85894  1.0000
  C   C2464     1.0  0.51268  0.53154  0.89470  1.0000
  H   H4383     1.0  0.50706  0.58971  0.25992  1.0000
  H   H4384     1.0  0.54109  0.55702  0.87595  1.0000
  H   H4385     1.0  0.50360  0.54441  0.82493  1.0000
  H   H4386     1.0  0.51276  0.53135  0.83524  1.0000
  C   C2465     1.0  0.51139  0.55516  0.17551  1.0000
  C   C2466     1.0  0.54670  0.53908  0.85721  1.0000
  C   C2467     1.0  0.52687  0.54735  0.39579  1.0000
  C   C2468     1.0  0.52004  0.54262  0.38187  1.0000
  C   C2469     1.0  0.51487  0.54812  0.35987  1.0000
  C   C2470     1.0  0.51673  0.55837  0.35115  1.0000
  C   C2471     1.0  0.52377  0.56303  0.36417  1.0000
  C   C2472     1.0  0.52872  0.55756  0.38665  1.0000
  H   H4387     1.0  0.51881  0.53478  0.38802  1.0000
  C   C2473     1.0  0.55544  0.53438  0.85362  1.0000
  H   H4388     1.0  0.52536  0.57093  0.35710  1.0000
  H   H4389     1.0  0.53404  0.56128  0.39698  1.0000
  H   H4390     1.0  0.54742  0.59354  0.11192  1.0000
  H   H4391     1.0  0.51355  0.59169  0.02873  1.0000
  H   H4392     1.0  0.53913  0.55538  0.74075  1.0000
  H   H4393     1.0  0.54237  0.58544  0.16376  1.0000
  H   H4394     1.0  0.57331  0.52135  0.48522  1.0000
  H   H4395     1.0  0.50307  0.51966  0.79106  1.0000
  C   C2474     1.0  0.56607  0.51115  0.43343  1.0000
  H   H4396     1.0  0.53917  0.56718  0.78032  1.0000
  H   H4397     1.0  0.56212  0.51462  0.99461  1.0000
  H   H4398     1.0  0.54455  0.53993  0.88782  1.0000
  C   C2475     1.0  0.52541  0.57543  0.15547  1.0000
  H   H4399     1.0  0.53077  0.54072  0.82802  1.0000
  N   N138      1.0  0.54099  0.55406  0.82043  1.0000
  C   C2476     1.0  0.57151  0.50539  0.45953  1.0000
  H   H4400     1.0  0.53174  0.54662  0.88309  1.0000
  H   H4401     1.0  0.50352  0.50882  0.77611  1.0000
  C   C2477     1.0  0.54932  0.54918  0.82340  1.0000
  C   C2478     1.0  0.53733  0.54792  0.76320  1.0000
  C   C2479     1.0  0.52392  0.56086  0.90833  1.0000
  H   H4402     1.0  0.51860  0.57137  0.10146  1.0000
  H   H4403     1.0  0.52104  0.58294  0.03288  1.0000
  H   H4404     1.0  0.50684  0.54471  0.23701  1.0000
  C   C2480     1.0  0.51034  0.58163  0.17534  1.0000
  C   C2481     1.0  0.53228  0.58560  0.12870  1.0000
  H   H4405     1.0  0.55686  0.58271  0.73930  1.0000
  C   C2482     1.0  0.50931  0.56410  0.18927  1.0000
  C   C2483     1.0  0.56353  0.52436  0.53408  1.0000
  H   H4406     1.0  0.50663  0.58706  0.10268  1.0000
  H   H4407     1.0  0.56796  0.51877  0.37043  1.0000
  H   H4408     1.0  0.55298  0.54811  0.79423  1.0000
  H   H4409     1.0  0.52263  0.54448  0.75877  1.0000
  H   H4410     1.0  0.52155  0.55709  0.85771  1.0000
  C   C2484     1.0  0.52786  0.56040  0.86526  1.0000
  C   C2485     1.0  0.50927  0.53555  0.92559  1.0000
  C   C2486     1.0  0.56896  0.51736  0.51754  1.0000
  C   C2487     1.0  0.54497  0.56456  0.79207  1.0000
  H   H4411     1.0  0.53577  0.50296  0.70673  1.0000
  H   H4412     1.0  0.51101  0.53326  0.95344  1.0000
  H   H4413     1.0  0.55504  0.55407  0.82923  1.0000
  H   H4414     1.0  0.51838  0.58251  0.21874  1.0000
  H   H4415     1.0  0.55021  0.57731  0.71146  1.0000
  H   H4416     1.0  0.55900  0.50641  0.43680  1.0000
  H   H4417     1.0  0.56463  0.51764  0.44238  1.0000
  H   H4418     1.0  0.51919  0.55496  0.16992  1.0000
  H   H4419     1.0  0.50690  0.53920  0.19779  1.0000
  H   H4420     1.0  0.55419  0.56133  0.73910  1.0000
  H   H4421     1.0  0.51972  0.59066  0.08699  1.0000
  H   H4422     1.0  0.52725  0.55157  0.80839  1.0000
  H   H4423     1.0  0.52741  0.53386  0.77476  1.0000
  Fe  Fe276     1.0  0.53812  0.50727  0.42704  1.0000
  H   H4424     1.0  0.54059  0.53389  0.85559  1.0000
  H   H4425     1.0  0.50794  0.54693  0.44979  1.0000
  H   H4426     1.0  0.55784  0.53315  0.82377  1.0000
  H   H4427     1.0  0.51101  0.56306  0.21821  1.0000
  C   C2488     1.0  0.54257  0.58625  0.13201  1.0000
  H   H4428     1.0  0.53301  0.58674  0.09632  1.0000
  C   C2489     1.0  0.51346  0.58484  0.09025  1.0000
  H   H4429     1.0  0.51380  0.58922  0.15431  1.0000
  H   H4430     1.0  0.57523  0.51843  0.98153  1.0000
  H   H4431     1.0  0.50786  0.57872  0.04931  1.0000
  C   C2490     1.0  0.57215  0.51488  0.38835  1.0000
  H   H4432     1.0  0.57915  0.52009  0.38294  1.0000
  H   H4433     1.0  0.55785  0.50435  0.55582  1.0000
  C   C2491     1.0  0.51077  0.58162  0.21781  1.0000
  C   C2492     1.0  0.50692  0.59005  0.22895  1.0000
  C   C2493     1.0  0.56161  0.50786  0.52257  1.0000
  C   C2494     1.0  0.53544  0.50690  0.67735  1.0000
  H   H4434     1.0  0.50615  0.57469  0.24167  1.0000
  H   H4435     1.0  0.58478  0.50443  0.93266  1.0000
  H   H4436     1.0  0.50522  0.52463  0.38369  1.0000
  H   H4437     1.0  0.50210  0.53082  0.43720  1.0000
  Fe  Fe277     1.0  0.51708  0.50457  0.47839  1.0000
  H   H4438     1.0  0.50908  0.51028  0.36578  1.0000
  C   C2495     1.0  0.50199  0.54613  0.88367  1.0000
  H   H4439     1.0  0.50316  0.51445  0.42871  1.0000
  H   H4440     1.0  0.50620  0.50356  0.63994  1.0000
  H   H4441     1.0  0.51485  0.50386  0.59318  1.0000
  C   C2496     1.0  0.50128  0.51042  0.37777  1.0000
  S   S558      1.0  0.54778  0.50311  0.37665  1.0000
  C   C2497     1.0  0.56921  0.50256  0.00534  1.0000
  C   C2498     1.0  0.50025  0.54763  0.45628  1.0000
  H   H4442     1.0  0.52050  0.50283  0.28979  1.0000
  H   H4443     1.0  0.57891  0.50284  0.52122  1.0000
  H   H4444     1.0  0.50047  0.57822  0.80286  1.0000
  C   C2499     1.0  0.50039  0.51731  0.40326  1.0000
  C   C2500     1.0  0.53618  0.50236  0.64716  1.0000
  H   H4445     1.0  0.53398  0.96663  0.66200  1.0000
  H   H4446     1.0  0.53557  0.93575  0.80411  1.0000
  H   H4447     1.0  0.50223  0.92689  0.37641  1.0000
  C   C2501     1.0  0.55111  0.99230  0.01505  1.0000
  Fe  Fe278     1.0  0.54501  0.98270  0.37299  1.0000
  S   S559      1.0  0.53566  0.98148  0.43569  1.0000
  S   S560      1.0  0.54466  0.97073  0.34214  1.0000
  Fe  Fe279     1.0  0.53408  0.99650  0.40559  1.0000
  H   H4448     1.0  0.50961  0.98165  0.63589  1.0000
  Fe  Fe280     1.0  0.54917  0.98983  0.44208  1.0000
  S   S561      1.0  0.55206  0.98503  0.50277  1.0000
  S   S562      1.0  0.54252  0.99730  0.34282  1.0000
  S   S563      1.0  0.55894  0.98982  0.38153  1.0000
  H   H4449     1.0  0.55955  0.99599  0.82481  1.0000
  H   H4450     1.0  0.51306  0.98958  0.56534  1.0000
  H   H4451     1.0  0.52681  0.94393  0.69081  1.0000
  Fe  Fe281     1.0  0.54847  0.99324  0.76492  1.0000
  S   S564      1.0  0.54191  0.99619  0.71467  1.0000
  S   S565      1.0  0.54553  0.97777  0.80946  1.0000
  H   H4452     1.0  0.54429  0.99197  0.86010  1.0000
  H   H4453     1.0  0.51078  0.97758  0.76121  1.0000
  C   C2502     1.0  0.51595  0.99245  0.75898  1.0000
  H   H4454     1.0  0.54294  0.99503  0.25842  1.0000
  H   H4455     1.0  0.51007  0.99342  0.22433  1.0000
  Fe  Fe282     1.0  0.50577  0.93364  0.27653  1.0000
  H   H4456     1.0  0.54439  0.98468  0.96222  1.0000
  C   C2503     1.0  0.52488  0.99727  0.58145  1.0000
  C   C2504     1.0  0.53528  0.96828  0.81668  1.0000
  C   C2505     1.0  0.52895  0.96983  0.79388  1.0000
  C   C2506     1.0  0.51035  0.98840  0.64461  1.0000
  H   H4457     1.0  0.53929  0.99417  0.19483  1.0000
  H   H4458     1.0  0.50305  0.92302  0.42680  1.0000
  C   C2507     1.0  0.53342  0.95896  0.84577  1.0000
  H   H4459     1.0  0.53022  0.97691  0.77149  1.0000
  C   C2508     1.0  0.50905  0.98461  0.75919  1.0000
  H   H4460     1.0  0.50153  0.98961  0.85630  1.0000
  C   C2509     1.0  0.53175  0.98701  0.91362  1.0000
  H   H4461     1.0  0.52317  0.96754  0.37086  1.0000
  H   H4462     1.0  0.50069  0.99831  0.65382  1.0000
  H   H4463     1.0  0.50768  0.95776  0.95753  1.0000
  H   H4464     1.0  0.51533  0.98385  0.18121  1.0000
  H   H4465     1.0  0.51318  0.97584  0.31624  1.0000
  C   C2510     1.0  0.52894  0.98194  0.24711  1.0000
  H   H4466     1.0  0.51089  0.95473  0.91132  1.0000
  H   H4467     1.0  0.51073  0.96165  0.21757  1.0000
  N   N139      1.0  0.52162  0.97844  0.22815  1.0000
  C   C2511     1.0  0.55321  0.99228  0.53448  1.0000
  H   H4468     1.0  0.50809  0.98560  0.67833  1.0000
  H   H4469     1.0  0.53455  0.94369  0.61033  1.0000
  H   H4470     1.0  0.54752  0.98431  0.02858  1.0000
  C   C2512     1.0  0.55659  0.99379  0.59576  1.0000
  C   C2513     1.0  0.55490  0.98809  0.57117  1.0000
  H   H4471     1.0  0.51502  0.86296  0.43232  1.0000
  H   H4472     1.0  0.50479  0.90258  0.21979  1.0000
  H   H4473     1.0  0.55824  0.99055  0.62314  1.0000
  H   H4474     1.0  0.55516  0.98045  0.58012  1.0000
  C   C2514     1.0  0.53490  0.96331  0.33409  1.0000
  C   C2515     1.0  0.51253  0.98314  0.41178  1.0000
  H   H4475     1.0  0.53212  0.97408  0.18495  1.0000
  S   S566      1.0  0.50900  0.94361  0.83315  1.0000
  C   C2516     1.0  0.52971  0.95169  0.30070  1.0000
  C   C2517     1.0  0.53714  0.95746  0.30900  1.0000
  H   H4476     1.0  0.51195  0.89490  0.20030  1.0000
  C   C2518     1.0  0.55504  0.99528  0.96869  1.0000
  H   H4477     1.0  0.53162  0.94736  0.28098  1.0000
  H   H4478     1.0  0.54472  0.95744  0.29568  1.0000
  H   H4479     1.0  0.52434  0.98767  0.68091  1.0000
  H   H4480     1.0  0.58236  0.99007  0.57797  1.0000
  H   H4481     1.0  0.50639  0.87019  0.07934  1.0000
  C   C2519     1.0  0.51246  0.95121  0.72244  1.0000
  C   C2520     1.0  0.51167  0.97357  0.26013  1.0000
  H   H4482     1.0  0.52579  0.94308  0.76449  1.0000
  C   C2521     1.0  0.50600  0.89866  0.19707  1.0000
  H   H4483     1.0  0.50197  0.88500  0.09411  1.0000
  S   S567      1.0  0.51018  0.94535  0.30514  1.0000
  H   H4484     1.0  0.54575  0.99657  0.02459  1.0000
  C   C2522     1.0  0.55976  0.99759  0.88387  1.0000
  C   C2523     1.0  0.51038  0.99115  0.42392  1.0000
  H   H4485     1.0  0.50964  0.93858  0.04664  1.0000
  H   H4486     1.0  0.50908  0.96528  0.72199  1.0000
  H   H4487     1.0  0.50579  0.97361  0.24577  1.0000
  C   C2524     1.0  0.50555  0.93100  0.06151  1.0000
  H   H4488     1.0  0.53473  0.99338  0.63646  1.0000
  H   H4489     1.0  0.54705  0.98383  0.26180  1.0000
  H   H4490     1.0  0.53300  0.99851  0.57156  1.0000
  H   H4491     1.0  0.56063  0.99111  0.96077  1.0000
  H   H4492     1.0  0.53020  0.95412  0.61998  1.0000
  C   C2525     1.0  0.51988  0.95169  0.31738  1.0000
  C   C2526     1.0  0.54304  0.98942  0.89315  1.0000
  C   C2527     1.0  0.52636  0.99325  0.51603  1.0000
  H   H4493     1.0  0.52617  0.94855  0.58635  1.0000
  H   H4494     1.0  0.52938  0.95990  0.15806  1.0000
  H   H4495     1.0  0.50641  0.93593  0.39806  1.0000
  H   H4496     1.0  0.53004  0.92359  0.80597  1.0000
  H   H4497     1.0  0.52684  0.96515  0.23413  1.0000
  H   H4498     1.0  0.50540  0.99885  0.60168  1.0000
  C   C2528     1.0  0.50467  0.95458  0.93728  1.0000
  H   H4499     1.0  0.53232  0.98027  0.60895  1.0000
  H   H4500     1.0  0.52308  0.98814  0.50248  1.0000
  H   H4501     1.0  0.52966  0.98424  0.94724  1.0000
  C   C2529     1.0  0.52088  0.98664  0.19405  1.0000
  C   C2530     1.0  0.56323  0.00124  0.83668  1.0000
  H   H4502     1.0  0.50166  0.93990  0.71973  1.0000
  H   H4503     1.0  0.52579  0.00076  0.50071  1.0000
  H   H4504     1.0  0.52788  0.98931  0.16822  1.0000
  H   H4505     1.0  0.51116  0.96567  0.27489  1.0000
  Fe  Fe283     1.0  0.50312  0.92833  0.20136  1.0000
  S   S568      1.0  0.50718  0.93397  0.13220  1.0000
  H   H4506     1.0  0.52912  0.97231  0.90796  1.0000
  C   C2531     1.0  0.50278  0.92540  0.03808  1.0000
  H   H4507     1.0  0.51441  0.00158  0.14988  1.0000
  H   H4508     1.0  0.50235  0.96825  0.90580  1.0000
  H   H4509     1.0  0.50185  0.87132  0.22648  1.0000
  H   H4510     1.0  0.51316  0.94355  0.65333  1.0000
  H   H4511     1.0  0.52064  0.97406  0.64805  1.0000
  H   H4512     1.0  0.52162  0.98244  0.57527  1.0000
  H   H4513     1.0  0.52410  0.94416  0.87400  1.0000
  S   S569      1.0  0.51277  0.92447  0.24029  1.0000
  C   C2532     1.0  0.51279  0.86244  0.46492  1.0000
  H   H4514     1.0  0.54048  0.97814  0.66234  1.0000
  H   H4515     1.0  0.57595  0.99491  0.82843  1.0000
  C   C2533     1.0  0.54607  0.99043  0.24069  1.0000
  H   H4516     1.0  0.51159  0.91896  0.71814  1.0000
  N   N140      1.0  0.52079  0.99448  0.62727  1.0000
  H   H4517     1.0  0.54540  0.98237  0.89922  1.0000
  C   C2534     1.0  0.52882  0.93103  0.80417  1.0000
  C   C2535     1.0  0.50062  0.99143  0.43975  1.0000
  H   H4518     1.0  0.52285  0.99136  0.76218  1.0000
  C   C2536     1.0  0.52516  0.97076  0.21072  1.0000
  C   C2537     1.0  0.52814  0.94702  0.61470  1.0000
  H   H4519     1.0  0.51714  0.97017  0.16723  1.0000
  H   H4520     1.0  0.50955  0.98562  0.28623  1.0000
  H   H4521     1.0  0.56147  0.99029  0.89377  1.0000
  C   C2538     1.0  0.52539  0.95129  0.85174  1.0000
  C   C2539     1.0  0.51697  0.92927  0.76482  1.0000
  C   C2540     1.0  0.58782  0.99572  0.55045  1.0000
  C   C2541     1.0  0.51389  0.00169  0.75437  1.0000
  H   H4522     1.0  0.52006  0.98293  0.39895  1.0000
  H   H4523     1.0  0.52244  0.99843  0.22170  1.0000
  H   H4524     1.0  0.50405  0.92642  0.70053  1.0000
  S   S570      1.0  0.50527  0.91438  0.90372  1.0000
  H   H4525     1.0  0.57676  0.00158  0.53016  1.0000
  H   H4526     1.0  0.51503  0.85614  0.48236  1.0000
  H   H4527     1.0  0.52674  0.93197  0.68798  1.0000
  C   C2542     1.0  0.52505  0.96318  0.35126  1.0000
  C   C2543     1.0  0.52789  0.97899  0.64094  1.0000
  H   H4528     1.0  0.50058  0.87012  0.15150  1.0000
  H   H4529     1.0  0.54028  0.99531  0.96644  1.0000
  H   H4530     1.0  0.51006  0.95740  0.35656  1.0000
  C   C2544     1.0  0.52099  0.96219  0.79972  1.0000
  H   H4531     1.0  0.54287  0.98264  0.20159  1.0000
  H   H4532     1.0  0.51848  0.92190  0.76658  1.0000
  H   H4533     1.0  0.58974  0.99230  0.52623  1.0000
  C   C2545     1.0  0.50866  0.97757  0.29621  1.0000
  H   H4534     1.0  0.59447  0.99813  0.55811  1.0000
  H   H4535     1.0  0.52644  0.98700  0.26356  1.0000
  H   H4536     1.0  0.51621  0.96350  0.78172  1.0000
  C   C2546     1.0  0.51790  0.99556  0.20527  1.0000
  H   H4537     1.0  0.52263  0.95136  0.20856  1.0000
  C   C2547     1.0  0.51912  0.95289  0.82858  1.0000
  C   C2548     1.0  0.52654  0.97916  0.90029  1.0000
  C   C2549     1.0  0.51762  0.95740  0.34304  1.0000
  H   H4538     1.0  0.50660  0.96926  0.40611  1.0000
  H   H4539     1.0  0.50062  0.94683  0.95470  1.0000
  H   H4540     1.0  0.51700  0.95313  0.16934  1.0000
  C   C2550     1.0  0.52205  0.95691  0.18180  1.0000
  C   C2551     1.0  0.54671  0.99288  0.95099  1.0000
  H   H4541     1.0  0.55340  0.99473  0.21896  1.0000
  H   H4542     1.0  0.52276  0.93045  0.83159  1.0000
  C   C2552     1.0  0.52704  0.98895  0.64751  1.0000
  N   N141      1.0  0.54909  0.99679  0.90520  1.0000
  H   H4543     1.0  0.52877  0.97174  0.70083  1.0000
  H   H4544     1.0  0.53285  0.93609  0.73944  1.0000
  N   N142      1.0  0.51341  0.93298  0.72904  1.0000
  C   C2553     1.0  0.53309  0.97357  0.66824  1.0000
  C   C2554     1.0  0.52092  0.98997  0.56166  1.0000
  H   H4545     1.0  0.51791  0.95236  0.73777  1.0000
  C   C2555     1.0  0.52202  0.93728  0.69031  1.0000
  H   H4546     1.0  0.51671  0.86930  0.46747  1.0000
  H   H4547     1.0  0.50477  0.92866  0.00547  1.0000
  H   H4548     1.0  0.52791  0.98188  0.86695  1.0000
  H   H4549     1.0  0.53826  0.95764  0.86360  1.0000
  H   H4550     1.0  0.53419  0.99315  0.51028  1.0000
  C   C2556     1.0  0.50710  0.92416  0.72576  1.0000
  C   C2557     1.0  0.52646  0.93559  0.76550  1.0000
  H   H4551     1.0  0.52957  0.97558  0.27077  1.0000
  C   C2558     1.0  0.51806  0.96513  0.19436  1.0000
  C   C2559     1.0  0.53942  0.98739  0.21762  1.0000
  C   C2560     1.0  0.50173  0.86124  0.48184  1.0000
  C   C2561     1.0  0.50492  0.97541  0.41575  1.0000
  H   H4552     1.0  0.51625  0.95418  0.68916  1.0000
  H   H4553     1.0  0.51852  0.97741  0.91593  1.0000
  C   C2562     1.0  0.50259  0.99383  0.63356  1.0000
  H   H4554     1.0  0.50838  0.90418  0.16620  1.0000
  H   H4555     1.0  0.52889  0.99362  0.90474  1.0000
  H   H4556     1.0  0.51736  0.93328  0.64260  1.0000
  H   H4557     1.0  0.50503  0.88386  0.16844  1.0000
  C   C2563     1.0  0.50123  0.92879  0.40477  1.0000
  H   H4558     1.0  0.51113  0.92804  0.79404  1.0000
  C   C2564     1.0  0.50327  0.92680  0.10383  1.0000
  C   C2565     1.0  0.51942  0.94002  0.65037  1.0000
  Fe  Fe284     1.0  0.50086  0.92849  0.87996  1.0000
  S   S571      1.0  0.51983  0.00091  0.41875  1.0000
  C   C2566     1.0  0.50716  0.94018  0.73590  1.0000
  C   C2567     1.0  0.50518  0.95741  0.73254  1.0000
  H   H4559     1.0  0.50153  0.95511  0.76590  1.0000
  H   H4560     1.0  0.55726  0.99383  0.02686  1.0000
  H   H4561     1.0  0.50061  0.91495  0.79032  1.0000
  C   C2568     1.0  0.55281  0.00215  0.52347  1.0000
  H   H4562     1.0  0.50269  0.93800  0.76859  1.0000
  H   H4563     1.0  0.50129  0.87682  0.04329  1.0000
  H   H4564     1.0  0.51720  0.00196  0.67187  1.0000
  H   H4565     1.0  0.50013  0.95757  0.86567  1.0000
  C   C2569     1.0  0.57423  0.00220  0.81928  1.0000
  Fe  Fe285     1.0  0.76037  0.29616  0.25625  1.0000
  S   S572      1.0  0.75578  0.30892  0.22239  1.0000
  H   H4566     1.0  0.75670  0.30628  0.77615  1.0000
  Fe  Fe286     1.0  0.77875  0.31032  0.25987  1.0000
  S   S573      1.0  0.77489  0.32364  0.22523  1.0000
  S   S574      1.0  0.79325  0.31241  0.27505  1.0000
  Fe  Fe287     1.0  0.75948  0.31620  0.26564  1.0000
  H   H4567     1.0  0.87890  0.32828  0.78271  1.0000
  Fe  Fe288     1.0  0.77166  0.31480  0.18588  1.0000
  S   S575      1.0  0.77636  0.32151  0.11772  1.0000
  S   S576      1.0  0.76325  0.30320  0.30264  1.0000
  S   S577      1.0  0.77638  0.30178  0.21734  1.0000
  C   C2570     1.0  0.86462  0.32808  0.82145  1.0000
  C   C2571     1.0  0.75342  0.32819  0.96371  1.0000
  H   H4568     1.0  0.76533  0.26705  0.99058  1.0000
  C   C2572     1.0  0.75594  0.26801  0.12021  1.0000
  C   C2573     1.0  0.77947  0.26686  0.73434  1.0000
  H   H4569     1.0  0.75218  0.28747  0.81540  1.0000
  H   H4570     1.0  0.76984  0.31392  0.00110  1.0000
  H   H4571     1.0  0.75799  0.29066  0.11568  1.0000
  H   H4572     1.0  0.86756  0.32874  0.84608  1.0000
  C   C2574     1.0  0.81442  0.32539  0.31315  1.0000
  Fe  Fe289     1.0  0.76931  0.30476  0.87802  1.0000
  S   S578      1.0  0.76609  0.31290  0.92258  1.0000
  S   S579      1.0  0.78378  0.30976  0.82575  1.0000
  H   H4573     1.0  0.85685  0.32785  0.92457  1.0000
  H   H4574     1.0  0.76068  0.27522  0.09816  1.0000
  H   H4575     1.0  0.76306  0.26863  0.92137  1.0000
  H   H4576     1.0  0.81235  0.31431  0.28442  1.0000
  H   H4577     1.0  0.76599  0.25436  0.00348  1.0000
  Fe  Fe290     1.0  0.75864  0.29811  0.96923  1.0000
  S   S580      1.0  0.75917  0.29314  0.03330  1.0000
  S   S581      1.0  0.75518  0.30484  0.86353  1.0000
  S   S582      1.0  0.76302  0.28978  0.92569  1.0000
  H   H4578     1.0  0.78826  0.32768  0.31220  1.0000
  H   H4579     1.0  0.76073  0.27322  0.20349  1.0000
  C   C2575     1.0  0.75344  0.26903  0.16332  1.0000
  H   H4580     1.0  0.83098  0.30653  0.89712  1.0000
  H   H4581     1.0  0.84644  0.31551  0.99084  1.0000
  C   C2576     1.0  0.85469  0.32008  0.92610  1.0000
  C   C2577     1.0  0.87132  0.32356  0.79495  1.0000
  H   H4582     1.0  0.75596  0.28758  0.76408  1.0000
  H   H4583     1.0  0.76065  0.26270  0.12010  1.0000
  H   H4584     1.0  0.83097  0.32395  0.88775  1.0000
  C   C2578     1.0  0.83266  0.31174  0.86606  1.0000
  H   H4585     1.0  0.77661  0.32485  0.03499  1.0000
  H   H4586     1.0  0.77569  0.27514  0.89285  1.0000
  C   C2579     1.0  0.76218  0.32905  0.33235  1.0000
  C   C2580     1.0  0.75063  0.33278  0.93064  1.0000
  H   H4587     1.0  0.76703  0.27981  0.15042  1.0000
  C   C2581     1.0  0.76587  0.30423  0.11693  1.0000
  C   C2582     1.0  0.77255  0.31737  0.05250  1.0000
  C   C2583     1.0  0.81167  0.32989  0.82472  1.0000
  H   H4588     1.0  0.85055  0.30579  0.97350  1.0000
  C   C2584     1.0  0.75476  0.33171  0.31712  1.0000
  H   H4589     1.0  0.82447  0.31568  0.82417  1.0000
  C   C2585     1.0  0.80909  0.31951  0.29665  1.0000
  C   C2586     1.0  0.78228  0.33515  0.44508  1.0000
  C   C2587     1.0  0.79554  0.32700  0.31220  1.0000
  H   H4590     1.0  0.76450  0.32246  0.32986  1.0000
  C   C2588     1.0  0.75133  0.26541  0.06316  1.0000
  C   C2589     1.0  0.75750  0.33380  0.98400  1.0000
  C   C2590     1.0  0.82317  0.31080  0.85554  1.0000
  H   H4591     1.0  0.81748  0.31278  0.87727  1.0000
  C   C2591     1.0  0.76274  0.27251  0.17262  1.0000
  C   C2592     1.0  0.81032  0.33207  0.32981  1.0000
  H   H4592     1.0  0.82167  0.32466  0.31331  1.0000
  C   C2593     1.0  0.85253  0.31372  0.97016  1.0000
  H   H4593     1.0  0.76872  0.28092  0.73934  1.0000
  N   N143      1.0  0.84657  0.32453  0.87004  1.0000
  H   H4594     1.0  0.83696  0.32746  0.83448  1.0000
  H   H4595     1.0  0.83916  0.31867  0.93509  1.0000
  H   H4596     1.0  0.85382  0.31407  0.84835  1.0000
  H   H4597     1.0  0.87143  0.31611  0.81306  1.0000
  C   C2594     1.0  0.77124  0.31385  0.09423  1.0000
  C   C2595     1.0  0.76206  0.29809  0.09785  1.0000
  H   H4598     1.0  0.77492  0.26771  0.83876  1.0000
  Fe  Fe291     1.0  0.75161  0.31203  0.91179  1.0000
  H   H4599     1.0  0.76478  0.26015  0.06204  1.0000
  C   C2596     1.0  0.79984  0.32932  0.15971  1.0000
  C   C2597     1.0  0.79450  0.31737  0.82625  1.0000
  C   C2598     1.0  0.79540  0.31875  0.86214  1.0000
  C   C2599     1.0  0.80393  0.32496  0.86132  1.0000
  H   H4600     1.0  0.77278  0.33337  0.75501  1.0000
  H   H4601     1.0  0.76955  0.32516  0.80615  1.0000
  C   C2600     1.0  0.80228  0.32223  0.78968  1.0000
  H   H4602     1.0  0.78952  0.31504  0.89057  1.0000
  H   H4603     1.0  0.80452  0.32596  0.88930  1.0000
  H   H4604     1.0  0.76478  0.30145  0.14915  1.0000
  H   H4605     1.0  0.80170  0.32119  0.76175  1.0000
  H   H4606     1.0  0.78381  0.32774  0.44978  1.0000
  H   H4607     1.0  0.76228  0.26132  0.86771  1.0000
  C   C2601     1.0  0.76943  0.27686  0.76896  1.0000
  C   C2602     1.0  0.76118  0.25939  0.00926  1.0000
  C   C2603     1.0  0.84569  0.31815  0.91198  1.0000
  C   C2604     1.0  0.81080  0.32849  0.78882  1.0000
  C   C2605     1.0  0.79959  0.32020  0.29613  1.0000
  C   C2606     1.0  0.76868  0.31121  0.03335  1.0000
  H   H4608     1.0  0.76737  0.26714  0.17181  1.0000
  C   C2607     1.0  0.76354  0.30148  0.05598  1.0000
  C   C2608     1.0  0.75801  0.25839  0.05437  1.0000
  H   H4609     1.0  0.81669  0.33221  0.76042  1.0000
  C   C2609     1.0  0.83668  0.32243  0.86430  1.0000
  H   H4610     1.0  0.85914  0.31514  0.97940  1.0000
  H   H4611     1.0  0.85158  0.32302  0.80992  1.0000
  H   H4612     1.0  0.86095  0.31813  0.90725  1.0000
  H   H4613     1.0  0.83796  0.30938  0.84434  1.0000
  H   H4614     1.0  0.79513  0.32764  0.14161  1.0000
  H   H4615     1.0  0.82038  0.30311  0.85727  1.0000
  H   H4616     1.0  0.78602  0.26976  0.74167  1.0000
  C   C2610     1.0  0.85382  0.32200  0.83769  1.0000
  H   H4617     1.0  0.84428  0.31027  0.91406  1.0000
  C   C2611     1.0  0.75851  0.28709  0.79081  1.0000
  H   H4618     1.0  0.77730  0.33527  0.47414  1.0000
  H   H4619     1.0  0.76397  0.33445  0.15385  1.0000
  H   H4620     1.0  0.79651  0.32409  0.19113  1.0000
  H   H4621     1.0  0.77368  0.29619  0.75771  1.0000
  H   H4622     1.0  0.75469  0.25745  0.99983  1.0000
  H   H4623     1.0  0.78904  0.33433  0.89637  1.0000
  H   H4624     1.0  0.75242  0.32030  0.97386  1.0000
  H   H4625     1.0  0.76949  0.31237  0.75131  1.0000
  H   H4626     1.0  0.75186  0.32315  0.09155  1.0000
  S   S583      1.0  0.75047  0.28063  0.27254  1.0000
  H   H4627     1.0  0.77980  0.27163  0.70403  1.0000
  H   H4628     1.0  0.75435  0.32035  0.13898  1.0000
  H   H4629     1.0  0.75156  0.27152  0.75581  1.0000
  H   H4630     1.0  0.78721  0.33402  0.83979  1.0000
  C   C2612     1.0  0.77008  0.26643  0.76695  1.0000
  H   H4631     1.0  0.76812  0.29770  0.80580  1.0000
  C   C2613     1.0  0.80084  0.33283  0.32897  1.0000
  C   C2614     1.0  0.76989  0.26850  0.89887  1.0000
  H   H4632     1.0  0.77451  0.33224  0.85500  1.0000
  H   H4633     1.0  0.75558  0.27303  0.04427  1.0000
  H   H4634     1.0  0.75981  0.33021  0.00912  1.0000
  C   C2615     1.0  0.76488  0.27744  0.83985  1.0000
  H   H4635     1.0  0.76382  0.26310  0.75902  1.0000
  H   H4636     1.0  0.77238  0.33284  0.36262  1.0000
  H   H4637     1.0  0.76994  0.26137  0.79616  1.0000
  H   H4638     1.0  0.77140  0.28360  0.83104  1.0000
  H   H4639     1.0  0.77670  0.28068  0.76859  1.0000
  H   H4640     1.0  0.75909  0.27871  0.86398  1.0000
  N   N144      1.0  0.76138  0.27747  0.80407  1.0000
  C   C2616     1.0  0.76671  0.29657  0.77846  1.0000
  H   H4641     1.0  0.77964  0.25936  0.73286  1.0000
  C   C2617     1.0  0.76799  0.26813  0.85964  1.0000
  C   C2618     1.0  0.75182  0.32567  0.11804  1.0000
  H   H4642     1.0  0.87384  0.33103  0.41504  1.0000
  H   H4643     1.0  0.76315  0.30537  0.72738  1.0000
  C   C2619     1.0  0.76379  0.30568  0.75702  1.0000
  H   H4644     1.0  0.77233  0.26188  0.91211  1.0000
  H   H4645     1.0  0.77794  0.33331  0.96301  1.0000
  H   H4646     1.0  0.78710  0.33320  0.77918  1.0000
  C   C2620     1.0  0.75228  0.26925  0.81804  1.0000
  H   H4647     1.0  0.80719  0.32818  0.14618  1.0000
  H   H4648     1.0  0.75394  0.26194  0.82653  1.0000
  C   C2621     1.0  0.77203  0.33302  0.78682  1.0000
  H   H4649     1.0  0.86882  0.32307  0.76888  1.0000
  C   C2622     1.0  0.76663  0.33492  0.35101  1.0000
  H   H4650     1.0  0.86569  0.33190  0.46072  1.0000
  H   H4651     1.0  0.75411  0.25061  0.07180  1.0000
  H   H4652     1.0  0.84059  0.33449  0.92656  1.0000
  C   C2623     1.0  0.84937  0.33535  0.86473  1.0000
  H   H4653     1.0  0.86510  0.33560  0.80209  1.0000
  S   S584      1.0  0.78405  0.39381  0.25357  1.0000
  H   H4654     1.0  0.96148  0.47965  0.91502  1.0000
  H   H4655     1.0  0.91188  0.43174  0.12543  1.0000
  H   H4656     1.0  0.89304  0.44018  0.09689  1.0000
  H   H4657     1.0  0.86795  0.42836  0.94218  1.0000
  H   H4658     1.0  0.89895  0.42825  0.86721  1.0000
  C   C2624     1.0  0.75859  0.33593  0.10336  1.0000
  S   S585      1.0  0.79710  0.39269  0.87126  1.0000
  H   H4659     1.0  0.91739  0.46823  0.16852  1.0000
  H   H4660     1.0  0.88589  0.36021  0.09046  1.0000
  H   H4661     1.0  0.92292  0.44892  0.04872  1.0000
  H   H4662     1.0  0.89480  0.45837  0.09792  1.0000
  H   H4663     1.0  0.93917  0.45655  0.04568  1.0000
  H   H4664     1.0  0.86296  0.42085  0.91642  1.0000
  Fe  Fe292     1.0  0.93027  0.41725  0.19948  1.0000
  S   S586      1.0  0.92660  0.40885  0.26531  1.0000
  S   S587      1.0  0.92865  0.43275  0.17903  1.0000
  Fe  Fe293     1.0  0.93533  0.40019  0.17175  1.0000
  S   S588      1.0  0.93231  0.39047  0.23655  1.0000
  S   S589      1.0  0.94056  0.39677  0.11205  1.0000
  Fe  Fe294     1.0  0.91877  0.39634  0.25092  1.0000
  H   H4665     1.0  0.88535  0.42986  0.77297  1.0000
  Fe  Fe295     1.0  0.94045  0.40395  0.24579  1.0000
  H   H4666     1.0  0.94129  0.44259  0.79013  1.0000
  S   S590      1.0  0.92150  0.40533  0.18613  1.0000
  S   S591      1.0  0.94450  0.41307  0.17992  1.0000
  Fe  Fe296     1.0  0.94153  0.46938  0.27728  1.0000
  S   S592      1.0  0.93577  0.47088  0.33853  1.0000
  S   S593      1.0  0.94834  0.45683  0.27091  1.0000
  Fe  Fe297     1.0  0.93511  0.48674  0.23638  1.0000
  S   S594      1.0  0.92866  0.48984  0.29540  1.0000
  S   S595      1.0  0.93565  0.49485  0.17185  1.0000
  Fe  Fe298     1.0  0.94253  0.48713  0.30897  1.0000
  H   H4667     1.0  0.79043  0.41253  0.76600  1.0000
  Fe  Fe299     1.0  0.92241  0.47340  0.32184  1.0000
  S   S596      1.0  0.90841  0.46372  0.37205  1.0000
  S   S597      1.0  0.94938  0.48528  0.24811  1.0000
  S   S598      1.0  0.92778  0.47069  0.26253  1.0000
  Fe  Fe300     1.0  0.83404  0.42334  0.43009  1.0000
  S   S599      1.0  0.84883  0.42655  0.38301  1.0000
  S   S600      1.0  0.81925  0.42100  0.41806  1.0000
  Fe  Fe301     1.0  0.84332  0.42406  0.49745  1.0000
  S   S601      1.0  0.85865  0.42688  0.45579  1.0000
  S   S602      1.0  0.84044  0.42052  0.56554  1.0000
  Fe  Fe302     1.0  0.85421  0.43757  0.41058  1.0000
  S   S603      1.0  0.86491  0.45200  0.36777  1.0000
  Fe  Fe303     1.0  0.85228  0.41579  0.43146  1.0000
  S   S604      1.0  0.86080  0.40509  0.41542  1.0000
  S   S605      1.0  0.83905  0.43553  0.45388  1.0000
  S   S606      1.0  0.83728  0.41179  0.47697  1.0000
  Fe  Fe304     1.0  0.92291  0.47726  0.99039  1.0000
  S   S607      1.0  0.92098  0.48558  0.93139  1.0000
  S   S608      1.0  0.91703  0.48045  0.05010  1.0000
  Fe  Fe305     1.0  0.93110  0.46266  0.95311  1.0000
  S   S609      1.0  0.93016  0.46988  0.89151  1.0000
  S   S610      1.0  0.93564  0.44843  0.96855  1.0000
  Fe  Fe306     1.0  0.93613  0.48389  0.90200  1.0000
  C   C2625     1.0  0.96063  0.48583  0.03645  1.0000
  Fe  Fe307     1.0  0.91513  0.47085  0.92536  1.0000
  S   S611      1.0  0.90018  0.46569  0.91730  1.0000
  S   S612      1.0  0.93828  0.47645  0.96120  1.0000
  S   S613      1.0  0.91593  0.46284  0.98670  1.0000
  Fe  Fe308     1.0  0.91838  0.38595  0.94871  1.0000
  S   S614      1.0  0.92233  0.38208  0.89044  1.0000
  S   S615      1.0  0.91879  0.37713  0.01068  1.0000
  Fe  Fe309     1.0  0.91527  0.40538  0.90718  1.0000
  S   S616      1.0  0.91943  0.40352  0.84562  1.0000
  S   S617      1.0  0.90948  0.41811  0.91915  1.0000
  Fe  Fe310     1.0  0.90969  0.38813  0.87688  1.0000
  S   S618      1.0  0.89913  0.38488  0.84092  1.0000
  Fe  Fe311     1.0  0.93160  0.39767  0.86289  1.0000
  H   H4668     1.0  0.93434  0.45900  0.09273  1.0000
  S   S619      1.0  0.90498  0.39051  0.93811  1.0000
  S   S620      1.0  0.92830  0.40102  0.92130  1.0000
  H   H4669     1.0  0.96899  0.48574  0.81721  1.0000
  Fe  Fe312     1.0  0.84637  0.43109  0.81463  1.0000
  S   S621      1.0  0.85528  0.44639  0.77399  1.0000
  S   S622      1.0  0.83123  0.42713  0.86223  1.0000
  Fe  Fe313     1.0  0.86190  0.42164  0.77819  1.0000
  S   S623      1.0  0.87172  0.43590  0.73413  1.0000
  S   S624      1.0  0.86609  0.40724  0.78501  1.0000
  Fe  Fe314     1.0  0.86846  0.44158  0.78774  1.0000
  S   S625      1.0  0.88275  0.44950  0.79396  1.0000
  Fe  Fe315     1.0  0.85797  0.43944  0.72411  1.0000
  S   S626      1.0  0.85668  0.44638  0.66140  1.0000
  S   S627      1.0  0.85922  0.42689  0.83202  1.0000
  S   S628      1.0  0.84840  0.42464  0.76423  1.0000
  H   H4670     1.0  0.90356  0.44209  0.00650  1.0000
  H   H4671     1.0  0.89304  0.41076  0.20351  1.0000
  H   H4672     1.0  0.81437  0.36772  0.28305  1.0000
  C   C2626     1.0  0.94326  0.43454  0.42102  1.0000
  C   C2627     1.0  0.87888  0.42424  0.89993  1.0000
  H   H4673     1.0  0.87442  0.40363  0.89976  1.0000
  C   C2628     1.0  0.86229  0.39153  0.75887  1.0000
  C   C2629     1.0  0.86174  0.40124  0.75474  1.0000
  C   C2630     1.0  0.85708  0.40587  0.72860  1.0000
  C   C2631     1.0  0.85222  0.40056  0.70943  1.0000
  C   C2632     1.0  0.89884  0.42765  0.83724  1.0000
  H   H4674     1.0  0.86614  0.38801  0.77812  1.0000
  H   H4675     1.0  0.85717  0.41351  0.72330  1.0000
  C   C2633     1.0  0.91713  0.43520  0.81100  1.0000
  H   H4676     1.0  0.82261  0.36296  0.30855  1.0000
  H   H4677     1.0  0.93147  0.46506  0.04787  1.0000
  H   H4678     1.0  0.88756  0.45883  0.18580  1.0000
  H   H4679     1.0  0.89972  0.44769  0.17416  1.0000
  H   H4680     1.0  0.84832  0.40407  0.69050  1.0000
  C   C2634     1.0  0.90119  0.44251  0.08567  1.0000
  H   H4681     1.0  0.89349  0.43064  0.70267  1.0000
  H   H4682     1.0  0.88011  0.45415  0.15889  1.0000
  H   H4683     1.0  0.79500  0.37816  0.09724  1.0000
  C   C2635     1.0  0.78500  0.33896  0.94836  1.0000
  H   H4684     1.0  0.80382  0.34468  0.12752  1.0000
  H   H4685     1.0  0.91268  0.43620  0.05437  1.0000
  C   C2636     1.0  0.86907  0.42694  0.91274  1.0000
  H   H4686     1.0  0.75462  0.37492  0.25366  1.0000
  H   H4687     1.0  0.84870  0.35467  0.85966  1.0000
  H   H4688     1.0  0.90290  0.44960  0.06089  1.0000
  H   H4689     1.0  0.84201  0.37656  0.63236  1.0000
  C   C2637     1.0  0.89557  0.46071  0.88346  1.0000
  C   C2638     1.0  0.88534  0.45779  0.89217  1.0000
  C   C2639     1.0  0.88128  0.45416  0.86586  1.0000
  C   C2640     1.0  0.88739  0.45345  0.83001  1.0000
  C   C2641     1.0  0.89762  0.45623  0.82156  1.0000
  C   C2642     1.0  0.90168  0.45978  0.84807  1.0000
  H   H4690     1.0  0.88051  0.45849  0.91924  1.0000
  H   H4691     1.0  0.87342  0.45219  0.87280  1.0000
  H   H4692     1.0  0.90246  0.45577  0.79396  1.0000
  H   H4693     1.0  0.90954  0.46197  0.84071  1.0000
  C   C2643     1.0  0.92835  0.43988  0.95547  1.0000
  C   C2644     1.0  0.92989  0.43043  0.96046  1.0000
  C   C2645     1.0  0.92414  0.42365  0.94939  1.0000
  C   C2646     1.0  0.91683  0.42633  0.93342  1.0000
  C   C2647     1.0  0.91517  0.43571  0.92931  1.0000
  C   C2648     1.0  0.92094  0.44248  0.94013  1.0000
  H   H4694     1.0  0.93555  0.42839  0.97266  1.0000
  H   H4695     1.0  0.92528  0.41636  0.95361  1.0000
  H   H4696     1.0  0.90947  0.43782  0.91735  1.0000
  H   H4697     1.0  0.91959  0.44969  0.93652  1.0000
  C   C2649     1.0  0.84657  0.42801  0.58727  1.0000
  C   C2650     1.0  0.84780  0.43821  0.57456  1.0000
  C   C2651     1.0  0.85095  0.44374  0.59743  1.0000
  C   C2652     1.0  0.85316  0.43920  0.63249  1.0000
  C   C2653     1.0  0.85228  0.42905  0.64421  1.0000
  C   C2654     1.0  0.84894  0.42349  0.62185  1.0000
  H   H4698     1.0  0.84582  0.44174  0.54845  1.0000
  H   H4699     1.0  0.85130  0.45152  0.58879  1.0000
  H   H4700     1.0  0.85399  0.42545  0.67095  1.0000
  H   H4701     1.0  0.84802  0.41562  0.63177  1.0000
  H   H4702     1.0  0.99009  0.49026  0.37717  1.0000
  C   C2655     1.0  0.82995  0.35187  0.23300  1.0000
  C   C2656     1.0  0.89732  0.42645  0.17018  1.0000
  C   C2657     1.0  0.94755  0.43622  0.74406  1.0000
  H   H4703     1.0  0.96645  0.48894  0.30345  1.0000
  N   N145      1.0  0.90505  0.44405  0.11910  1.0000
  C   C2658     1.0  0.79190  0.34292  0.43104  1.0000
  H   H4704     1.0  0.91049  0.41974  0.83429  1.0000
  H   H4705     1.0  0.88125  0.42997  0.83611  1.0000
  H   H4706     1.0  0.98689  0.50159  0.79189  1.0000
  H   H4707     1.0  0.86234  0.37002  0.86355  1.0000
  C   C2659     1.0  0.98774  0.46774  0.64600  1.0000
  H   H4708     1.0  0.80060  0.35836  0.14733  1.0000
  S   S629      1.0  0.80232  0.39490  0.32181  1.0000
  H   H4709     1.0  0.88238  0.39483  0.94683  1.0000
  H   H4710     1.0  0.93584  0.44712  0.46127  1.0000
  C   C2660     1.0  0.90505  0.37530  0.38602  1.0000
  H   H4711     1.0  0.88708  0.36584  0.38147  1.0000
  H   H4712     1.0  0.99000  0.48176  0.75160  1.0000
  C   C2661     1.0  0.92998  0.48906  0.14330  1.0000
  C   C2662     1.0  0.92087  0.49051  0.14092  1.0000
  C   C2663     1.0  0.91701  0.48762  0.11290  1.0000
  C   C2664     1.0  0.92228  0.48345  0.08588  1.0000
  C   C2665     1.0  0.93136  0.48185  0.08839  1.0000
  C   C2666     1.0  0.93519  0.48464  0.11701  1.0000
  H   H4713     1.0  0.83917  0.44169  0.73512  1.0000
  H   H4714     1.0  0.75723  0.35527  0.24949  1.0000
  H   H4715     1.0  0.93550  0.47865  0.06790  1.0000
  H   H4716     1.0  0.94234  0.48369  0.11785  1.0000
  C   C2667     1.0  0.89656  0.46041  0.36860  1.0000
  C   C2668     1.0  0.88961  0.45256  0.40042  1.0000
  C   C2669     1.0  0.87994  0.44990  0.40039  1.0000
  C   C2670     1.0  0.87709  0.45506  0.36843  1.0000
  C   C2671     1.0  0.88407  0.46290  0.33641  1.0000
  C   C2672     1.0  0.89379  0.46554  0.33636  1.0000
  H   H4717     1.0  0.89171  0.44852  0.42537  1.0000
  H   H4718     1.0  0.87468  0.44392  0.42532  1.0000
  H   H4719     1.0  0.88194  0.46698  0.31164  1.0000
  H   H4720     1.0  0.89906  0.47166  0.31184  1.0000
  H   H4721     1.0  0.89369  0.42791  0.19859  1.0000
  C   C2673     1.0  0.90670  0.43478  0.14453  1.0000
  C   C2674     1.0  0.96025  0.43711  0.65993  1.0000
  C   C2675     1.0  0.91445  0.45203  0.10204  1.0000
  H   H4722     1.0  0.92974  0.42408  0.39477  1.0000
  C   C2676     1.0  0.93293  0.39131  0.08875  1.0000
  C   C2677     1.0  0.93088  0.38112  0.09641  1.0000
  C   C2678     1.0  0.92635  0.37688  0.07301  1.0000
  C   C2679     1.0  0.92406  0.38277  0.04066  1.0000
  C   C2680     1.0  0.92611  0.39296  0.03281  1.0000
  C   C2681     1.0  0.93058  0.39719  0.05652  1.0000
  H   H4723     1.0  0.93307  0.37650  0.11976  1.0000
  H   H4724     1.0  0.92487  0.36900  0.07927  1.0000
  H   H4725     1.0  0.92438  0.39760  0.00813  1.0000
  C   C2682     1.0  0.84914  0.38187  0.86712  1.0000
  S   S630      1.0  0.86917  0.35196  0.32804  1.0000
  H   H4726     1.0  0.88613  0.46703  0.14161  1.0000
  H   H4727     1.0  0.82805  0.44277  0.56903  1.0000
  H   H4728     1.0  0.87703  0.37727  0.76429  1.0000
  H   H4729     1.0  0.83678  0.40233  0.95854  1.0000
  C   C2683     1.0  0.93478  0.43969  0.20194  1.0000
  C   C2684     1.0  0.93985  0.43539  0.22704  1.0000
  C   C2685     1.0  0.94435  0.44083  0.24683  1.0000
  C   C2686     1.0  0.94367  0.45054  0.24208  1.0000
  C   C2687     1.0  0.93906  0.45500  0.21523  1.0000
  C   C2688     1.0  0.93464  0.44959  0.19510  1.0000
  H   H4730     1.0  0.94035  0.42788  0.23128  1.0000
  H   H4731     1.0  0.94821  0.43745  0.26636  1.0000
  H   H4732     1.0  0.93904  0.46267  0.20946  1.0000
  H   H4733     1.0  0.93113  0.45308  0.17427  1.0000
  C   C2689     1.0  0.80644  0.40212  0.87053  1.0000
  C   C2690     1.0  0.80508  0.40703  0.89930  1.0000
  C   C2691     1.0  0.81273  0.41466  0.89658  1.0000
  C   C2692     1.0  0.82179  0.41739  0.86531  1.0000
  C   C2693     1.0  0.82312  0.41235  0.83703  1.0000
  C   C2694     1.0  0.81549  0.40481  0.83954  1.0000
  H   H4734     1.0  0.79812  0.40503  0.92328  1.0000
  H   H4735     1.0  0.81162  0.41851  0.91860  1.0000
  H   H4736     1.0  0.82997  0.41426  0.81296  1.0000
  H   H4737     1.0  0.81656  0.40114  0.81697  1.0000
  H   H4738     1.0  0.97710  0.47752  0.77536  1.0000
  H   H4739     1.0  0.96195  0.44121  0.39339  1.0000
  H   H4740     1.0  0.83539  0.37157  0.60513  1.0000
  H   H4741     1.0  0.86821  0.37533  0.25522  1.0000
  Fe  Fe316     1.0  0.83584  0.34715  0.77253  1.0000
  C   C2695     1.0  0.80639  0.40168  0.35159  1.0000
  C   C2696     1.0  0.80117  0.40781  0.36770  1.0000
  C   C2697     1.0  0.80512  0.41354  0.38842  1.0000
  C   C2698     1.0  0.81432  0.41322  0.39356  1.0000
  C   C2699     1.0  0.81943  0.40695  0.37819  1.0000
  C   C2700     1.0  0.81548  0.40122  0.35754  1.0000
  H   H4742     1.0  0.79417  0.40829  0.36354  1.0000
  H   H4743     1.0  0.80107  0.41835  0.40018  1.0000
  H   H4744     1.0  0.82645  0.40658  0.38215  1.0000
  H   H4745     1.0  0.89033  0.44208  0.15898  1.0000
  H   H4746     1.0  0.92532  0.44306  0.09506  1.0000
  C   C2701     1.0  0.89758  0.44744  0.14700  1.0000
  H   H4747     1.0  0.86618  0.39716  0.53444  1.0000
  H   H4748     1.0  0.93357  0.40534  0.70422  1.0000
  H   H4749     1.0  0.90178  0.42729  0.08838  1.0000
  C   C2702     1.0  0.93272  0.45811  0.06533  1.0000
  C   C2703     1.0  0.92372  0.44972  0.07734  1.0000
  C   C2704     1.0  0.89587  0.45767  0.12776  1.0000
  H   H4750     1.0  0.86848  0.39453  0.36231  1.0000
  N   N146      1.0  0.78931  0.41263  0.11466  1.0000
  C   C2705     1.0  0.77826  0.40969  0.13172  1.0000
  C   C2706     1.0  0.79279  0.40945  0.07767  1.0000
  C   C2707     1.0  0.79319  0.40725  0.14693  1.0000
  C   C2708     1.0  0.79325  0.42351  0.10511  1.0000
  C   C2709     1.0  0.78994  0.43055  0.07369  1.0000
  C   C2710     1.0  0.77351  0.41186  0.17136  1.0000
  C   C2711     1.0  0.80425  0.40728  0.13282  1.0000
  C   C2712     1.0  0.78649  0.41005  0.04895  1.0000
  C   C2713     1.0  0.79163  0.40796  0.01029  1.0000
  C   C2714     1.0  0.79297  0.44118  0.07260  1.0000
  C   C2715     1.0  0.80773  0.40336  0.16908  1.0000
  H   H4751     1.0  0.77570  0.40168  0.13798  1.0000
  H   H4752     1.0  0.77487  0.41318  0.10932  1.0000
  H   H4753     1.0  0.80046  0.41361  0.05920  1.0000
  H   H4754     1.0  0.79298  0.40154  0.08738  1.0000
  H   H4755     1.0  0.78907  0.39939  0.16070  1.0000
  H   H4756     1.0  0.79199  0.41037  0.17234  1.0000
  H   H4757     1.0  0.79147  0.42549  0.13350  1.0000
  H   H4758     1.0  0.80137  0.42549  0.09294  1.0000
  H   H4759     1.0  0.78189  0.42870  0.08063  1.0000
  H   H4760     1.0  0.79359  0.43034  0.04280  1.0000
  H   H4761     1.0  0.77597  0.40802  0.19650  1.0000
  H   H4762     1.0  0.77529  0.41987  0.16651  1.0000
  H   H4763     1.0  0.80894  0.41475  0.11503  1.0000
  H   H4764     1.0  0.80559  0.40249  0.11359  1.0000
  H   H4765     1.0  0.77943  0.40446  0.06447  1.0000
  H   H4766     1.0  0.78475  0.41727  0.03981  1.0000
  H   H4767     1.0  0.79334  0.40064  0.01789  1.0000
  H   H4768     1.0  0.78675  0.40796  0.99139  1.0000
  H   H4769     1.0  0.79852  0.41370  0.99218  1.0000
  H   H4770     1.0  0.80105  0.44354  0.06497  1.0000
  H   H4771     1.0  0.79076  0.44611  0.04902  1.0000
  H   H4772     1.0  0.78932  0.44197  0.10244  1.0000
  C   C2716     1.0  0.89366  0.37961  0.29757  1.0000
  H   H4773     1.0  0.81559  0.40332  0.15810  1.0000
  H   H4774     1.0  0.94952  0.44354  0.72045  1.0000
  N   N147      1.0  0.90349  0.44177  0.29235  1.0000
  C   C2717     1.0  0.89377  0.43805  0.32626  1.0000
  C   C2718     1.0  0.91163  0.44534  0.30755  1.0000
  C   C2719     1.0  0.90264  0.45054  0.26079  1.0000
  C   C2720     1.0  0.90595  0.43420  0.27237  1.0000
  C   C2721     1.0  0.90586  0.42410  0.30088  1.0000
  C   C2722     1.0  0.88489  0.43351  0.31550  1.0000
  C   C2723     1.0  0.91188  0.45550  0.22271  1.0000
  C   C2724     1.0  0.91123  0.43949  0.35096  1.0000
  C   C2725     1.0  0.92073  0.44289  0.35886  1.0000
  C   C2726     1.0  0.90485  0.41617  0.28094  1.0000
  C   C2727     1.0  0.87584  0.42892  0.35324  1.0000
  C   C2728     1.0  0.91104  0.46533  0.19696  1.0000
  H   H4775     1.0  0.89191  0.44412  0.33774  1.0000
  H   H4776     1.0  0.89411  0.43240  0.35306  1.0000
  H   H4777     1.0  0.91891  0.44571  0.28631  1.0000
  H   H4778     1.0  0.91182  0.45299  0.30801  1.0000
  H   H4779     1.0  0.90069  0.45624  0.27483  1.0000
  H   H4780     1.0  0.89662  0.44849  0.24904  1.0000
  H   H4781     1.0  0.90103  0.43308  0.25434  1.0000
  H   H4782     1.0  0.91343  0.43690  0.24949  1.0000
  H   H4783     1.0  0.89976  0.42152  0.32997  1.0000
  H   H4784     1.0  0.91291  0.42456  0.30741  1.0000
  H   H4785     1.0  0.88295  0.43919  0.29360  1.0000
  H   H4786     1.0  0.88639  0.42759  0.30253  1.0000
  H   H4787     1.0  0.91287  0.45070  0.20342  1.0000
  H   H4788     1.0  0.91858  0.45695  0.23099  1.0000
  H   H4789     1.0  0.90518  0.44074  0.37392  1.0000
  H   H4790     1.0  0.91002  0.43150  0.35612  1.0000
  H   H4791     1.0  0.92713  0.44206  0.33622  1.0000
  H   H4792     1.0  0.92187  0.45073  0.35714  1.0000
  H   H4793     1.0  0.92032  0.43843  0.38971  1.0000
  H   H4794     1.0  0.91086  0.41824  0.25164  1.0000
  H   H4795     1.0  0.90526  0.40915  0.30145  1.0000
  H   H4796     1.0  0.89767  0.41500  0.27568  1.0000
  H   H4797     1.0  0.87356  0.43460  0.36642  1.0000
  H   H4798     1.0  0.86970  0.42546  0.34497  1.0000
  H   H4799     1.0  0.87730  0.42314  0.37659  1.0000
  H   H4800     1.0  0.91112  0.47075  0.21358  1.0000
  H   H4801     1.0  0.90423  0.46451  0.18887  1.0000
  C   C2729     1.0  0.96199  0.44596  0.33091  1.0000
  C   C2730     1.0  0.83685  0.38956  0.84635  1.0000
  H   H4802     1.0  0.98702  0.46394  0.74713  1.0000
  H   H4803     1.0  0.85895  0.41452  0.55479  1.0000
  H   H4804     1.0  0.91694  0.43588  0.84111  1.0000
  C   C2731     1.0  0.88099  0.42281  0.85759  1.0000
  C   C2732     1.0  0.83402  0.38217  0.82490  1.0000
  H   H4805     1.0  0.92526  0.41835  0.04621  1.0000
  H   H4806     1.0  0.89152  0.41165  0.90068  1.0000
  C   C2733     1.0  0.90463  0.43481  0.06603  1.0000
  C   C2734     1.0  0.95825  0.41089  0.46337  1.0000
  C   C2735     1.0  0.82891  0.38641  0.79495  1.0000
  H   H4807     1.0  0.95279  0.42336  0.47071  1.0000
  H   H4808     1.0  0.84277  0.39583  0.82295  1.0000
  H   H4809     1.0  0.88071  0.39905  0.86094  1.0000
  C   C2736     1.0  0.88685  0.45948  0.15538  1.0000
  C   C2737     1.0  0.75062  0.35596  0.10567  1.0000
  C   C2738     1.0  0.97125  0.48427  0.29366  1.0000
  H   H4810     1.0  0.84743  0.37577  0.85504  1.0000
  C   C2739     1.0  0.84619  0.39992  0.38552  1.0000
  H   H4811     1.0  0.89839  0.43265  0.76051  1.0000
  H   H4812     1.0  0.92439  0.43407  0.79629  1.0000
  C   C2740     1.0  0.75155  0.34296  0.91907  1.0000
  H   H4813     1.0  0.84067  0.38046  0.80745  1.0000
  H   H4814     1.0  0.82898  0.37519  0.84676  1.0000
  H   H4815     1.0  0.81949  0.39636  0.34624  1.0000
  H   H4816     1.0  0.83052  0.39280  0.85470  1.0000
  H   H4817     1.0  0.90813  0.36947  0.40159  1.0000
  C   C2741     1.0  0.97426  0.48458  0.83424  1.0000
  H   H4818     1.0  0.79223  0.38638  0.43592  1.0000
  H   H4819     1.0  0.77483  0.34840  0.26738  1.0000
  H   H4820     1.0  0.87453  0.41769  0.85740  1.0000
  H   H4821     1.0  0.87858  0.41747  0.92381  1.0000
  S   S631      1.0  0.94732  0.40111  0.82083  1.0000
  H   H4822     1.0  0.83322  0.39389  0.77459  1.0000
  H   H4823     1.0  0.82820  0.38160  0.77612  1.0000
  H   H4824     1.0  0.82145  0.38677  0.81155  1.0000
  N   N148      1.0  0.89025  0.41959  0.84284  1.0000
  H   H4825     1.0  0.95823  0.49804  0.05754  1.0000
  H   H4826     1.0  0.86482  0.36558  0.55772  1.0000
  N   N149      1.0  0.84316  0.42479  0.25506  1.0000
  C   C2742     1.0  0.85361  0.42386  0.24672  1.0000
  C   C2743     1.0  0.84220  0.43092  0.21591  1.0000
  C   C2744     1.0  0.84080  0.42955  0.28767  1.0000
  C   C2745     1.0  0.83608  0.41486  0.26978  1.0000
  C   C2746     1.0  0.83790  0.40850  0.24143  1.0000
  C   C2747     1.0  0.85586  0.41677  0.28184  1.0000
  C   C2748     1.0  0.83078  0.43236  0.29641  1.0000
  C   C2749     1.0  0.84750  0.44200  0.20055  1.0000
  C   C2750     1.0  0.84596  0.44740  0.16095  1.0000
  C   C2751     1.0  0.82978  0.39907  0.25717  1.0000
  C   C2752     1.0  0.86683  0.41722  0.27088  1.0000
  C   C2753     1.0  0.83035  0.43929  0.32171  1.0000
  H   H4827     1.0  0.85861  0.43117  0.23904  1.0000
  H   H4828     1.0  0.85601  0.42150  0.21951  1.0000
  H   H4829     1.0  0.84523  0.42804  0.19079  1.0000
  H   H4830     1.0  0.83435  0.43028  0.21828  1.0000
  H   H4831     1.0  0.84672  0.43617  0.28085  1.0000
  H   H4832     1.0  0.84060  0.42451  0.31729  1.0000
  H   H4833     1.0  0.83599  0.41045  0.30037  1.0000
  H   H4834     1.0  0.82845  0.41574  0.27435  1.0000
  H   H4835     1.0  0.84494  0.40635  0.23932  1.0000
  H   H4836     1.0  0.83804  0.41247  0.21041  1.0000
  H   H4837     1.0  0.85364  0.41865  0.31020  1.0000
  H   H4838     1.0  0.85198  0.40909  0.28802  1.0000
  H   H4839     1.0  0.82477  0.42565  0.31357  1.0000
  H   H4840     1.0  0.82927  0.43612  0.26851  1.0000
  H   H4841     1.0  0.84472  0.44569  0.22294  1.0000
  H   H4842     1.0  0.85550  0.44297  0.19453  1.0000
  H   H4843     1.0  0.84894  0.44426  0.13674  1.0000
  H   H4844     1.0  0.83804  0.44691  0.16565  1.0000
  H   H4845     1.0  0.84982  0.45529  0.15058  1.0000
  H   H4846     1.0  0.82256  0.40080  0.25858  1.0000
  H   H4847     1.0  0.83130  0.39463  0.23659  1.0000
  H   H4848     1.0  0.82940  0.39457  0.28788  1.0000
  H   H4849     1.0  0.86827  0.41222  0.29671  1.0000
  H   H4850     1.0  0.86935  0.41484  0.24386  1.0000
  H   H4851     1.0  0.87109  0.42478  0.26477  1.0000
  H   H4852     1.0  0.83526  0.44666  0.30317  1.0000
  H   H4853     1.0  0.82273  0.44011  0.33254  1.0000
  H   H4854     1.0  0.83263  0.43637  0.34863  1.0000
  C   C2754     1.0  0.90081  0.43478  0.03055  1.0000
  H   H4855     1.0  0.89268  0.43287  0.04098  1.0000
  H   H4856     1.0  0.90342  0.42927  0.01694  1.0000
  N   N150      1.0  0.88063  0.46582  0.49034  1.0000
  C   C2755     1.0  0.87935  0.45493  0.50977  1.0000
  C   C2756     1.0  0.87403  0.46757  0.46434  1.0000
  C   C2757     1.0  0.89111  0.47007  0.46255  1.0000
  C   C2758     1.0  0.87886  0.47112  0.52133  1.0000
  C   C2759     1.0  0.86918  0.46682  0.55728  1.0000
  C   C2760     1.0  0.88587  0.45194  0.53632  1.0000
  C   C2761     1.0  0.89382  0.48128  0.43896  1.0000
  C   C2762     1.0  0.86414  0.45985  0.47780  1.0000
  C   C2763     1.0  0.85773  0.46334  0.45235  1.0000
  C   C2764     1.0  0.86862  0.47243  0.58773  1.0000
  C   C2765     1.0  0.88256  0.44093  0.56023  1.0000
  C   C2766     1.0  0.90391  0.48451  0.40640  1.0000
  H   H4857     1.0  0.88078  0.45134  0.48583  1.0000
  H   H4858     1.0  0.87166  0.45132  0.52936  1.0000
  H   H4859     1.0  0.87237  0.47491  0.46107  1.0000
  H   H4860     1.0  0.87783  0.46780  0.43268  1.0000
  H   H4861     1.0  0.89286  0.46611  0.44010  1.0000
  H   H4862     1.0  0.89634  0.46898  0.47981  1.0000
  H   H4863     1.0  0.88498  0.47158  0.53416  1.0000
  H   H4864     1.0  0.87888  0.47889  0.50655  1.0000
  H   H4865     1.0  0.86855  0.45905  0.57415  1.0000
  H   H4866     1.0  0.86286  0.46743  0.54622  1.0000
  H   H4867     1.0  0.89362  0.45345  0.51694  1.0000
  H   H4868     1.0  0.88553  0.45592  0.55868  1.0000
  H   H4869     1.0  0.89406  0.48552  0.46022  1.0000
  H   H4870     1.0  0.88847  0.48339  0.42356  1.0000
  H   H4871     1.0  0.86550  0.45283  0.47355  1.0000
  H   H4872     1.0  0.85989  0.45829  0.51006  1.0000
  H   H4873     1.0  0.85101  0.45743  0.46093  1.0000
  H   H4874     1.0  0.85553  0.46998  0.45768  1.0000
  H   H4875     1.0  0.86171  0.46508  0.41947  1.0000
  H   H4876     1.0  0.86910  0.48032  0.57295  1.0000
  H   H4877     1.0  0.86154  0.46924  0.61292  1.0000
  H   H4878     1.0  0.87462  0.47177  0.60108  1.0000
  H   H4879     1.0  0.88747  0.43890  0.57817  1.0000
  H   H4880     1.0  0.87497  0.43907  0.58174  1.0000
  H   H4881     1.0  0.88280  0.43653  0.53929  1.0000
  H   H4882     1.0  0.90953  0.48195  0.41931  1.0000
  H   H4883     1.0  0.90367  0.48156  0.38126  1.0000
  H   H4884     1.0  0.75185  0.35372  0.16426  1.0000
  H   H4885     1.0  0.89806  0.43496  0.82030  1.0000
  C   C2767     1.0  0.90910  0.42646  0.81595  1.0000
  H   H4886     1.0  0.93613  0.42907  0.43768  1.0000
  H   H4887     1.0  0.91624  0.45420  0.12716  1.0000
  H   H4888     1.0  0.90694  0.37615  0.13091  1.0000
  H   H4889     1.0  0.91619  0.44213  0.79179  1.0000
  H   H4890     1.0  0.94020  0.38717  0.96053  1.0000
  H   H4891     1.0  0.83179  0.37032  0.90481  1.0000
  H   H4892     1.0  0.88822  0.38992  0.90810  1.0000
  N   N151      1.0  0.98434  0.48578  0.80555  1.0000
  H   H4893     1.0  0.83482  0.37456  0.94229  1.0000
  H   H4894     1.0  0.91000  0.48891  0.11135  1.0000
  H   H4895     1.0  0.80001  0.36049  0.34858  1.0000
  C   C2768     1.0  0.90648  0.38302  0.17675  1.0000
  H   H4896     1.0  0.84995  0.37262  0.55256  1.0000
  H   H4897     1.0  0.95249  0.44680  0.13944  1.0000
  H   H4898     1.0  0.89199  0.42601  0.15350  1.0000
  H   H4899     1.0  0.90539  0.41666  0.19720  1.0000
  H   H4900     1.0  0.75506  0.41139  0.79435  1.0000
  H   H4901     1.0  0.93224  0.45428  0.42093  1.0000
  H   H4902     1.0  0.80838  0.35530  0.37033  1.0000
  H   H4903     1.0  0.86898  0.43371  0.88972  1.0000
  H   H4904     1.0  0.83540  0.33921  0.88737  1.0000
  H   H4905     1.0  0.91355  0.45878  0.08136  1.0000
  H   H4906     1.0  0.90225  0.46361  0.12306  1.0000
  C   C2769     1.0  0.89972  0.41642  0.18210  1.0000
  H   H4907     1.0  0.91040  0.43647  0.16608  1.0000
  H   H4908     1.0  0.90246  0.41420  0.15481  1.0000
  H   H4909     1.0  0.91810  0.37517  0.17438  1.0000
  C   C2770     1.0  0.84688  0.34964  0.89117  1.0000
  H   H4910     1.0  0.77452  0.35856  0.15050  1.0000
  H   H4911     1.0  0.98188  0.46508  0.83371  1.0000
  C   C2771     1.0  0.98589  0.46840  0.80081  1.0000
  H   H4912     1.0  0.93590  0.41431  0.39129  1.0000
  C   C2772     1.0  0.96955  0.47449  0.86783  1.0000
  C   C2773     1.0  0.98415  0.47864  0.78191  1.0000
  H   H4913     1.0  0.88461  0.43031  0.89915  1.0000
  C   C2774     1.0  0.99180  0.48462  0.82738  1.0000
  C   C2775     1.0  0.78463  0.37991  0.14844  1.0000
  C   C2776     1.0  0.89043  0.41023  0.87319  1.0000
  C   C2777     1.0  0.89185  0.42677  0.76686  1.0000
  H   H4914     1.0  0.80410  0.33665  0.21587  1.0000
  C   C2778     1.0  0.89069  0.41765  0.80346  1.0000
  N   N152      1.0  0.82004  0.42557  0.69211  1.0000
  H   H4915     1.0  0.82512  0.37590  0.28196  1.0000
  H   H4916     1.0  0.88627  0.41837  0.73234  1.0000
  H   H4917     1.0  0.89946  0.42116  0.72009  1.0000
  H   H4918     1.0  0.90984  0.42594  0.78528  1.0000
  Fe  Fe317     1.0  0.84606  0.36816  0.71801  1.0000
  H   H4919     1.0  0.99397  0.48560  0.55887  1.0000
  C   C2779     1.0  0.96001  0.44290  0.08724  1.0000
  H   H4920     1.0  0.88388  0.41234  0.80741  1.0000
  C   C2780     1.0  0.89283  0.42403  0.72819  1.0000
  C   C2781     1.0  0.98184  0.49847  0.74493  1.0000
  H   H4921     1.0  0.87660  0.37628  0.44049  1.0000
  H   H4922     1.0  0.76955  0.36127  0.21671  1.0000
  H   H4923     1.0  0.90492  0.39750  0.11304  1.0000
  H   H4924     1.0  0.85080  0.39774  0.88175  1.0000
  S   S632      1.0  0.90263  0.39029  0.28940  1.0000
  H   H4925     1.0  0.99551  0.44389  0.63536  1.0000
  C   C2782     1.0  0.94707  0.41470  0.95307  1.0000
  H   H4926     1.0  0.89688  0.40748  0.86045  1.0000
  C   C2783     1.0  0.83131  0.43995  0.75334  1.0000
  H   H4927     1.0  0.83790  0.35467  0.62444  1.0000
  H   H4928     1.0  0.94727  0.42070  0.92608  1.0000
  H   H4929     1.0  0.90818  0.41184  0.04760  1.0000
  C   C2784     1.0  0.85756  0.38625  0.73922  1.0000
  C   C2785     1.0  0.81919  0.36923  0.30092  1.0000
  C   C2786     1.0  0.88128  0.40155  0.88691  1.0000
  H   H4930     1.0  0.94740  0.41656  0.85825  1.0000
  H   H4931     1.0  0.93265  0.40505  0.04842  1.0000
  S   S633      1.0  0.77207  0.39552  0.94508  1.0000
  H   H4932     1.0  0.89668  0.41396  0.79457  1.0000
  Fe  Fe318     1.0  0.76866  0.38524  0.29314  1.0000
  H   H4933     1.0  0.78075  0.35266  0.89147  1.0000
  H   H4934     1.0  0.82587  0.42274  0.74253  1.0000
  H   H4935     1.0  0.80050  0.34709  0.25522  1.0000
  H   H4936     1.0  0.98255  0.41879  0.65287  1.0000
  C   C2787     1.0  0.80109  0.35028  0.80293  1.0000
  H   H4937     1.0  0.97598  0.47185  0.32699  1.0000
  C   C2788     1.0  0.88084  0.37778  0.20238  1.0000
  H   H4938     1.0  0.90954  0.38258  0.38236  1.0000
  H   H4939     1.0  0.95975  0.45119  0.93528  1.0000
  H   H4940     1.0  0.84162  0.35226  0.91197  1.0000
  C   C2789     1.0  0.75713  0.35616  0.13295  1.0000
  C   C2790     1.0  0.85221  0.39067  0.71571  1.0000
  C   C2791     1.0  0.85572  0.39963  0.38552  1.0000
  H   H4941     1.0  0.80057  0.34630  0.78101  1.0000
  H   H4942     1.0  0.89446  0.36575  0.03965  1.0000
  H   H4943     1.0  0.96634  0.44233  0.66206  1.0000
  H   H4944     1.0  0.82680  0.37755  0.48982  1.0000
  H   H4945     1.0  0.84200  0.40369  0.40331  1.0000
  C   C2792     1.0  0.80491  0.36163  0.36676  1.0000
  H   H4946     1.0  0.82988  0.44636  0.76307  1.0000
  C   C2793     1.0  0.88181  0.39275  0.91994  1.0000
  H   H4947     1.0  0.82682  0.44456  0.70133  1.0000
  H   H4948     1.0  0.83012  0.39534  0.71252  1.0000
  Fe  Fe319     1.0  0.85099  0.35160  0.68879  1.0000
  C   C2794     1.0  0.76315  0.34825  0.20524  1.0000
  S   S634      1.0  0.79108  0.37428  0.29311  1.0000
  C   C2795     1.0  0.86108  0.39469  0.36258  1.0000
  H   H4949     1.0  0.75658  0.35647  0.92970  1.0000
  H   H4950     1.0  0.95429  0.44105  0.66013  1.0000
  Fe  Fe320     1.0  0.78217  0.38679  0.92021  1.0000
  H   H4951     1.0  0.93939  0.41038  0.96861  1.0000
  C   C2796     1.0  0.81335  0.37085  0.33967  1.0000
  H   H4952     1.0  0.96139  0.42485  0.26029  1.0000
  H   H4953     1.0  0.87512  0.38675  0.92952  1.0000
  C   C2797     1.0  0.84233  0.33912  0.89455  1.0000
  H   H4954     1.0  0.76649  0.34369  0.22532  1.0000
  C   C2798     1.0  0.79201  0.35457  0.81394  1.0000
  C   C2799     1.0  0.75664  0.34639  0.33714  1.0000
  N   N153      1.0  0.76461  0.35005  0.12981  1.0000
  N   N154      1.0  0.80797  0.35256  0.19014  1.0000
  C   C2800     1.0  0.80597  0.41579  0.75979  1.0000
  C   C2801     1.0  0.87786  0.35901  0.48645  1.0000
  H   H4955     1.0  0.96332  0.49002  0.39644  1.0000
  H   H4956     1.0  0.87884  0.35244  0.85574  1.0000
  S   S635      1.0  0.75505  0.39082  0.28927  1.0000
  H   H4957     1.0  0.81919  0.36927  0.65634  1.0000
  H   H4958     1.0  0.80229  0.37742  0.39980  1.0000
  H   H4959     1.0  0.94303  0.37600  0.98569  1.0000
  H   H4960     1.0  0.97781  0.44779  0.30864  1.0000
  H   H4961     1.0  0.81656  0.37912  0.67581  1.0000
  C   C2802     1.0  0.77221  0.35440  0.08804  1.0000
  C   C2803     1.0  0.84704  0.34546  0.53269  1.0000
  H   H4962     1.0  0.94632  0.40738  0.73768  1.0000
  C   C2804     1.0  0.90393  0.40674  0.03685  1.0000
  C   C2805     1.0  0.75568  0.34859  0.93928  1.0000
  C   C2806     1.0  0.76235  0.40824  0.18553  1.0000
  H   H4963     1.0  0.81711  0.34142  0.23874  1.0000
  C   C2807     1.0  0.83182  0.38366  0.49268  1.0000
  C   C2808     1.0  0.84054  0.35217  0.59885  1.0000
  H   H4964     1.0  0.80854  0.35030  0.50602  1.0000
  C   C2809     1.0  0.97053  0.41458  0.03948  1.0000
  C   C2810     1.0  0.84706  0.38959  0.34262  1.0000
  C   C2811     1.0  0.79610  0.37153  0.40204  1.0000
  H   H4965     1.0  0.79468  0.37389  0.37253  1.0000
  C   C2812     1.0  0.86980  0.33591  0.42808  1.0000
  H   H4966     1.0  0.98599  0.44400  0.58763  1.0000
  H   H4967     1.0  0.96705  0.43114  0.05288  1.0000
  C   C2813     1.0  0.87987  0.37419  0.78835  1.0000
  H   H4968     1.0  0.95068  0.42676  0.33776  1.0000
  H   H4969     1.0  0.85789  0.37872  0.74314  1.0000
  H   H4970     1.0  0.76691  0.34618  0.84762  1.0000
  H   H4971     1.0  0.91747  0.42142  0.08639  1.0000
  H   H4972     1.0  0.79309  0.34083  0.17115  1.0000
  H   H4973     1.0  0.96031  0.38207  0.93484  1.0000
  H   H4974     1.0  0.90558  0.37487  0.35530  1.0000
  H   H4975     1.0  0.95983  0.44875  0.58390  1.0000
  C   C2814     1.0  0.89058  0.37662  0.82940  1.0000
  H   H4976     1.0  0.92642  0.44138  0.44498  1.0000
  N   N155      1.0  0.95203  0.43120  0.05457  1.0000
  H   H4977     1.0  0.87104  0.41471  0.52484  1.0000
  H   H4978     1.0  0.93116  0.42868  0.10289  1.0000
  H   H4979     1.0  0.78412  0.34569  0.95652  1.0000
  C   C2815     1.0  0.95994  0.43773  0.37175  1.0000
  H   H4980     1.0  0.77495  0.34611  0.16091  1.0000
  H   H4981     1.0  0.78561  0.35446  0.40374  1.0000
  H   H4982     1.0  0.99094  0.48121  0.27873  1.0000
  H   H4983     1.0  0.81702  0.36551  0.98498  1.0000
  C   C2816     1.0  0.86380  0.37563  0.87822  1.0000
  H   H4984     1.0  0.88566  0.36927  0.14057  1.0000
  H   H4985     1.0  0.81044  0.37739  0.33023  1.0000
  H   H4986     1.0  0.95775  0.46676  0.33918  1.0000
  H   H4987     1.0  0.76638  0.33690  0.79716  1.0000
  H   H4988     1.0  0.83938  0.40676  0.86730  1.0000
  C   C2817     1.0  0.80702  0.34246  0.18540  1.0000
  H   H4989     1.0  0.96921  0.44457  0.55353  1.0000
  H   H4990     1.0  0.95810  0.42131  0.09188  1.0000
  H   H4991     1.0  0.79424  0.42217  0.78575  1.0000
  C   C2818     1.0  0.96347  0.42056  0.28478  1.0000
  S   S636      1.0  0.95056  0.40364  0.28553  1.0000
  H   H4992     1.0  0.97339  0.43308  0.28675  1.0000
  C   C2819     1.0  0.96634  0.44565  0.58348  1.0000
  H   H4993     1.0  0.96124  0.46455  0.38461  1.0000
  C   C2820     1.0  0.84184  0.39483  0.36425  1.0000
  H   H4994     1.0  0.89221  0.39385  0.05988  1.0000
  H   H4995     1.0  0.81854  0.37262  0.35563  1.0000
  H   H4996     1.0  0.97213  0.45100  0.58668  1.0000
  H   H4997     1.0  0.97489  0.42844  0.71719  1.0000
  C   C2821     1.0  0.96357  0.43579  0.61743  1.0000
  H   H4998     1.0  0.96462  0.45436  0.11110  1.0000
  Fe  Fe321     1.0  0.78866  0.38795  0.30882  1.0000
  C   C2822     1.0  0.97028  0.42525  0.29994  1.0000
  H   H4999     1.0  0.91689  0.49416  0.16005  1.0000
  C   C2823     1.0  0.95937  0.41033  0.30148  1.0000
  H   H5000     1.0  0.88873  0.38822  0.78233  1.0000
  S   S637      1.0  0.86848  0.35567  0.79745  1.0000
  C   C2824     1.0  0.96088  0.47032  0.35811  1.0000
  H   H5001     1.0  0.81435  0.34133  0.17112  1.0000
  H   H5002     1.0  0.97768  0.43365  0.66331  1.0000
  H   H5003     1.0  0.82913  0.39844  0.90833  1.0000
  H   H5004     1.0  0.99544  0.49773  0.75761  1.0000
  H   H5005     1.0  0.95765  0.43088  0.61305  1.0000
  H   H5006     1.0  0.80350  0.39572  0.18737  1.0000
  H   H5007     1.0  0.97412  0.49820  0.76082  1.0000
  C   C2825     1.0  0.89587  0.37412  0.08005  1.0000
  H   H5008     1.0  0.77326  0.34076  0.90280  1.0000
  H   H5009     1.0  0.97006  0.43259  0.61338  1.0000
  H   H5010     1.0  0.88246  0.38949  0.14817  1.0000
  H   H5011     1.0  0.80708  0.43013  0.71860  1.0000
  H   H5012     1.0  0.76817  0.36745  0.78596  1.0000
  C   C2826     1.0  0.94650  0.43789  0.78491  1.0000
  H   H5013     1.0  0.95474  0.45602  0.09084  1.0000
  H   H5014     1.0  0.96296  0.43757  0.10632  1.0000
  S   S638      1.0  0.94808  0.49588  0.84926  1.0000
  H   H5015     1.0  0.81927  0.38161  0.90572  1.0000
  C   C2827     1.0  0.95685  0.41021  0.82099  1.0000
  H   H5016     1.0  0.76525  0.37276  0.82615  1.0000
  C   C2828     1.0  0.95065  0.43738  0.08242  1.0000
  C   C2829     1.0  0.91218  0.37652  0.19728  1.0000
  H   H5017     1.0  0.86451  0.33770  0.41175  1.0000
  H   H5018     1.0  0.78011  0.36807  0.42836  1.0000
  H   H5019     1.0  0.90357  0.37046  0.28554  1.0000
  C   C2830     1.0  0.88093  0.36026  0.83966  1.0000
  H   H5020     1.0  0.94612  0.43266  0.11397  1.0000
  C   C2831     1.0  0.97475  0.42672  0.68919  1.0000
  C   C2832     1.0  0.78219  0.38151  0.08297  1.0000
  C   C2833     1.0  0.87697  0.36403  0.80879  1.0000
  H   H5021     1.0  0.78733  0.34131  0.23430  1.0000
  H   H5022     1.0  0.89669  0.37037  0.17538  1.0000
  C   C2834     1.0  0.95488  0.41693  0.84158  1.0000
  C   C2835     1.0  0.95779  0.45049  0.10838  1.0000
  H   H5023     1.0  0.97017  0.44190  0.99388  1.0000
  C   C2836     1.0  0.89640  0.39844  0.07272  1.0000
  H   H5024     1.0  0.94171  0.41767  0.09652  1.0000
  H   H5025     1.0  0.96249  0.43522  0.73265  1.0000
  S   S639      1.0  0.77304  0.38055  0.34982  1.0000
  H   H5026     1.0  0.97690  0.48715  0.52350  1.0000
  H   H5027     1.0  0.78374  0.35939  0.25854  1.0000
  Fe  Fe322     1.0  0.78546  0.37965  0.24137  1.0000
  H   H5028     1.0  0.96586  0.44676  0.05786  1.0000
  C   C2837     1.0  0.95999  0.42593  0.05947  1.0000
  C   C2838     1.0  0.97116  0.47677  0.33354  1.0000
  H   H5029     1.0  0.94641  0.44280  0.07299  1.0000
  S   S640      1.0  0.79220  0.37838  0.17915  1.0000
  C   C2839     1.0  0.83019  0.38321  0.62579  1.0000
  H   H5030     1.0  0.98289  0.47658  0.25548  1.0000
  H   H5031     1.0  0.90015  0.41098  0.01791  1.0000
  H   H5032     1.0  0.95598  0.47477  0.36962  1.0000
  C   C2840     1.0  0.95554  0.43053  0.73418  1.0000
  C   C2841     1.0  0.98749  0.48352  0.25493  1.0000
  H   H5033     1.0  0.80687  0.40806  0.18890  1.0000
  H   H5034     1.0  0.95933  0.39711  0.34611  1.0000
  H   H5035     1.0  0.97360  0.45847  0.28836  1.0000
  H   H5036     1.0  0.97201  0.46145  0.66397  1.0000
  H   H5037     1.0  0.96849  0.40976  0.07154  1.0000
  H   H5038     1.0  0.94361  0.43077  0.81010  1.0000
  C   C2842     1.0  0.80543  0.36075  0.43456  1.0000
  N   N156      1.0  0.95683  0.42779  0.69596  1.0000
  C   C2843     1.0  0.85672  0.38962  0.34127  1.0000
  H   H5039     1.0  0.80744  0.36373  0.07324  1.0000
  H   H5040     1.0  0.85745  0.37771  0.41909  1.0000
  H   H5041     1.0  0.93366  0.43376  0.04906  1.0000
  C   C2844     1.0  0.88659  0.38040  0.79860  1.0000
  N   N157      1.0  0.79902  0.36183  0.40793  1.0000
  H   H5042     1.0  0.97364  0.48056  0.35328  1.0000
  H   H5043     1.0  0.82220  0.38356  0.94910  1.0000
  H   H5044     1.0  0.89129  0.40182  0.09044  1.0000
  H   H5045     1.0  0.91554  0.38023  0.21528  1.0000
  C   C2845     1.0  0.94261  0.42342  0.06741  1.0000
  C   C2846     1.0  0.83860  0.37866  0.60825  1.0000
  H   H5046     1.0  0.77287  0.38212  0.19338  1.0000
  H   H5047     1.0  0.96230  0.41113  0.48525  1.0000
  H   H5048     1.0  0.96106  0.42909  0.85806  1.0000
  S   S641      1.0  0.75666  0.37436  0.00109  1.0000
  H   H5049     1.0  0.98386  0.46945  0.59222  1.0000
  H   H5050     1.0  0.83433  0.39463  0.36573  1.0000
  H   H5051     1.0  0.90904  0.40371  0.01725  1.0000
  H   H5052     1.0  0.96748  0.48013  0.27782  1.0000
  S   S642      1.0  0.78030  0.37621  0.98147  1.0000
  H   H5053     1.0  0.80742  0.37036  0.97017  1.0000
  C   C2847     1.0  0.92440  0.41920  0.07651  1.0000
  C   C2848     1.0  0.80767  0.35789  0.50349  1.0000
  N   N158      1.0  0.84013  0.38547  0.88238  1.0000
  H   H5054     1.0  0.85847  0.40372  0.51190  1.0000
  H   H5055     1.0  0.96402  0.37388  0.06892  1.0000
  C   C2849     1.0  0.97964  0.49660  0.22723  1.0000
  C   C2850     1.0  0.93302  0.42704  0.07389  1.0000
  C   C2851     1.0  0.87313  0.38155  0.22830  1.0000
  H   H5056     1.0  0.86299  0.38256  0.59248  1.0000
  H   H5057     1.0  0.86644  0.40775  0.57840  1.0000
  S   S643      1.0  0.77050  0.35165  0.37141  1.0000
  H   H5058     1.0  0.92386  0.41203  0.09873  1.0000
  H   H5059     1.0  0.85469  0.38789  0.84120  1.0000
  H   H5060     1.0  0.88354  0.37949  0.10758  1.0000
  H   H5061     1.0  0.80653  0.40836  0.75851  1.0000
  H   H5062     1.0  0.97213  0.41005  0.01933  1.0000
  C   C2852     1.0  0.78148  0.35024  0.08246  1.0000
  N   N159      1.0  0.89487  0.38320  0.13337  1.0000
  C   C2853     1.0  0.78792  0.37961  0.10861  1.0000
  C   C2854     1.0  0.88746  0.38617  0.16309  1.0000
  C   C2855     1.0  0.88948  0.37649  0.11659  1.0000
  H   H5063     1.0  0.96417  0.42616  0.43032  1.0000
  H   H5064     1.0  0.84578  0.39897  0.58072  1.0000
  C   C2856     1.0  0.96590  0.44833  0.94262  1.0000
  S   S644      1.0  0.85502  0.34694  0.63171  1.0000
  H   H5065     1.0  0.95399  0.42387  0.76083  1.0000
  C   C2857     1.0  0.95678  0.42110  0.44518  1.0000
  C   C2858     1.0  0.83247  0.37688  0.91508  1.0000
  H   H5066     1.0  0.89060  0.36335  0.87354  1.0000
  C   C2859     1.0  0.86441  0.41004  0.55035  1.0000
  C   C2860     1.0  0.90144  0.39237  0.10004  1.0000
  H   H5067     1.0  0.88211  0.34312  0.43988  1.0000
  Fe  Fe323     1.0  0.76937  0.38417  0.00561  1.0000
  H   H5068     1.0  0.88184  0.38652  0.31424  1.0000
  H   H5069     1.0  0.81487  0.35080  0.26184  1.0000
  H   H5070     1.0  0.85299  0.39233  0.60405  1.0000
  N   N160      1.0  0.84626  0.38519  0.56890  1.0000
  H   H5071     1.0  0.97600  0.49169  0.21365  1.0000
  H   H5072     1.0  0.98532  0.46964  0.53178  1.0000
  C   C2861     1.0  0.86027  0.40106  0.54029  1.0000
  N   N161      1.0  0.94983  0.43083  0.39144  1.0000
  H   H5073     1.0  0.98189  0.49329  0.72734  1.0000
  H   H5074     1.0  0.96550  0.43354  0.36440  1.0000
  H   H5075     1.0  0.95456  0.41738  0.39337  1.0000
  C   C2862     1.0  0.97306  0.41978  0.33205  1.0000
  H   H5076     1.0  0.85619  0.38357  0.91301  1.0000
  C   C2863     1.0  0.88965  0.36730  0.06570  1.0000
  H   H5077     1.0  0.90765  0.39053  0.08028  1.0000
  C   C2864     1.0  0.95093  0.42098  0.41495  1.0000
  H   H5078     1.0  0.85481  0.37052  0.61302  1.0000
  C   C2865     1.0  0.96262  0.42407  0.84120  1.0000
  H   H5079     1.0  0.79375  0.35522  0.49426  1.0000
  H   H5080     1.0  0.97729  0.42035  0.03209  1.0000
  H   H5081     1.0  0.94365  0.41592  0.43345  1.0000
  C   C2866     1.0  0.86786  0.37209  0.56496  1.0000
  N   N162      1.0  0.98119  0.49046  0.26497  1.0000
  H   H5082     1.0  0.97393  0.45517  0.33992  1.0000
  C   C2867     1.0  0.87264  0.36975  0.43578  1.0000
  C   C2868     1.0  0.96230  0.40498  0.33298  1.0000
  H   H5083     1.0  0.94285  0.41951  0.04476  1.0000
  C   C2869     1.0  0.97247  0.45224  0.31614  1.0000
  H   H5084     1.0  0.94649  0.43532  0.44492  1.0000
  C   C2870     1.0  0.96659  0.41095  0.79872  1.0000
  C   C2871     1.0  0.90112  0.37772  0.15375  1.0000
  S   S645      1.0  0.98383  0.44484  0.41288  1.0000
  C   C2872     1.0  0.98182  0.42013  0.68229  1.0000
  S   S646      1.0  0.94977  0.49270  0.35131  1.0000
  C   C2873     1.0  0.96393  0.44489  0.98860  1.0000
  C   C2874     1.0  0.85105  0.39429  0.57560  1.0000
  C   C2875     1.0  0.85961  0.37633  0.58448  1.0000
  H   H5085     1.0  0.89113  0.39207  0.17228  1.0000
  S   S647      1.0  0.77040  0.37704  0.90841  1.0000
  H   H5086     1.0  0.78583  0.38632  0.39944  1.0000
  C   C2876     1.0  0.77547  0.38180  0.16287  1.0000
  H   H5087     1.0  0.82954  0.35625  0.57218  1.0000
  C   C2877     1.0  0.96213  0.41922  0.03293  1.0000
  S   S648      1.0  0.83295  0.35132  0.49845  1.0000
  H   H5088     1.0  0.87685  0.37174  0.19516  1.0000
  H   H5089     1.0  0.87186  0.36969  0.58662  1.0000
  C   C2878     1.0  0.94549  0.42928  0.35936  1.0000
  H   H5090     1.0  0.95691  0.45080  0.33377  1.0000
  H   H5091     1.0  0.76271  0.38519  0.14884  1.0000
  H   H5092     1.0  0.98668  0.49199  0.31356  1.0000
  C   C2879     1.0  0.78820  0.34128  0.90228  1.0000
  C   C2880     1.0  0.97826  0.46036  0.67527  1.0000
  H   H5093     1.0  0.95564  0.41312  0.04101  1.0000
  H   H5094     1.0  0.78385  0.34787  0.29310  1.0000
  C   C2881     1.0  0.94238  0.37727  0.92635  1.0000
  H   H5095     1.0  0.86135  0.38294  0.45405  1.0000
  C   C2882     1.0  0.85363  0.37951  0.55561  1.0000
  C   C2883     1.0  0.96198  0.38817  0.03820  1.0000
  C   C2884     1.0  0.87854  0.36270  0.31583  1.0000
  H   H5096     1.0  0.93755  0.41835  0.31806  1.0000
  C   C2885     1.0  0.88376  0.37983  0.31077  1.0000
  Fe  Fe324     1.0  0.76012  0.38485  0.93868  1.0000
  C   C2886     1.0  0.88764  0.36646  0.84992  1.0000
  C   C2887     1.0  0.89599  0.37085  0.29387  1.0000
  H   H5097     1.0  0.96123  0.44280  0.30676  1.0000
  H   H5098     1.0  0.84764  0.39193  0.50583  1.0000
  H   H5099     1.0  0.81401  0.36365  0.94154  1.0000
  C   C2888     1.0  0.96421  0.42157  0.69352  1.0000
  H   H5100     1.0  0.93887  0.44513  0.37633  1.0000
  S   S649      1.0  0.86047  0.36472  0.69383  1.0000
  C   C2889     1.0  0.95395  0.43731  0.01098  1.0000
  C   C2890     1.0  0.93544  0.42174  0.37467  1.0000
  H   H5101     1.0  0.94835  0.44161  0.00902  1.0000
  C   C2891     1.0  0.81927  0.34937  0.23460  1.0000
  C   C2892     1.0  0.76971  0.38358  0.13748  1.0000
  H   H5102     1.0  0.96379  0.45148  0.99847  1.0000
  S   S650      1.0  0.84498  0.38371  0.69643  1.0000
  S   S651      1.0  0.76623  0.38723  0.06512  1.0000
  H   H5103     1.0  0.85882  0.38372  0.52460  1.0000
  H   H5104     1.0  0.97906  0.45272  0.67902  1.0000
  H   H5105     1.0  0.83309  0.38945  0.63485  1.0000
  H   H5106     1.0  0.81032  0.41798  0.77823  1.0000
  C   C2893     1.0  0.77314  0.38366  0.09724  1.0000
  H   H5107     1.0  0.91184  0.38990  0.15546  1.0000
  H   H5108     1.0  0.96817  0.40581  0.78250  1.0000
  H   H5109     1.0  0.94460  0.43627  0.34055  1.0000
  H   H5110     1.0  0.88753  0.35724  0.54435  1.0000
  Fe  Fe325     1.0  0.76775  0.36728  0.97179  1.0000
  C   C2894     1.0  0.84307  0.39350  0.89930  1.0000
  H   H5111     1.0  0.89032  0.35568  0.30014  1.0000
  H   H5112     1.0  0.79655  0.34223  0.40266  1.0000
  H   H5113     1.0  0.86077  0.38559  0.32437  1.0000
  C   C2895     1.0  0.79004  0.35338  0.42452  1.0000
  H   H5114     1.0  0.96181  0.41502  0.72142  1.0000
  H   H5115     1.0  0.83775  0.39403  0.54055  1.0000
  H   H5116     1.0  0.96426  0.42346  0.00015  1.0000
  C   C2896     1.0  0.93204  0.42070  0.33915  1.0000
  S   S652      1.0  0.77000  0.37156  0.27758  1.0000
  H   H5117     1.0  0.86854  0.38479  0.21084  1.0000
  S   S653      1.0  0.84131  0.38261  0.31904  1.0000
  H   H5118     1.0  0.90128  0.38483  0.20080  1.0000
  C   C2897     1.0  0.78592  0.38236  0.43018  1.0000
  C   C2898     1.0  0.94731  0.42196  0.69621  1.0000
  H   H5119     1.0  0.82581  0.37310  0.68769  1.0000
  H   H5120     1.0  0.94807  0.45050  0.39410  1.0000
  H   H5121     1.0  0.93732  0.49640  0.97747  1.0000
  H   H5122     1.0  0.97662  0.46139  0.70552  1.0000
  C   C2899     1.0  0.94131  0.44468  0.40309  1.0000
  H   H5123     1.0  0.80473  0.42026  0.70017  1.0000
  Fe  Fe326     1.0  0.77534  0.36740  0.33044  1.0000
  H   H5124     1.0  0.75507  0.35804  0.07325  1.0000
  H   H5125     1.0  0.77477  0.36250  0.08038  1.0000
  H   H5126     1.0  0.98689  0.47520  0.64579  1.0000
  H   H5127     1.0  0.78491  0.38160  0.05189  1.0000
  H   H5128     1.0  0.97427  0.49041  0.84875  1.0000
  C   C2900     1.0  0.78663  0.37181  0.43373  1.0000
  H   H5129     1.0  0.83479  0.35029  0.20716  1.0000
  C   C2901     1.0  0.84177  0.38831  0.53583  1.0000
  H   H5130     1.0  0.79541  0.34668  0.88948  1.0000
  H   H5131     1.0  0.87669  0.38714  0.23910  1.0000
  C   C2902     1.0  0.88846  0.36245  0.30275  1.0000
  H   H5132     1.0  0.97469  0.39206  0.95678  1.0000
  C   C2903     1.0  0.96903  0.40961  0.34791  1.0000
  C   C2904     1.0  0.98279  0.46117  0.78007  1.0000
  H   H5133     1.0  0.80896  0.43003  0.63617  1.0000
  H   H5134     1.0  0.94861  0.41916  0.66991  1.0000
  H   H5135     1.0  0.95302  0.43248  0.99237  1.0000
  H   H5136     1.0  0.82016  0.37016  0.04903  1.0000
  C   C2905     1.0  0.87628  0.37147  0.31956  1.0000
  H   H5137     1.0  0.95110  0.40545  0.47961  1.0000
  H   H5138     1.0  0.90726  0.36933  0.21794  1.0000
  H   H5139     1.0  0.75040  0.37162  0.39076  1.0000
  C   C2906     1.0  0.97238  0.42468  0.81965  1.0000
  H   H5140     1.0  0.88137  0.34867  0.39049  1.0000
  H   H5141     1.0  0.84995  0.33979  0.83350  1.0000
  C   C2907     1.0  0.98754  0.49610  0.77562  1.0000
  H   H5142     1.0  0.96266  0.40850  0.43904  1.0000
  H   H5143     1.0  0.88520  0.37468  0.22128  1.0000
  C   C2908     1.0  0.81472  0.36890  0.95859  1.0000
  C   C2909     1.0  0.85428  0.37803  0.89863  1.0000
  C   C2910     1.0  0.82209  0.37855  0.93080  1.0000
  H   H5144     1.0  0.84951  0.37120  0.92275  1.0000
  C   C2911     1.0  0.99356  0.49212  0.84982  1.0000
  H   H5145     1.0  0.81635  0.43912  0.56296  1.0000
  H   H5146     1.0  0.95325  0.48104  0.05514  1.0000
  C   C2912     1.0  0.82202  0.43403  0.65361  1.0000
  H   H5147     1.0  0.96460  0.41850  0.66815  1.0000
  H   H5148     1.0  0.90145  0.37040  0.08854  1.0000
  H   H5149     1.0  0.89202  0.38066  0.39610  1.0000
  H   H5150     1.0  0.78804  0.35338  0.20102  1.0000
  H   H5151     1.0  0.81717  0.43665  0.74696  1.0000
  C   C2913     1.0  0.95999  0.47468  0.89769  1.0000
  H   H5152     1.0  0.88413  0.37081  0.05541  1.0000
  H   H5153     1.0  0.81213  0.36687  0.42108  1.0000
  H   H5154     1.0  0.93088  0.42775  0.32212  1.0000
  S   S654      1.0  0.84376  0.36021  0.78333  1.0000
  C   C2914     1.0  0.83460  0.38000  0.53099  1.0000
  H   H5155     1.0  0.89969  0.38087  0.05365  1.0000
  H   H5156     1.0  0.89173  0.35874  0.41649  1.0000
  C   C2915     1.0  0.93346  0.44696  0.43463  1.0000
  H   H5157     1.0  0.98921  0.47260  0.45824  1.0000
  H   H5158     1.0  0.97443  0.47231  0.88562  1.0000
  C   C2916     1.0  0.95590  0.38747  0.94052  1.0000
  H   H5159     1.0  0.96681  0.44215  0.93045  1.0000
  C   C2917     1.0  0.83712  0.40149  0.89872  1.0000
  H   H5160     1.0  0.99371  0.46626  0.65845  1.0000
  H   H5161     1.0  0.97107  0.40523  0.37233  1.0000
  H   H5162     1.0  0.95632  0.46720  0.91965  1.0000
  H   H5163     1.0  0.85723  0.36112  0.46047  1.0000
  H   H5164     1.0  0.96769  0.46880  0.85402  1.0000
  H   H5165     1.0  0.87311  0.37769  0.53679  1.0000
  H   H5166     1.0  0.92501  0.41504  0.35074  1.0000
  H   H5167     1.0  0.95490  0.47717  0.88133  1.0000
  C   C2918     1.0  0.75885  0.34402  0.97123  1.0000
  H   H5168     1.0  0.98991  0.47720  0.85006  1.0000
  C   C2919     1.0  0.81775  0.35571  0.19565  1.0000
  H   H5169     1.0  0.75577  0.34361  0.21178  1.0000
  H   H5170     1.0  0.97492  0.39543  0.88830  1.0000
  H   H5171     1.0  0.84299  0.39022  0.93105  1.0000
  H   H5172     1.0  0.86732  0.37271  0.90109  1.0000
  C   C2920     1.0  0.97433  0.41818  0.79787  1.0000
  H   H5173     1.0  0.95087  0.40512  0.91877  1.0000
  H   H5174     1.0  0.95367  0.44162  0.78551  1.0000
  H   H5175     1.0  0.79548  0.34109  0.45465  1.0000
  H   H5176     1.0  0.97483  0.45999  0.78435  1.0000
  C   C2921     1.0  0.95364  0.40817  0.93973  1.0000
  H   H5177     1.0  0.94596  0.39604  0.99513  1.0000
  S   S655      1.0  0.98189  0.43298  0.82425  1.0000
  H   H5178     1.0  0.78614  0.36806  0.46539  1.0000
  H   H5179     1.0  0.94215  0.42674  0.69192  1.0000
  C   C2922     1.0  0.95366  0.39987  0.97657  1.0000
  S   S656      1.0  0.98091  0.42514  0.35570  1.0000
  H   H5180     1.0  0.86785  0.35517  0.41528  1.0000
  C   C2923     1.0  0.87702  0.34528  0.42329  1.0000
  H   H5181     1.0  0.93457  0.37316  0.93900  1.0000
  C   C2924     1.0  0.99295  0.44210  0.58105  1.0000
  C   C2925     1.0  0.83904  0.40728  0.92663  1.0000
  H   H5182     1.0  0.98425  0.45399  0.79370  1.0000
  C   C2926     1.0  0.97445  0.40158  0.90097  1.0000
  H   H5183     1.0  0.82808  0.38972  0.49404  1.0000
  H   H5184     1.0  0.96997  0.39151  0.02503  1.0000
  H   H5185     1.0  0.96318  0.38220  0.09813  1.0000
  H   H5186     1.0  0.80807  0.35394  0.43599  1.0000
  H   H5187     1.0  0.85780  0.34102  0.56021  1.0000
  H   H5188     1.0  0.93995  0.41489  0.76254  1.0000
  H   H5189     1.0  0.77905  0.38232  0.45287  1.0000
  H   H5190     1.0  0.94028  0.43215  0.74594  1.0000
  H   H5191     1.0  0.86553  0.34840  0.46697  1.0000
  C   C2927     1.0  0.76977  0.35098  0.16027  1.0000
  H   H5192     1.0  0.95653  0.40361  0.99559  1.0000
  H   H5193     1.0  0.82773  0.37722  0.55729  1.0000
  H   H5194     1.0  0.82969  0.43353  0.78092  1.0000
  H   H5195     1.0  0.95711  0.39273  0.91002  1.0000
  H   H5196     1.0  0.86877  0.37190  0.32874  1.0000
  H   H5197     1.0  0.94960  0.41802  0.97392  1.0000
  H   H5198     1.0  0.78490  0.34509  0.76636  1.0000
  C   C2928     1.0  0.94493  0.38200  0.95646  1.0000
  S   S657      1.0  0.84413  0.35675  0.31345  1.0000
  H   H5199     1.0  0.94694  0.37201  0.92094  1.0000
  C   C2929     1.0  0.99730  0.48930  0.37696  1.0000
  C   C2930     1.0  0.78255  0.35137  0.26422  1.0000
  C   C2931     1.0  0.95786  0.38473  0.00737  1.0000
  H   H5200     1.0  0.97226  0.40342  0.96043  1.0000
  C   C2932     1.0  0.88770  0.36460  0.41241  1.0000
  C   C2933     1.0  0.94181  0.41284  0.73445  1.0000
  Fe  Fe327     1.0  0.85785  0.35606  0.75937  1.0000
  S   S658      1.0  0.84976  0.34228  0.75219  1.0000
  H   H5201     1.0  0.83845  0.38630  0.46526  1.0000
  H   H5202     1.0  0.95825  0.39360  0.04820  1.0000
  C   C2934     1.0  0.97028  0.39740  0.94824  1.0000
  H   H5203     1.0  0.78515  0.35321  0.45417  1.0000
  C   C2935     1.0  0.82247  0.37568  0.66371  1.0000
  H   H5204     1.0  0.82649  0.38593  0.60344  1.0000
  H   H5205     1.0  0.78051  0.36704  0.82188  1.0000
  S   S659      1.0  0.83671  0.35573  0.70919  1.0000
  C   C2936     1.0  0.85733  0.37624  0.45086  1.0000
  H   H5206     1.0  0.76084  0.36398  0.12653  1.0000
  H   H5207     1.0  0.96111  0.41300  0.92368  1.0000
  Fe  Fe328     1.0  0.99064  0.43687  0.37101  1.0000
  H   H5208     1.0  0.83474  0.41294  0.92578  1.0000
  S   S660      1.0  0.76488  0.35085  0.99475  1.0000
  H   H5209     1.0  0.76903  0.35362  0.06416  1.0000
  N   N163      1.0  0.95942  0.39254  0.96741  1.0000
  H   H5210     1.0  0.92857  0.40111  0.75884  1.0000
  H   H5211     1.0  0.96985  0.40586  0.88743  1.0000
  H   H5212     1.0  0.83785  0.37371  0.52885  1.0000
  H   H5213     1.0  0.94990  0.38146  0.02391  1.0000
  H   H5214     1.0  0.94352  0.38298  0.89695  1.0000
  H   H5215     1.0  0.80005  0.36808  0.47856  1.0000
  C   C2937     1.0  0.80091  0.36063  0.47863  1.0000
  C   C2938     1.0  0.76407  0.34376  0.35236  1.0000
  C   C2939     1.0  0.96025  0.37954  0.07648  1.0000
  C   C2940     1.0  0.76226  0.35739  0.21798  1.0000
  Fe  Fe329     1.0  0.83780  0.35151  0.43195  1.0000
  C   C2941     1.0  0.85175  0.34453  0.56252  1.0000
  H   H5216     1.0  0.96110  0.37857  0.00175  1.0000
  H   H5217     1.0  0.75463  0.35319  0.33790  1.0000
  C   C2942     1.0  0.96561  0.49759  0.37675  1.0000
  H   H5218     1.0  0.82859  0.41944  0.65008  1.0000
  C   C2943     1.0  0.81054  0.35842  0.78308  1.0000
  H   H5219     1.0  0.83203  0.40288  0.66160  1.0000
  Fe  Fe330     1.0  0.99569  0.45813  0.37124  1.0000
  S   S661      1.0  0.85078  0.36308  0.38649  1.0000
  H   H5220     1.0  0.78925  0.36017  0.02078  1.0000
  H   H5221     1.0  0.95228  0.37617  0.09174  1.0000
  H   H5222     1.0  0.98183  0.41851  0.78144  1.0000
  H   H5223     1.0  0.78654  0.35377  0.09560  1.0000
  H   H5224     1.0  0.97274  0.45426  0.92732  1.0000
  Fe  Fe331     1.0  0.84117  0.36697  0.34902  1.0000
  C   C2944     1.0  0.93220  0.40773  0.73155  1.0000
  C   C2945     1.0  0.82706  0.40049  0.69351  1.0000
  H   H5225     1.0  0.77957  0.34222  0.09829  1.0000
  H   H5226     1.0  0.87608  0.34796  0.56499  1.0000
  H   H5227     1.0  0.81956  0.44041  0.66072  1.0000
  H   H5228     1.0  0.99386  0.48137  0.50227  1.0000
  H   H5229     1.0  0.75937  0.36256  0.19809  1.0000
  C   C2946     1.0  0.82626  0.40937  0.70812  1.0000
  H   H5230     1.0  0.81974  0.39650  0.69546  1.0000
  C   C2947     1.0  0.82000  0.44083  0.58446  1.0000
  H   H5231     1.0  0.81626  0.41275  0.67432  1.0000
  N   N164      1.0  0.87758  0.36136  0.44349  1.0000
  C   C2948     1.0  0.81374  0.36832  0.07685  1.0000
  H   H5232     1.0  0.81825  0.35604  0.10939  1.0000
  H   H5233     1.0  0.79154  0.35894  0.78429  1.0000
  C   C2949     1.0  0.78704  0.35217  0.03772  1.0000
  H   H5234     1.0  0.84957  0.37437  0.47021  1.0000
  N   N165      1.0  0.78232  0.34734  0.83982  1.0000
  H   H5235     1.0  0.98980  0.40427  0.89809  1.0000
  C   C2950     1.0  0.75180  0.34022  0.32074  1.0000
  H   H5236     1.0  0.80133  0.35976  0.23178  1.0000
  C   C2951     1.0  0.98551  0.49670  0.28628  1.0000
  C   C2952     1.0  0.82657  0.42877  0.71477  1.0000
  H   H5237     1.0  0.79302  0.40951  0.81327  1.0000
  H   H5238     1.0  0.92715  0.41272  0.73033  1.0000
  H   H5239     1.0  0.95620  0.49488  0.91515  1.0000
  H   H5240     1.0  0.99383  0.46914  0.79667  1.0000
  H   H5241     1.0  0.81193  0.37528  0.08005  1.0000
  C   C2953     1.0  0.97469  0.49189  0.49939  1.0000
  H   H5242     1.0  0.96306  0.48420  0.00749  1.0000
  C   C2954     1.0  0.82258  0.41687  0.67976  1.0000
  H   H5243     1.0  0.78238  0.34835  0.02395  1.0000
  C   C2955     1.0  0.82489  0.43785  0.72809  1.0000
  H   H5244     1.0  0.75854  0.36060  0.83353  1.0000
  H   H5245     1.0  0.75931  0.41199  0.16217  1.0000
  C   C2956     1.0  0.79525  0.41499  0.78237  1.0000
  H   H5246     1.0  0.80727  0.36736  0.16050  1.0000
  H   H5247     1.0  0.86119  0.36620  0.49539  1.0000
  H   H5248     1.0  0.86901  0.38237  0.85482  1.0000
  C   C2957     1.0  0.80060  0.33991  0.15970  1.0000
  S   S662      1.0  0.99264  0.47311  0.35496  1.0000
  H   H5249     1.0  0.83440  0.43050  0.69571  1.0000
  H   H5250     1.0  0.82140  0.40671  0.74003  1.0000
  H   H5251     1.0  0.87288  0.37217  0.40339  1.0000
  Fe  Fe332     1.0  0.83108  0.34565  0.36302  1.0000
  Fe  Fe333     1.0  0.85311  0.35211  0.35404  1.0000
  H   H5252     1.0  0.98663  0.49235  0.87125  1.0000
  H   H5253     1.0  0.79373  0.36008  0.82891  1.0000
  C   C2958     1.0  0.98473  0.40827  0.88634  1.0000
  H   H5254     1.0  0.82382  0.35560  0.16955  1.0000
  C   C2959     1.0  0.81619  0.36278  0.11397  1.0000
  H   H5255     1.0  0.82271  0.36756  0.11540  1.0000
  H   H5256     1.0  0.84935  0.34255  0.50806  1.0000
  C   C2960     1.0  0.78067  0.34566  0.88454  1.0000
  C   C2961     1.0  0.81705  0.43187  0.62273  1.0000
  H   H5257     1.0  0.80182  0.34505  0.82984  1.0000
  H   H5258     1.0  0.83006  0.43668  0.63729  1.0000
  C   C2962     1.0  0.76586  0.36581  0.81944  1.0000
  C   C2963     1.0  0.97132  0.50030  0.51272  1.0000
  H   H5259     1.0  0.81897  0.36345  0.19591  1.0000
  C   C2964     1.0  0.77337  0.36154  0.83663  1.0000
  H   H5260     1.0  0.84693  0.41102  0.91651  1.0000
  H   H5261     1.0  0.77097  0.36063  0.86946  1.0000
  H   H5262     1.0  0.81686  0.35516  0.77413  1.0000
  H   H5263     1.0  0.98106  0.49474  0.47093  1.0000
  H   H5264     1.0  0.99241  0.48742  0.18851  1.0000
  H   H5265     1.0  0.80453  0.35821  0.53460  1.0000
  H   H5266     1.0  0.75909  0.40981  0.21404  1.0000
  H   H5267     1.0  0.75099  0.40886  0.84865  1.0000
  H   H5268     1.0  0.83070  0.34729  0.26160  1.0000
  H   H5269     1.0  0.89429  0.37419  0.44165  1.0000
  H   H5270     1.0  0.96866  0.48730  0.49414  1.0000
  H   H5271     1.0  0.81503  0.36306  0.48902  1.0000
  H   H5272     1.0  0.83368  0.41279  0.70743  1.0000
  H   H5273     1.0  0.96607  0.50083  0.25469  1.0000
  H   H5274     1.0  0.81921  0.42570  0.61280  1.0000
  H   H5275     1.0  0.87032  0.35613  0.50847  1.0000
  H   H5276     1.0  0.89118  0.35328  0.47974  1.0000
  H   H5277     1.0  0.98761  0.41086  0.85256  1.0000
  C   C2965     1.0  0.84859  0.34795  0.59566  1.0000
  H   H5278     1.0  0.98918  0.42380  0.68132  1.0000
  H   H5279     1.0  0.88082  0.36581  0.49224  1.0000
  C   C2966     1.0  0.86180  0.36758  0.46304  1.0000
  C   C2967     1.0  0.80932  0.42327  0.71632  1.0000
  C   C2968     1.0  0.80751  0.36034  0.15380  1.0000
  S   S663      1.0  0.82791  0.35646  0.39652  1.0000
  H   H5280     1.0  0.81179  0.36225  0.80475  1.0000
  H   H5281     1.0  0.98455  0.41485  0.89634  1.0000
  C   C2969     1.0  0.99296  0.47328  0.51197  1.0000
  C   C2970     1.0  0.89441  0.37414  0.41090  1.0000
  C   C2971     1.0  0.75978  0.33932  0.13961  1.0000
  C   C2972     1.0  0.77410  0.35154  0.82978  1.0000
  C   C2973     1.0  0.78939  0.34934  0.22894  1.0000
  H   H5282     1.0  0.99300  0.46200  0.48246  1.0000
  C   C2974     1.0  0.88366  0.35020  0.54308  1.0000
  C   C2975     1.0  0.80012  0.35240  0.22744  1.0000
  H   H5283     1.0  0.90613  0.49266  0.39344  1.0000
  C   C2976     1.0  0.83913  0.34988  0.53538  1.0000
  H   H5284     1.0  0.83233  0.35972  0.23014  1.0000
  H   H5285     1.0  0.79371  0.34927  0.03507  1.0000
  H   H5286     1.0  0.77478  0.35272  0.79736  1.0000
  S   S664      1.0  0.98910  0.43925  0.51396  1.0000
  H   H5287     1.0  0.81025  0.36383  0.75538  1.0000
  H   H5288     1.0  0.85369  0.34994  0.89949  1.0000
  H   H5289     1.0  0.81777  0.44724  0.59212  1.0000
  C   C2977     1.0  0.88348  0.35125  0.49997  1.0000
  H   H5290     1.0  0.85677  0.33751  0.86695  1.0000
  H   H5291     1.0  0.97923  0.41300  0.70737  1.0000
  C   C2978     1.0  0.99439  0.47013  0.47411  1.0000
  S   S665      1.0  0.81674  0.33977  0.35104  1.0000
  S   S666      1.0  0.84038  0.33991  0.40178  1.0000
  H   H5292     1.0  0.99692  0.48233  0.89916  1.0000
  C   C2979     1.0  0.98984  0.46697  0.60256  1.0000
  H   H5293     1.0  0.98881  0.45905  0.60526  1.0000
  C   C2980     1.0  0.87155  0.35264  0.43818  1.0000
  H   H5294     1.0  0.75338  0.39838  0.99451  1.0000
  C   C2981     1.0  0.95354  0.49947  0.00335  1.0000
  H   H5295     1.0  0.98669  0.50079  0.20332  1.0000
  H   H5296     1.0  0.76019  0.40016  0.19197  1.0000
  C   C2982     1.0  0.83583  0.35308  0.56906  1.0000
  C   C2983     1.0  0.99835  0.44207  0.60807  1.0000
  H   H5297     1.0  0.77858  0.33644  0.42165  1.0000
  Fe  Fe334     1.0  0.99477  0.44169  0.44552  1.0000
  H   H5298     1.0  0.92185  0.50088  0.97415  1.0000
  H   H5299     1.0  0.75556  0.34091  0.08365  1.0000
  H   H5300     1.0  0.99903  0.48520  0.80521  1.0000
  H   H5301     1.0  0.96484  0.49685  0.54050  1.0000
  H   H5302     1.0  0.99710  0.49960  0.82777  1.0000
  C   C2984     1.0  0.95924  0.50210  0.85160  1.0000
  H   H5303     1.0  0.88755  0.34446  0.55261  1.0000
  H   H5304     1.0  0.87971  0.34396  0.50078  1.0000
  H   H5305     1.0  0.79754  0.33799  0.34134  1.0000
  C   C2985     1.0  0.96141  0.50027  0.88791  1.0000
  H   H5306     1.0  0.94649  0.49389  0.01966  1.0000
  H   H5307     1.0  0.99829  0.47259  0.21625  1.0000
  C   C2986     1.0  0.96058  0.50082  0.34925  1.0000
  C   C2987     1.0  0.99649  0.43967  0.54558  1.0000
  H   H5308     1.0  0.96580  0.48408  0.05344  1.0000
  S   S667      1.0  0.99694  0.44868  0.71157  1.0000
  H   H5309     1.0  0.75243  0.33731  0.16314  1.0000
  Fe  Fe335     1.0  0.99661  0.44057  0.77453  1.0000
  S   S668      1.0  0.82216  0.33772  0.82574  1.0000
  H   H5310     1.0  0.98025  0.50081  0.29830  1.0000
  H   H5311     1.0  0.97730  0.50141  0.40043  1.0000
  H   H5312     1.0  0.94574  0.49967  0.60273  1.0000
  H   H5313     1.0  0.95643  0.49828  0.97370  1.0000
  C   C2988     1.0  0.99571  0.48714  0.21308  1.0000
  H   H5314     1.0  0.96817  0.50096  0.01057  1.0000
  C   C2989     1.0  0.78140  0.33752  0.83284  1.0000
  C   C2990     1.0  0.96052  0.49669  0.02795  1.0000
  H   H5315     1.0  0.93223  0.50119  0.01722  1.0000
  C   C2991     1.0  0.78193  0.33762  0.78905  1.0000
  H   H5316     1.0  0.99990  0.46235  0.53904  1.0000
  H   H5317     1.0  0.79059  0.33603  0.96036  1.0000
  N   N166      1.0  0.99977  0.47269  0.57221  1.0000
  H   H5318     1.0  0.76579  0.33569  0.08386  1.0000
  H   H5319     1.0  0.94417  0.52545  0.01634  1.0000
  H   H5320     1.0  0.94389  0.51838  0.96434  1.0000
  H   H5321     1.0  0.97448  0.53229  0.90681  1.0000
  Fe  Fe336     1.0  0.99677  0.52338  0.39409  1.0000
  S   S669      1.0  0.99688  0.51207  0.45018  1.0000
  H   H5322     1.0  0.95174  0.51850  0.52142  1.0000
  H   H5323     1.0  0.95696  0.52983  0.94548  1.0000
  C   C2992     1.0  0.99811  0.51121  0.28313  1.0000
  C   C2993     1.0  0.94712  0.51073  0.03773  1.0000
  H   H5324     1.0  0.96848  0.50476  0.18099  1.0000
  C   C2994     1.0  0.97261  0.53312  0.49125  1.0000
  H   H5325     1.0  0.94676  0.51821  0.39688  1.0000
  H   H5326     1.0  0.97333  0.52487  0.30932  1.0000
  S   S670      1.0  0.98762  0.51966  0.85699  1.0000
  H   H5327     1.0  0.98064  0.52402  0.46401  1.0000
  H   H5328     1.0  0.94390  0.52234  0.08850  1.0000
  C   C2995     1.0  0.97622  0.51405  0.35585  1.0000
  H   H5329     1.0  0.98009  0.51974  0.78965  1.0000
  C   C2996     1.0  0.99555  0.50400  0.26137  1.0000
  C   C2997     1.0  0.97132  0.51721  0.32784  1.0000
  C   C2998     1.0  0.97031  0.50544  0.88879  1.0000
  H   H5330     1.0  0.97400  0.53799  0.45974  1.0000
  H   H5331     1.0  0.94236  0.50355  0.05958  1.0000
  H   H5332     1.0  0.98222  0.51037  0.69277  1.0000
  H   H5333     1.0  0.97606  0.51927  0.51726  1.0000
  C   C2999     1.0  0.96612  0.50903  0.81606  1.0000
  C   C3000     1.0  0.94567  0.51111  0.96932  1.0000
  C   C3001     1.0  0.98644  0.50878  0.71416  1.0000
  H   H5334     1.0  0.99412  0.50934  0.69632  1.0000
  C   C3002     1.0  0.96180  0.51687  0.97512  1.0000
  H   H5335     1.0  0.96449  0.51053  0.78781  1.0000
  C   C3003     1.0  0.97351  0.50408  0.37941  1.0000
  H   H5336     1.0  0.98919  0.52415  0.61834  1.0000
  H   H5337     1.0  0.97237  0.54204  0.92753  1.0000
  H   H5338     1.0  0.96555  0.51530  0.94708  1.0000
  C   C3004     1.0  0.97356  0.50431  0.23288  1.0000
  H   H5339     1.0  0.95166  0.50604  0.52754  1.0000
  H   H5340     1.0  0.94299  0.51156  0.59882  1.0000
  C   C3005     1.0  0.96202  0.52796  0.96272  1.0000
  C   C3006     1.0  0.97229  0.53410  0.93549  1.0000
  H   H5341     1.0  0.93256  0.52456  0.08155  1.0000
  H   H5342     1.0  0.95979  0.51334  0.30342  1.0000
  H   H5343     1.0  0.99567  0.50840  0.23095  1.0000
  C   C3007     1.0  0.97501  0.51421  0.81693  1.0000
  H   H5344     1.0  0.96018  0.53026  0.99019  1.0000
  H   H5345     1.0  0.93370  0.51541  0.03310  1.0000
  C   C3008     1.0  0.96296  0.52171  0.45081  1.0000
  C   C3009     1.0  0.94050  0.51812  0.03911  1.0000
  C   C3010     1.0  0.93740  0.51937  0.08107  1.0000
  H   H5346     1.0  0.97776  0.53274  0.95132  1.0000
  H   H5347     1.0  0.98741  0.53879  0.49033  1.0000
  S   S671      1.0  0.98515  0.52301  0.36163  1.0000
  C   C3011     1.0  0.97709  0.51252  0.85344  1.0000
  C   C3012     1.0  0.96364  0.51066  0.32424  1.0000
  C   C3013     1.0  0.97972  0.53798  0.50860  1.0000
  C   C3014     1.0  0.94861  0.50730  0.60164  1.0000
  H   H5348     1.0  0.96087  0.51958  0.56771  1.0000
  C   C3015     1.0  0.95812  0.51221  0.56610  1.0000
  H   H5349     1.0  0.97844  0.53355  0.54063  1.0000
  H   H5350     1.0  0.97864  0.54541  0.50791  1.0000
  H   H5351     1.0  0.94854  0.52801  0.41803  1.0000
  C   C3016     1.0  0.97240  0.50990  0.19271  1.0000
  H   H5352     1.0  0.92702  0.51344  0.96808  1.0000
  H   H5353     1.0  0.99784  0.52953  0.66246  1.0000
  H   H5354     1.0  0.96357  0.50792  0.57103  1.0000
  C   C3017     1.0  0.92879  0.50668  0.96236  1.0000
  H   H5355     1.0  0.96033  0.52821  0.45577  1.0000
  C   C3018     1.0  0.95640  0.51314  0.52467  1.0000
  N   N167      1.0  0.96540  0.51614  0.48737  1.0000
  C   C3019     1.0  0.95206  0.52265  0.40624  1.0000
  H   H5356     1.0  0.95000  0.50698  0.63069  1.0000
  C   C3020     1.0  0.99711  0.52645  0.60766  1.0000
  H   H5357     1.0  0.96504  0.53276  0.50950  1.0000
  H   H5358     1.0  0.97966  0.51390  0.16969  1.0000
  S   S672      1.0  0.99580  0.52333  0.53691  1.0000
  C   C3021     1.0  0.97399  0.52278  0.49042  1.0000
  H   H5359     1.0  0.93328  0.51220  0.10478  1.0000
  H   H5360     1.0  0.97723  0.50979  0.24380  1.0000
  H   H5361     1.0  0.96967  0.52474  0.42356  1.0000
  H   H5362     1.0  0.96661  0.51595  0.99435  1.0000
  C   C3022     1.0  0.95503  0.51586  0.43889  1.0000
  H   H5363     1.0  0.99291  0.51603  0.28483  1.0000
  C   C3023     1.0  0.96850  0.50724  0.47916  1.0000
  H   H5364     1.0  0.96803  0.51535  0.19763  1.0000
  C   C3024     1.0  0.93590  0.50318  0.98403  1.0000
  H   H5365     1.0  0.97482  0.50965  0.45041  1.0000
  H   H5366     1.0  0.95280  0.51268  0.05153  1.0000
  H   H5367     1.0  0.94985  0.51117  0.93837  1.0000
  H   H5368     1.0  0.94837  0.51198  0.46557  1.0000
  H   H5369     1.0  0.93197  0.50816  0.92909  1.0000
  H   H5370     1.0  0.97733  0.50426  0.52019  1.0000
  N   N168      1.0  0.95189  0.50972  0.99677  1.0000
  H   H5371     1.0  0.95857  0.52670  0.37898  1.0000
  H   H5372     1.0  0.98638  0.51439  0.72977  1.0000
  H   H5373     1.0  0.95788  0.51039  0.42582  1.0000
  H   H5374     1.0  0.97198  0.50395  0.91689  1.0000
  H   H5375     1.0  0.99787  0.50723  0.31441  1.0000
  H   H5376     1.0  0.96253  0.50245  0.47446  1.0000
