data_image0
_chemical_formula_structural       FeS2FeS2FeSFeS3H2SH4SCH3SHCSFeS2HSH2CHCH5CFeH2SC2H4C6H4C6H4C4HCH8C3HCHCH3CFeCH2C3H3CH2CFeH2C2H2CH3SHCHCH5C4HFeSH4CHC2H2CHCHSCH2C2H3CNCHC2HC2H2CH4CHCH3FeHCHCH6C2HCH7CH4CHNC2H5FeC2NHCHSH3CHCHCH2CHCH2C3H3NHCH4SH4CH3SCH2SH4FeH4C3SHC2H3CH6C2H4CHCFeS2C3SHFeSCFeS2FeSFeHS2H3CHSHSH2SHC2H2FeC2SC2H5C2H3C6HSH3C3H7SH2C2HSHC2HCH2CFeHCNHC4HCHSNHCHFeCH7CH4FeHCHC2HCS2H3CHCSH5CHC2H3C2H2CHCSHCSH7C3H4SH3FeHCHC2H2CH4CH5CHC2HCH2NH5C3H3FeH2NC8HC3H16CH6CH4CH6CHC2HC2HCH2C2HC4HCNSH2CH2FeS2FeS2FeSFeS3HSHSN2HSHCHFeH4FeS2CFeH2C4S2HCHSNCHC2HCH2C6H4C6H4C5FeH6CHSCH2C2H4CHCH4CHCH2SH7C2H2FeH2CH7CHCSH6CHCH2C2H3C5HC2HSHC2H2SHC3HCHCH2N2HSH2CHSHCFeH2C2HCH3CHSCH6CH3CHCHCH3CH2CHCHCH5CFeHC3H4NC3H4FeHCH4CHCH3C2H7CH6FeS2HCS3FeSCFeS2FeSFeS3H2SHCSHCH2SHC5H2C3H2CH4C9H5C3H7C3HC5H5CHFeHC2HC2H2C2H2CSHCFeH5C2H3SH4SFeH2SCH2SCH8CH2CHC2H4CH3C2H5CH2NHCH2CH5C2H4FeH4CHCFeNCHCH2NHC6H2CHC3H2CH5CHCH4CH4NHCH2CH2CH2CH2CH2CH2CH2NCH2C4H2SH2CH6CH2FeHC2H7CH3CH2CHCHCH3C2HCNHCHFeH3CHNHFeH3CHCHCHCH3S2H6C3H2CH4CHNCFeS4HFe2S2CH5S2HC7H5C2SC3H4SHSC3SHFeCH2C3FeS2FeHCHC4HC6H4C6H5CH7CFeCH4CH2CH4CHC2HFeH2NC5HC6H22CSH2CHSCH2SNC12H25SH4C2H4FeCHCH4CH2C2HCHCSH3C3H4CH3C2NH4SH6CH2SH2CHFeCH3CHCH3CH2Fe2S2FeS2FeSFeS3C2HCHCHSCHC2HC2HFeH3C4HCH2FeH2CSHNH2S2C4H6CSH3SH4CH4CH4NCHC5H3C2H2C2H3CH6C3H2CH5C2H2SCH3CHNCHCHC4H2C2H2CH5FeCNH3NC4H2C2HSCH3SHCH8C3HNC7H2C2H3CH13C2H6C4H4C2H3CHCHCHSH4C2H2CH2CHCH2CSH6C2H2CH10CH11CH2CH2C5H10CH3C2H2CH5C2FeSHSHCHFeS3HSH2SH4C6H4CNC2H4CH2SCH2CHSH3FeSHCHFeS2CHCHC2SH2C6H3C4HC2H4NCH2C3H3CH5CH6CHCHFeH2C2H4CH2SCH2CHFeC3H13CHFeH2SC3H6CFeCHSH4FeH4SH2CNHC2H3SFeCH2C2H4C3H3C2H2C2HCNH8CH2CH4CHC3H2CH2CH3C5HCHSFeH3CHCFeCHCH2CHCHCHCH9CHC6H2C2HSCFeSHFeS2FeSFeS3C2HCHC2FeH2C4H4CH4FeH3CHCH2SH6C4H4C5H5C2H2C2HCH2NC2H3C2HSH3C3HNH2SH4CSCSH3FeH2CSCHCHSH3NHC2HC4SC3HNH8CH6CH4CH6CH2CHC2HC2H2C2HNC12H35CHC2HCHSC4HCH3CFeCH2CSHCH7C2H2CHC2H5CH9CHCH4C2NCHC2H6CH7NH2C2H3CHFeS2FeS2FeS2HCHCHFeSHSH2SH2CH14CNC3H2CHCH2C2FeH12CH3C6H4CFeH4CH2C2SHCHCH2C2SH3CHC2H3C4H2C2HCHC3HCH2C2H2CHSCHCH2CSH2CH2C2HC2HCSC4NHNC5HC3HCH5CH5CH7CH10CHC3HNH4SHCHCH3CHNC3NH4C3H2C2SFeH13CHCH2CH3SNFeH8FeCH2SC2H3C3H2CH5FeS2HC2SH2FeS2FeS2FeSFeCS2HFeS2FeS2FeSFeHS3H2CHC6H4C3HCNHCH4CHC7H5CH3C3HCSC2HNC2HC2H3CHCH3CH2SH16CH3C2H2CH11C3H2C5H3CH2CH3C3H2CH4CHCHCHCHCH3SH5FeCH3C2H4CH5C2HC2H8CH3NH10NC8HC2H3CHCHC2H2C2HCHCH8C2FeS2FeS2FeS2CHC2HFeSHSH3FeHFeNH3CH2C2H5C8H10C2H5CH2CH2C6H4SCHC2H2C3HCHCH4C2SC3H3CH5CH3CH3CHC2H10CSHCHCH4SCH5CH3C3HSCHCFeC4HCHCH2CHCHC2NC2H3C2H3C2H2C2H7CH5SCHCHFeH2CHN3H5CH2CHC2HSC2H3C2H3C2H3CH4C2HSH3CHCH4CFeHCHCH5CH2C2H3CNH7CHC2SHSCH2CSH5CH12SH4CHFeS2H3SCSFeS2FeS2FeSFeHS2CFeS2FeH2FeSHCS2HCHCHC6H4CH3C2H4C3H2C6H6CH2CHCHFeH3NC12H16FeH13CSCH5FeC2H8CHCHFeC2H3NH4CH2CH2C2FeHC4H6NCH3SH2C3H9CSCHCH3SH3CHSH2SHC6HNC2HC2HCHC2H2C2H4SH2SCH2C2FeSCHC
_chemical_formula_sum              "Fe128 S256 H2048 C1152 N64"
_cell_length_a       44.3257
_cell_length_b       42.9762
_cell_length_c       45.7589
_cell_angle_alpha    89.9951
_cell_angle_beta     89.9799
_cell_angle_gamma    89.8911

_space_group_name_H-M_alt    "P 1"
_space_group_IT_number       1

loop_
  _space_group_symop_operation_xyz
  'x, y, z'

loop_
  _atom_site_type_symbol
  _atom_site_label
  _atom_site_symmetry_multiplicity
  _atom_site_fract_x
  _atom_site_fract_y
  _atom_site_fract_z
  _atom_site_occupancy
  Fe  Fe1       1.0  0.17270  0.38231  0.24903  1.0000
  S   S1        1.0  0.14705  0.36166  0.21158  1.0000
  S   S2        1.0  0.16652  0.36427  0.29519  1.0000
  Fe  Fe2       1.0  0.21528  0.41920  0.20793  1.0000
  S   S3        1.0  0.19272  0.40013  0.16799  1.0000
  S   S4        1.0  0.25789  0.44694  0.19947  1.0000
  Fe  Fe3       1.0  0.14969  0.40974  0.19211  1.0000
  S   S5        1.0  0.11284  0.44099  0.17462  1.0000
  Fe  Fe4       1.0  0.19300  0.35415  0.19168  1.0000
  S   S6        1.0  0.20804  0.30851  0.17112  1.0000
  S   S7        1.0  0.17234  0.43124  0.23134  1.0000
  S   S8        1.0  0.21834  0.37277  0.22991  1.0000
  H   H1        1.0  0.02061  0.05928  0.26407  1.0000
  H   H2        1.0  0.00065  0.11052  0.36342  1.0000
  S   S9        1.0  0.03040  0.16310  0.33774  1.0000
  H   H3        1.0  0.17415  0.32117  0.41439  1.0000
  H   H4        1.0  0.31338  0.30346  0.17484  1.0000
  H   H5        1.0  0.19348  0.27620  0.24076  1.0000
  H   H6        1.0  0.16808  0.29324  0.26572  1.0000
  S   S10       1.0  0.04613  0.43874  0.05238  1.0000
  C   C1        1.0  0.19833  0.01090  0.14916  1.0000
  H   H7        1.0  0.31790  0.41617  0.19391  1.0000
  H   H8        1.0  0.26242  0.07914  0.06031  1.0000
  H   H9        1.0  0.15172  0.28713  0.20359  1.0000
  S   S11       1.0  0.31989  0.15007  0.25730  1.0000
  H   H10       1.0  0.23641  0.45698  0.12358  1.0000
  C   C2        1.0  0.11041  0.43317  0.97487  1.0000
  S   S12       1.0  0.00830  0.07079  0.01879  1.0000
  Fe  Fe5       1.0  0.03417  0.27488  0.36803  1.0000
  S   S13       1.0  0.07045  0.23870  0.37186  1.0000
  S   S14       1.0  0.03834  0.31537  0.33669  1.0000
  H   H11       1.0  0.15638  0.23499  0.22794  1.0000
  S   S15       1.0  0.05641  0.03307  0.05897  1.0000
  H   H12       1.0  0.21469  0.15728  0.02468  1.0000
  H   H13       1.0  0.13553  0.44753  0.07680  1.0000
  C   C3        1.0  0.22145  0.09737  0.01672  1.0000
  H   H14       1.0  0.23431  0.26698  0.27328  1.0000
  C   C4        1.0  0.13388  0.03085  0.00334  1.0000
  H   H15       1.0  0.10813  0.04088  0.13920  1.0000
  H   H16       1.0  0.02892  0.05452  0.15555  1.0000
  H   H17       1.0  0.23608  0.17943  0.21686  1.0000
  H   H18       1.0  0.00939  0.05945  0.21434  1.0000
  H   H19       1.0  0.24264  0.33484  0.32414  1.0000
  C   C5        1.0  0.12292  0.04548  0.12015  1.0000
  Fe  Fe6       1.0  0.01072  0.05537  0.06557  1.0000
  H   H20       1.0  0.11514  0.13553  0.00874  1.0000
  H   H21       1.0  0.19737  0.17289  0.22727  1.0000
  S   S16       1.0  0.02618  0.00016  0.00006  1.0000
  C   C6        1.0  0.10879  0.33766  0.42434  1.0000
  C   C7        1.0  0.05016  0.08671  0.29057  1.0000
  H   H22       1.0  0.12984  0.08398  0.08979  1.0000
  H   H23       1.0  0.21603  0.17736  0.96016  1.0000
  H   H24       1.0  0.24077  0.22183  0.25205  1.0000
  H   H25       1.0  0.15010  0.36462  0.42886  1.0000
  C   C8        1.0  0.23673  0.28630  0.18821  1.0000
  C   C9        1.0  0.24777  0.25919  0.17472  1.0000
  C   C10       1.0  0.27132  0.24187  0.18764  1.0000
  C   C11       1.0  0.28412  0.25193  0.21393  1.0000
  C   C12       1.0  0.27279  0.27865  0.22751  1.0000
  C   C13       1.0  0.24902  0.29546  0.21495  1.0000
  H   H26       1.0  0.23828  0.25173  0.15410  1.0000
  H   H27       1.0  0.27999  0.22123  0.17698  1.0000
  H   H28       1.0  0.28244  0.28635  0.24798  1.0000
  H   H29       1.0  0.24029  0.31540  0.22616  1.0000
  C   C14       1.0  0.13107  0.34879  0.30509  1.0000
  C   C15       1.0  0.10493  0.35649  0.28957  1.0000
  C   C16       1.0  0.07667  0.34567  0.29920  1.0000
  C   C17       1.0  0.07443  0.32631  0.32383  1.0000
  C   C18       1.0  0.10076  0.31746  0.33855  1.0000
  C   C19       1.0  0.12889  0.32923  0.32959  1.0000
  H   H30       1.0  0.10634  0.37167  0.27076  1.0000
  H   H31       1.0  0.05643  0.35259  0.28769  1.0000
  H   H32       1.0  0.09926  0.30264  0.35757  1.0000
  H   H33       1.0  0.14895  0.32343  0.34188  1.0000
  C   C20       1.0  0.06751  0.43904  0.08503  1.0000
  C   C21       1.0  0.07855  0.41116  0.09705  1.0000
  C   C22       1.0  0.09424  0.41131  0.12390  1.0000
  C   C23       1.0  0.09889  0.43942  0.13868  1.0000
  H   H34       1.0  0.09022  0.32806  0.43784  1.0000
  C   C24       1.0  0.07291  0.46693  0.09971  1.0000
  H   H35       1.0  0.07438  0.38937  0.08593  1.0000
  H   H36       1.0  0.10166  0.38967  0.13364  1.0000
  H   H37       1.0  0.16331  0.06004  0.14364  1.0000
  H   H38       1.0  0.16120  0.22584  0.37932  1.0000
  H   H39       1.0  0.21846  0.03622  0.11207  1.0000
  H   H40       1.0  0.16458  0.15100  0.03155  1.0000
  H   H41       1.0  0.02350  0.38909  0.20448  1.0000
  H   H42       1.0  0.20309  0.32416  0.44193  1.0000
  C   C25       1.0  0.21966  0.18111  0.23517  1.0000
  C   C26       1.0  0.08872  0.46718  0.12616  1.0000
  C   C27       1.0  0.24461  0.30995  0.31781  1.0000
  H   H43       1.0  0.30621  0.23389  0.39253  1.0000
  C   C28       1.0  0.17592  0.27027  0.25722  1.0000
  H   H44       1.0  0.03082  0.12822  0.24787  1.0000
  C   C29       1.0  0.14687  0.00101  0.16592  1.0000
  H   H45       1.0  0.19686  0.30230  0.31912  1.0000
  H   H46       1.0  0.22763  0.16569  0.25308  1.0000
  H   H47       1.0  0.27691  0.38201  0.18717  1.0000
  C   C30       1.0  0.28834  0.02858  0.21347  1.0000
  Fe  Fe7       1.0  0.05087  0.04384  0.01123  1.0000
  C   C31       1.0  0.14139  0.21230  0.44557  1.0000
  H   H48       1.0  0.00514  0.47768  0.10429  1.0000
  H   H49       1.0  0.27052  0.01728  0.11873  1.0000
  C   C32       1.0  0.21442  0.21010  0.99518  1.0000
  C   C33       1.0  0.21540  0.29956  0.30309  1.0000
  C   C34       1.0  0.28900  0.37279  0.27424  1.0000
  H   H50       1.0  0.11976  0.31807  0.41260  1.0000
  H   H51       1.0  0.21554  0.04697  0.22915  1.0000
  H   H52       1.0  0.22943  0.25098  0.30835  1.0000
  C   C35       1.0  0.26326  0.04703  0.22019  1.0000
  H   H53       1.0  0.31020  0.03930  0.21064  1.0000
  H   H54       1.0  0.17437  0.20565  0.26655  1.0000
  C   C36       1.0  0.29991  0.38491  0.24468  1.0000
  Fe  Fe8       1.0  0.05942  0.23956  0.41996  1.0000
  H   H55       1.0  0.11626  0.02951  0.10225  1.0000
  H   H56       1.0  0.29157  0.06566  0.03587  1.0000
  C   C37       1.0  0.18349  0.31031  0.43443  1.0000
  C   C38       1.0  0.29424  0.36921  0.14540  1.0000
  H   H57       1.0  0.21055  0.22928  0.22672  1.0000
  H   H58       1.0  0.06485  0.06657  0.29605  1.0000
  C   C39       1.0  0.14889  0.25550  0.24079  1.0000
  H   H59       1.0  0.20570  0.22890  0.98079  1.0000
  H   H60       1.0  0.18316  0.18832  0.43559  1.0000
  H   H61       1.0  0.12545  0.03102  0.23401  1.0000
  S   S17       1.0  0.02463  0.20185  0.41624  1.0000
  H   H62       1.0  0.25548  0.04649  0.03610  1.0000
  C   C40       1.0  0.15611  0.43297  0.07935  1.0000
  H   H63       1.0  0.14692  0.23450  0.30006  1.0000
  C   C41       1.0  0.01446  0.10922  0.25269  1.0000
  H   H64       1.0  0.05503  0.04830  0.18550  1.0000
  H   H65       1.0  0.02429  0.11040  0.16993  1.0000
  H   H66       1.0  0.19480  0.25391  0.34555  1.0000
  H   H67       1.0  0.29948  0.26068  0.44122  1.0000
  H   H68       1.0  0.13046  0.20592  0.42531  1.0000
  C   C42       1.0  0.17760  0.44757  0.10155  1.0000
  C   C43       1.0  0.23496  0.03281  0.22379  1.0000
  C   C44       1.0  0.13192  0.35566  0.44338  1.0000
  C   C45       1.0  0.26691  0.06939  0.03824  1.0000
  H   H69       1.0  0.32168  0.46702  0.01735  1.0000
  Fe  Fe9       1.0  0.31015  0.11479  0.22223  1.0000
  S   S18       1.0  0.02520  0.27833  0.41638  1.0000
  H   H70       1.0  0.27794  0.39197  0.28654  1.0000
  H   H71       1.0  0.20592  0.20452  0.28998  1.0000
  H   H72       1.0  0.21734  0.10596  0.03929  1.0000
  H   H73       1.0  0.23932  0.21255  0.99681  1.0000
  C   C46       1.0  0.26461  0.35967  0.13094  1.0000
  H   H74       1.0  0.28375  0.22203  0.43996  1.0000
  C   C47       1.0  0.30510  0.23554  0.43931  1.0000
  C   C48       1.0  0.03147  0.09301  0.18655  1.0000
  H   H75       1.0  0.26227  0.08118  0.99313  1.0000
  H   H76       1.0  0.00588  0.44116  0.12348  1.0000
  C   C49       1.0  0.21887  0.15164  0.00127  1.0000
  H   H77       1.0  0.20213  0.03083  0.16426  1.0000
  C   C50       1.0  0.03427  0.41016  0.19511  1.0000
  H   H78       1.0  0.17142  0.44733  0.96320  1.0000
  S   S19       1.0  0.26602  0.08790  0.22380  1.0000
  C   C51       1.0  0.04581  0.06582  0.17003  1.0000
  H   H79       1.0  0.06450  0.07459  0.15617  1.0000
  H   H80       1.0  0.15579  0.27296  0.31003  1.0000
  C   C52       1.0  0.09443  0.35907  0.40156  1.0000
  C   C53       1.0  0.25685  0.98191  0.21448  1.0000
  H   H81       1.0  0.19739  0.43189  0.10363  1.0000
  H   H82       1.0  0.13099  0.24803  0.25616  1.0000
  H   H83       1.0  0.13397  0.45659  0.01034  1.0000
  C   C54       1.0  0.18736  0.48052  0.09155  1.0000
  N   N1        1.0  0.16569  0.00981  0.13975  1.0000
  C   C55       1.0  0.21806  0.26574  0.29166  1.0000
  H   H84       1.0  0.26047  0.33438  0.13406  1.0000
  C   C56       1.0  0.33027  0.99492  0.03341  1.0000
  C   C57       1.0  0.03402  0.08076  0.26158  1.0000
  H   H85       1.0  0.28010  0.39415  0.23291  1.0000
  C   C58       1.0  0.15682  0.04134  0.12803  1.0000
  C   C59       1.0  0.25606  0.09172  0.01444  1.0000
  H   H86       1.0  0.12336  0.99575  0.15924  1.0000
  H   H87       1.0  0.00205  0.11729  0.27251  1.0000
  C   C60       1.0  0.17393  0.11667  0.99693  1.0000
  H   H88       1.0  0.25887  0.99279  0.14863  1.0000
  H   H89       1.0  0.12497  0.29869  0.23161  1.0000
  H   H90       1.0  0.05153  0.07622  0.24476  1.0000
  H   H91       1.0  0.16695  0.09230  0.99237  1.0000
  C   C61       1.0  0.21764  0.21484  0.24558  1.0000
  H   H92       1.0  0.17680  0.26326  0.41795  1.0000
  C   C62       1.0  0.13468  0.27861  0.21950  1.0000
  H   H93       1.0  0.11164  0.36729  0.38568  1.0000
  H   H94       1.0  0.16847  0.02980  0.19989  1.0000
  H   H95       1.0  0.31535  0.40472  0.24893  1.0000
  Fe  Fe10      1.0  0.32836  0.18342  0.22061  1.0000
  H   H96       1.0  0.26561  0.36451  0.10713  1.0000
  C   C63       1.0  0.29299  0.36426  0.17886  1.0000
  H   H97       1.0  0.26401  0.30733  0.30264  1.0000
  C   C64       1.0  0.23893  0.47905  0.11102  1.0000
  H   H98       1.0  0.28149  0.34178  0.18326  1.0000
  H   H99       1.0  0.00972  0.14515  0.20426  1.0000
  H   H100      1.0  0.16964  0.04653  0.10772  1.0000
  H   H101      1.0  0.13568  0.04750  0.18363  1.0000
  H   H102      1.0  0.11987  0.02808  0.02253  1.0000
  H   H103      1.0  0.04886  0.10382  0.20071  1.0000
  C   C65       1.0  0.11641  0.07858  0.10965  1.0000
  C   C66       1.0  0.17796  0.23766  0.33615  1.0000
  H   H104      1.0  0.11621  0.26713  0.20719  1.0000
  C   C67       1.0  0.16619  0.24970  0.30625  1.0000
  H   H105      1.0  0.03914  0.45739  0.15687  1.0000
  H   H106      1.0  0.06440  0.10792  0.28919  1.0000
  H   H107      1.0  0.08353  0.37944  0.41215  1.0000
  H   H108      1.0  0.18113  0.17758  0.98078  1.0000
  H   H109      1.0  0.13588  0.99151  0.22547  1.0000
  H   H110      1.0  0.14917  0.40954  0.08704  1.0000
  H   H111      1.0  0.12011  0.37685  0.45149  1.0000
  C   C68       1.0  0.22194  0.01425  0.12434  1.0000
  H   H112      1.0  0.30182  0.06922  0.11754  1.0000
  H   H113      1.0  0.16728  0.43042  0.05775  1.0000
  H   H114      1.0  0.09209  0.08082  0.10404  1.0000
  H   H115      1.0  0.10808  0.42684  0.02190  1.0000
  C   C69       1.0  0.19546  0.27820  0.42593  1.0000
  H   H116      1.0  0.21245  0.28049  0.40824  1.0000
  N   N2        1.0  0.32259  0.36597  0.19517  1.0000
  C   C70       1.0  0.16066  0.98600  0.11601  1.0000
  C   C71       1.0  0.32199  0.22886  0.41082  1.0000
  H   H117      1.0  0.30207  0.33764  0.22890  1.0000
  H   H118      1.0  0.13486  0.21834  0.35030  1.0000
  H   H119      1.0  0.07669  0.34618  0.38945  1.0000
  H   H120      1.0  0.31229  0.35537  0.13488  1.0000
  H   H121      1.0  0.16890  0.11166  0.04482  1.0000
  Fe  Fe11      1.0  0.03180  0.20480  0.36780  1.0000
  C   C72       1.0  0.20605  0.17841  0.98237  1.0000
  C   C73       1.0  0.02483  0.46449  0.17558  1.0000
  N   N3        1.0  0.18901  0.25099  0.28173  1.0000
  H   H122      1.0  0.18858  0.21441  0.33397  1.0000
  C   C74       1.0  0.28510  0.99613  0.21058  1.0000
  H   H123      1.0  0.19703  0.47765  0.06925  1.0000
  S   S20       1.0  0.22183  0.01801  0.98232  1.0000
  H   H124      1.0  0.14168  0.25791  0.36227  1.0000
  H   H125      1.0  0.24547  0.37292  0.14039  1.0000
  H   H126      1.0  0.08888  0.42014  0.97258  1.0000
  C   C75       1.0  0.12622  0.01333  0.21634  1.0000
  H   H127      1.0  0.24883  0.29598  0.33783  1.0000
  C   C76       1.0  0.31617  0.35892  0.22698  1.0000
  H   H128      1.0  0.20640  0.26677  0.44498  1.0000
  C   C77       1.0  0.18295  0.02608  0.97950  1.0000
  H   H129      1.0  0.26879  0.11372  0.01701  1.0000
  H   H130      1.0  0.21110  0.31556  0.28447  1.0000
  C   C78       1.0  0.16442  0.02196  0.00409  1.0000
  H   H131      1.0  0.17383  0.01227  0.02393  1.0000
  C   C79       1.0  0.11162  0.44600  0.00597  1.0000
  H   H132      1.0  0.05084  0.41928  0.21119  1.0000
  H   H133      1.0  0.16579  0.44836  0.12291  1.0000
  C   C80       1.0  0.15228  0.23484  0.35827  1.0000
  C   C81       1.0  0.14562  0.02519  0.19108  1.0000
  C   C82       1.0  0.19565  0.21815  0.27187  1.0000
  H   H134      1.0  0.21033  0.07418  0.01548  1.0000
  H   H135      1.0  0.14161  0.29131  0.45081  1.0000
  H   H136      1.0  0.31158  0.00975  0.04152  1.0000
  N   N4        1.0  0.20782  0.11928  0.99439  1.0000
  H   H137      1.0  0.13617  0.98393  0.11096  1.0000
  C   C83       1.0  0.12574  0.12180  0.02659  1.0000
  H   H138      1.0  0.29767  0.39428  0.14063  1.0000
  H   H139      1.0  0.27219  0.35396  0.27109  1.0000
  H   H140      1.0  0.04652  0.40332  0.17489  1.0000
  H   H141      1.0  0.32201  0.02261  0.08868  1.0000
  S   S21       1.0  0.31525  0.23328  0.23017  1.0000
  H   H142      1.0  0.09368  0.46373  0.00937  1.0000
  H   H143      1.0  0.12171  0.09572  0.12707  1.0000
  H   H144      1.0  0.29003  0.45495  0.13999  1.0000
  H   H145      1.0  0.32729  0.20372  0.41027  1.0000
  C   C84       1.0  0.15997  0.12615  0.02674  1.0000
  H   H146      1.0  0.12928  0.41643  0.97210  1.0000
  H   H147      1.0  0.10281  0.00870  0.20884  1.0000
  H   H148      1.0  0.11609  0.12972  0.04773  1.0000
  S   S22       1.0  0.31529  0.14941  0.18562  1.0000
  C   C85       1.0  0.12194  0.04459  0.97817  1.0000
  H   H149      1.0  0.03351  0.08981  0.30852  1.0000
  H   H150      1.0  0.20433  0.98993  0.16230  1.0000
  S   S23       1.0  0.08504  0.05985  0.97761  1.0000
  H   H151      1.0  0.24377  0.15295  0.99871  1.0000
  H   H152      1.0  0.20426  0.21309  0.01722  1.0000
  H   H153      1.0  0.11994  0.09687  0.02366  1.0000
  H   H154      1.0  0.22072  0.99452  0.10878  1.0000
  Fe  Fe12      1.0  0.02928  0.99054  0.04837  1.0000
  H   H155      1.0  0.24501  0.47157  0.08846  1.0000
  H   H156      1.0  0.30824  0.36384  0.28735  1.0000
  H   H157      1.0  0.04434  0.98509  0.11287  1.0000
  H   H158      1.0  0.32523  0.09729  0.09847  1.0000
  C   C86       1.0  0.32457  0.07993  0.11644  1.0000
  C   C87       1.0  0.17122  0.20243  0.45141  1.0000
  C   C88       1.0  0.01020  0.43464  0.18824  1.0000
  S   S24       1.0  0.99999  0.09040  0.10142  1.0000
  H   H159      1.0  0.32880  0.09233  0.13735  1.0000
  C   C89       1.0  0.23174  0.00036  0.22103  1.0000
  C   C90       1.0  0.00376  0.08234  0.20464  1.0000
  H   H160      1.0  0.12687  0.47797  0.95990  1.0000
  H   H161      1.0  0.25681  0.03469  0.15207  1.0000
  H   H162      1.0  0.16224  0.13084  0.98013  1.0000
  C   C91       1.0  0.25396  0.01480  0.13677  1.0000
  H   H163      1.0  0.29991  0.46633  0.10305  1.0000
  H   H164      1.0  0.04094  0.47292  0.19243  1.0000
  H   H165      1.0  0.17136  0.99357  0.09517  1.0000
  H   H166      1.0  0.31897  0.22853  0.45838  1.0000
  H   H167      1.0  0.20992  0.98962  0.22419  1.0000
  H   H168      1.0  0.22043  0.08313  0.96364  1.0000
  C   C92       1.0  0.21815  0.10894  0.96433  1.0000
  C   C93       1.0  0.29421  0.47502  0.12524  1.0000
  H   H169      1.0  0.19882  0.47527  0.15271  1.0000
  H   H170      1.0  0.24113  0.11816  0.95962  1.0000
  H   H171      1.0  0.30461  0.98198  0.20554  1.0000
  H   H172      1.0  0.29225  0.48160  0.04128  1.0000
  C   C94       1.0  0.15920  0.30769  0.45875  1.0000
  H   H173      1.0  0.01857  0.22550  0.62589  1.0000
  C   C95       1.0  0.10247  0.30933  0.53895  1.0000
  Fe  Fe13      1.0  0.27077  0.04684  0.88367  1.0000
  S   S25       1.0  0.30805  0.01246  0.87789  1.0000
  S   S26       1.0  0.26389  0.07917  0.84562  1.0000
  C   C96       1.0  0.11455  0.47587  0.90030  1.0000
  C   C97       1.0  0.15674  0.01826  0.84322  1.0000
  C   C98       1.0  0.29834  0.09602  0.83519  1.0000
  S   S27       1.0  0.23563  0.01160  0.89554  1.0000
  H   H174      1.0  0.13888  0.45964  0.66360  1.0000
  Fe  Fe14      1.0  0.29734  0.27790  0.52168  1.0000
  S   S28       1.0  0.29657  0.22667  0.53076  1.0000
  C   C99       1.0  0.12588  0.23043  0.46610  1.0000
  Fe  Fe15      1.0  0.23595  0.28875  0.55257  1.0000
  S   S29       1.0  0.23155  0.23829  0.56409  1.0000
  S   S30       1.0  0.19496  0.31864  0.56217  1.0000
  Fe  Fe16      1.0  0.28085  0.24063  0.57575  1.0000
  S   S31       1.0  0.30077  0.23041  0.62044  1.0000
  Fe  Fe17      1.0  0.24731  0.22988  0.51802  1.0000
  H   H175      1.0  0.31362  0.13415  0.69025  1.0000
  S   S32       1.0  0.28400  0.29208  0.56722  1.0000
  S   S33       1.0  0.24932  0.28023  0.50589  1.0000
  H   H176      1.0  0.10392  0.40230  0.92673  1.0000
  H   H177      1.0  0.18465  0.04139  0.93477  1.0000
  H   H178      1.0  0.13673  0.38660  0.50852  1.0000
  C   C100      1.0  0.11552  0.18358  0.68918  1.0000
  H   H179      1.0  0.28940  0.16277  0.82904  1.0000
  S   S34       1.0  0.08539  0.29966  0.72895  1.0000
  H   H180      1.0  0.09389  0.04026  0.87671  1.0000
  S   S35       1.0  0.07050  0.39014  0.75819  1.0000
  H   H181      1.0  0.26651  0.17095  0.77964  1.0000
  H   H182      1.0  0.27814  0.15912  0.72369  1.0000
  S   S36       1.0  0.14084  0.36733  0.74707  1.0000
  H   H183      1.0  0.15409  0.40579  0.47811  1.0000
  C   C101      1.0  0.05488  0.27802  0.74309  1.0000
  C   C102      1.0  0.21742  0.42082  0.82457  1.0000
  H   H184      1.0  0.06965  0.98566  0.72703  1.0000
  H   H185      1.0  0.16619  0.00041  0.85812  1.0000
  Fe  Fe18      1.0  0.09424  0.35142  0.73410  1.0000
  C   C103      1.0  0.20220  0.46724  0.85044  1.0000
  C   C104      1.0  0.14030  0.04803  0.95338  1.0000
  S   S37       1.0  0.22357  0.20006  0.48432  1.0000
  C   C105      1.0  0.04866  0.99832  0.72631  1.0000
  C   C106      1.0  0.04881  0.03051  0.72073  1.0000
  H   H186      1.0  0.23856  0.22301  0.69398  1.0000
  H   H187      1.0  0.09815  0.45591  0.66318  1.0000
  H   H188      1.0  0.00301  0.37362  0.73029  1.0000
  H   H189      1.0  0.07001  0.04238  0.71728  1.0000
  H   H190      1.0  0.20348  0.40595  0.50495  1.0000
  C   C107      1.0  0.12951  0.32007  0.52091  1.0000
  C   C108      1.0  0.02784  0.22863  0.74452  1.0000
  H   H191      1.0  0.23294  0.36771  0.65204  1.0000
  H   H192      1.0  0.00795  0.29311  0.70018  1.0000
  H   H193      1.0  0.17387  0.42558  0.52482  1.0000
  C   C109      1.0  0.19167  0.33944  0.59521  1.0000
  C   C110      1.0  0.21664  0.34491  0.61311  1.0000
  C   C111      1.0  0.21342  0.36293  0.63859  1.0000
  C   C112      1.0  0.18510  0.37477  0.64675  1.0000
  C   C113      1.0  0.15999  0.36868  0.62917  1.0000
  C   C114      1.0  0.16338  0.35142  0.60328  1.0000
  H   H194      1.0  0.23856  0.33593  0.60696  1.0000
  S   S38       1.0  0.18201  0.39817  0.67829  1.0000
  H   H195      1.0  0.13818  0.37808  0.63509  1.0000
  H   H196      1.0  0.14409  0.34761  0.58930  1.0000
  H   H197      1.0  0.21330  0.02857  0.83051  1.0000
  C   C115      1.0  0.14024  0.23829  0.49236  1.0000
  C   C116      1.0  0.17021  0.22946  0.49771  1.0000
  C   C117      1.0  0.18583  0.21134  0.47738  1.0000
  H   H198      1.0  0.11029  0.30287  0.56112  1.0000
  H   H199      1.0  0.06739  0.23725  0.71851  1.0000
  H   H200      1.0  0.12816  0.25163  0.50853  1.0000
  H   H201      1.0  0.18121  0.23645  0.51772  1.0000
  H   H202      1.0  0.16138  0.44105  0.89651  1.0000
  H   H203      1.0  0.00141  0.31717  0.66912  1.0000
  H   H204      1.0  0.16041  0.99276  0.80289  1.0000
  S   S39       1.0  0.03732  0.44509  0.69555  1.0000
  H   H205      1.0  0.29330  0.08508  0.78947  1.0000
  H   H206      1.0  0.13124  0.05878  0.93389  1.0000
  C   C118      1.0  0.00865  0.35570  0.71365  1.0000
  C   C119      1.0  0.17316  0.46452  0.83856  1.0000
  H   H207      1.0  0.05996  0.28989  0.60332  1.0000
  S   S40       1.0  0.28235  0.05778  0.93026  1.0000
  H   H208      1.0  0.07194  0.00659  0.67048  1.0000
  C   C120      1.0  0.02383  0.99724  0.64355  1.0000
  C   C121      1.0  0.28421  0.22061  0.73655  1.0000
  H   H209      1.0  0.23452  0.40378  0.81913  1.0000
  C   C122      1.0  0.11976  0.33005  0.48976  1.0000
  H   H210      1.0  0.18276  0.39860  0.79863  1.0000
  H   H211      1.0  0.12542  0.00783  0.68907  1.0000
  C   C123      1.0  0.31193  0.12553  0.71308  1.0000
  Fe  Fe19      1.0  0.13957  0.39492  0.70547  1.0000
  H   H212      1.0  0.26463  0.20484  0.73905  1.0000
  C   C124      1.0  0.18816  0.41791  0.81286  1.0000
  N   N5        1.0  0.22051  0.02044  0.78451  1.0000
  H   H213      1.0  0.02583  0.20468  0.73760  1.0000
  C   C125      1.0  0.25418  0.01477  0.78719  1.0000
  C   C126      1.0  0.21595  0.05479  0.77865  1.0000
  C   C127      1.0  0.15284  0.43830  0.91925  1.0000
  C   C128      1.0  0.32177  0.16971  0.61671  1.0000
  H   H214      1.0  0.10389  0.35000  0.49215  1.0000
  C   C129      1.0  0.23260  0.06827  0.75156  1.0000
  H   H215      1.0  0.10572  0.31075  0.48091  1.0000
  S   S41       1.0  0.11973  0.43728  0.72665  1.0000
  N   N6        1.0  0.12044  0.44936  0.92122  1.0000
  H   H216      1.0  0.23593  0.47682  0.72006  1.0000
  C   C130      1.0  0.23017  0.10376  0.75086  1.0000
  H   H217      1.0  0.25803  0.21041  0.78931  1.0000
  Fe  Fe20      1.0  0.31777  0.02058  0.92539  1.0000
  C   C131      1.0  0.03421  0.29052  0.76301  1.0000
  H   H218      1.0  0.26574  0.03589  0.79575  1.0000
  H   H219      1.0  0.22302  0.06858  0.79812  1.0000
  H   H220      1.0  0.19181  0.06047  0.77526  1.0000
  H   H221      1.0  0.30561  0.16618  0.59931  1.0000
  H   H222      1.0  0.29575  0.14051  0.75475  1.0000
  H   H223      1.0  0.10025  0.19215  0.70669  1.0000
  H   H224      1.0  0.17013  0.29566  0.47751  1.0000
  C   C132      1.0  0.15804  0.38886  0.49607  1.0000
  H   H225      1.0  0.29070  0.46678  0.76451  1.0000
  H   H226      1.0  0.22234  0.05930  0.73111  1.0000
  H   H227      1.0  0.25694  0.06227  0.75144  1.0000
  H   H228      1.0  0.05940  0.99623  0.59489  1.0000
  Fe  Fe21      1.0  0.25116  0.01839  0.94176  1.0000
  H   H229      1.0  0.08093  0.99437  0.94482  1.0000
  C   C133      1.0  0.02674  0.03222  0.63530  1.0000
  H   H230      1.0  0.13983  0.33982  0.53280  1.0000
  C   C134      1.0  0.05152  0.24709  0.73386  1.0000
  C   C135      1.0  0.16895  0.35737  0.48318  1.0000
  H   H231      1.0  0.11879  0.46862  0.87740  1.0000
  C   C136      1.0  0.25675  0.24058  0.69173  1.0000
  S   S42       1.0  0.28740  0.98165  0.93996  1.0000
  S   S43       1.0  0.28985  0.47724  0.93706  1.0000
  H   H232      1.0  0.24099  0.11277  0.73070  1.0000
  H   H233      1.0  0.20614  0.11118  0.75088  1.0000
  H   H234      1.0  0.24177  0.11401  0.77012  1.0000
  C   C137      1.0  0.19751  0.11673  0.93786  1.0000
  H   H235      1.0  0.25912  0.24644  0.66820  1.0000
  C   C138      1.0  0.01050  0.27195  0.77378  1.0000
  S   S44       1.0  0.09476  0.37677  0.69112  1.0000
  H   H236      1.0  0.14624  0.30093  0.52013  1.0000
  H   H237      1.0  0.99949  0.23226  0.69033  1.0000
  H   H238      1.0  0.29205  0.20643  0.69084  1.0000
  H   H239      1.0  0.21965  0.00831  0.73862  1.0000
  H   H240      1.0  0.03671  0.31429  0.77041  1.0000
  C   C139      1.0  0.29982  0.15118  0.73310  1.0000
  H   H241      1.0  0.09166  0.28872  0.52872  1.0000
  C   C140      1.0  0.27361  0.18222  0.82471  1.0000
  C   C141      1.0  0.31637  0.11070  0.85608  1.0000
  H   H242      1.0  0.01763  0.99641  0.66717  1.0000
  H   H243      1.0  0.21001  0.41724  0.93485  1.0000
  H   H244      1.0  0.18576  0.45734  0.76253  1.0000
  C   C142      1.0  0.21297  0.10854  0.90897  1.0000
  C   C143      1.0  0.16954  0.01463  0.81239  1.0000
  H   H245      1.0  0.20969  0.98910  0.82057  1.0000
  H   H246      1.0  0.99918  0.15599  0.59503  1.0000
  C   C144      1.0  0.02172  0.04732  0.71914  1.0000
  H   H247      1.0  0.18213  0.48003  0.72943  1.0000
  C   C145      1.0  0.17060  0.03832  0.95387  1.0000
  S   S45       1.0  0.02281  0.08698  0.70901  1.0000
  H   H248      1.0  0.03377  0.03529  0.61226  1.0000
  C   C146      1.0  0.09862  0.99688  0.90067  1.0000
  S   S46       1.0  0.12815  0.43559  0.80836  1.0000
  H   H249      1.0  0.07574  0.42958  0.91616  1.0000
  H   H250      1.0  0.13805  0.17851  0.69872  1.0000
  H   H251      1.0  0.31009  0.22387  0.79563  1.0000
  H   H252      1.0  0.19355  0.43993  0.72768  1.0000
  H   H253      1.0  0.21852  0.08334  0.90814  1.0000
  H   H254      1.0  0.17568  0.47942  0.93880  1.0000
  H   H255      1.0  0.17641  0.10291  0.93902  1.0000
  C   C147      1.0  0.08189  0.02722  0.89411  1.0000
  C   C148      1.0  0.32775  0.46070  0.80924  1.0000
  C   C149      1.0  0.16580  0.43955  0.82026  1.0000
  H   H256      1.0  0.05508  0.47501  0.74987  1.0000
  H   H257      1.0  0.13185  0.01556  0.84254  1.0000
  H   H258      1.0  0.09157  0.42808  0.86537  1.0000
  H   H259      1.0  0.09810  0.36174  0.88958  1.0000
  S   S47       1.0  0.26112  0.44775  0.85889  1.0000
  H   H260      1.0  0.30416  0.24556  0.69897  1.0000
  H   H261      1.0  0.26641  0.46650  0.79509  1.0000
  H   H262      1.0  0.08778  0.01049  0.63521  1.0000
  Fe  Fe22      1.0  0.07472  0.41676  0.71616  1.0000
  H   H263      1.0  0.24150  0.45071  0.75044  1.0000
  C   C150      1.0  0.28663  0.22780  0.70341  1.0000
  H   H264      1.0  0.16220  0.04166  0.85206  1.0000
  C   C151      1.0  0.09980  0.42292  0.91255  1.0000
  C   C152      1.0  0.22443  0.44523  0.84381  1.0000
  H   H265      1.0  0.15439  0.41285  0.92368  1.0000
  H   H266      1.0  0.05858  0.02233  0.88649  1.0000
  C   C153      1.0  0.10265  0.41135  0.88047  1.0000
  H   H267      1.0  0.26428  0.01047  0.76526  1.0000
  H   H268      1.0  0.18362  0.00948  0.75538  1.0000
  H   H269      1.0  0.31125  0.00462  0.80989  1.0000
  H   H270      1.0  0.23405  0.12218  0.90614  1.0000
  C   C154      1.0  0.08704  0.38002  0.87614  1.0000
  H   H271      1.0  0.08088  0.04212  0.91391  1.0000
  H   H272      1.0  0.27992  0.20236  0.83863  1.0000
  H   H273      1.0  0.18077  0.34376  0.50051  1.0000
  H   H274      1.0  0.02733  0.05605  0.92459  1.0000
  H   H275      1.0  0.06280  0.38167  0.88215  1.0000
  C   C155      1.0  0.20459  0.01303  0.81289  1.0000
  H   H276      1.0  0.11837  0.46384  0.62990  1.0000
  C   C156      1.0  0.32287  0.17796  0.73604  1.0000
  C   C157      1.0  0.30652  0.20191  0.78313  1.0000
  H   H277      1.0  0.22408  0.45343  0.94921  1.0000
  C   C158      1.0  0.29882  0.98290  0.80480  1.0000
  H   H278      1.0  0.14087  0.00530  0.65240  1.0000
  H   H279      1.0  0.12660  0.40869  0.87384  1.0000
  N   N7        1.0  0.31212  0.20735  0.75087  1.0000
  H   H280      1.0  0.03157  0.20243  0.65641  1.0000
  H   H281      1.0  0.21493  0.45046  0.91104  1.0000
  H   H282      1.0  0.25028  0.26208  0.70363  1.0000
  H   H283      1.0  0.26052  0.99510  0.83095  1.0000
  H   H284      1.0  0.02916  0.34306  0.72098  1.0000
  C   C159      1.0  0.19546  0.46171  0.74056  1.0000
  C   C160      1.0  0.07853  0.99305  0.65083  1.0000
  C   C161      1.0  0.27447  0.19112  0.79241  1.0000
  H   H285      1.0  0.31381  0.44136  0.81799  1.0000
  H   H286      1.0  0.27747  0.24254  0.74787  1.0000
  H   H287      1.0  0.02545  0.25708  0.67089  1.0000
  Fe  Fe23      1.0  0.11738  0.40843  0.76727  1.0000
  H   H288      1.0  0.25053  0.17454  0.83080  1.0000
  H   H289      1.0  0.08867  0.37310  0.85279  1.0000
  N   N8        1.0  0.13191  0.26573  0.65510  1.0000
  C   C162      1.0  0.09959  0.27553  0.65007  1.0000
  C   C163      1.0  0.13194  0.23830  0.67584  1.0000
  C   C164      1.0  0.14794  0.29190  0.67081  1.0000
  C   C165      1.0  0.14843  0.25859  0.62696  1.0000
  C   C166      1.0  0.12980  0.24364  0.60182  1.0000
  C   C167      1.0  0.09512  0.30633  0.63285  1.0000
  C   C168      1.0  0.18277  0.28855  0.67404  1.0000
  C   C169      1.0  0.11810  0.20753  0.66458  1.0000
  H   H290      1.0  0.18539  0.38705  0.53566  1.0000
  C   C170      1.0  0.14998  0.23489  0.57607  1.0000
  C   C171      1.0  0.06349  0.30858  0.61973  1.0000
  C   C172      1.0  0.19467  0.30927  0.69859  1.0000
  H   H291      1.0  0.08768  0.27847  0.67130  1.0000
  H   H292      1.0  0.08678  0.25701  0.63874  1.0000
  H   H293      1.0  0.15513  0.23216  0.68277  1.0000
  H   H294      1.0  0.11997  0.24478  0.69646  1.0000
  H   H295      1.0  0.13774  0.29565  0.69280  1.0000
  H   H296      1.0  0.14497  0.31439  0.65931  1.0000
  H   H297      1.0  0.15807  0.28035  0.61749  1.0000
  H   H298      1.0  0.16828  0.24338  0.63148  1.0000
  H   H299      1.0  0.11266  0.26014  0.59346  1.0000
  H   H300      1.0  0.11766  0.22249  0.60873  1.0000
  H   H301      1.0  0.09791  0.32644  0.64780  1.0000
  H   H302      1.0  0.11185  0.30879  0.61503  1.0000
  H   H303      1.0  0.19387  0.29576  0.65333  1.0000
  H   H304      1.0  0.19033  0.26453  0.67859  1.0000
  H   H305      1.0  0.09516  0.21092  0.65554  1.0000
  H   H306      1.0  0.13303  0.19724  0.64765  1.0000
  C   C173      1.0  0.18171  0.40264  0.51658  1.0000
  H   H307      1.0  0.10603  0.16155  0.68043  1.0000
  H   H308      1.0  0.04346  0.04409  0.64950  1.0000
  H   H309      1.0  0.16726  0.21758  0.58283  1.0000
  H   H310      1.0  0.13615  0.22445  0.55840  1.0000
  H   H311      1.0  0.16138  0.25589  0.56720  1.0000
  H   H312      1.0  0.06076  0.33144  0.60870  1.0000
  C   C174      1.0  0.20817  0.44295  0.93329  1.0000
  H   H313      1.0  0.04620  0.30665  0.63720  1.0000
  H   H314      1.0  0.18622  0.33342  0.69613  1.0000
  H   H315      1.0  0.18728  0.30023  0.72018  1.0000
  H   H316      1.0  0.21969  0.30989  0.69798  1.0000
  C   C175      1.0  0.30709  0.09644  0.80571  1.0000
  H   H317      1.0  0.16052  0.03407  0.79924  1.0000
  H   H318      1.0  0.30967  0.11064  0.87882  1.0000
  H   H319      1.0  0.19100  0.14152  0.93706  1.0000
  H   H320      1.0  0.12213  0.00297  0.90667  1.0000
  H   H321      1.0  0.08560  0.32834  0.54099  1.0000
  H   H322      1.0  0.32827  0.25496  0.75376  1.0000
  C   C176      1.0  0.13192  0.99173  0.67113  1.0000
  H   H323      1.0  0.19767  0.11393  0.89042  1.0000
  C   C177      1.0  0.32417  0.19889  0.63002  1.0000
  C   C178      1.0  0.20752  0.00252  0.75917  1.0000
  H   H324      1.0  0.29642  0.10529  0.71334  1.0000
  C   C179      1.0  0.17608  0.45375  0.94015  1.0000
  C   C180      1.0  0.26492  0.98840  0.80788  1.0000
  H   H325      1.0  0.01367  0.36779  0.69275  1.0000
  C   C181      1.0  0.22857  0.47122  0.74261  1.0000
  H   H326      1.0  0.00386  0.98821  0.63152  1.0000
  H   H327      1.0  0.99936  0.09240  0.89377  1.0000
  C   C182      1.0  0.11766  0.46862  0.65374  1.0000
  C   C183      1.0  0.01230  0.21615  0.64768  1.0000
  H   H328      1.0  0.32332  0.18502  0.79202  1.0000
  C   C184      1.0  0.00481  0.24263  0.66879  1.0000
  C   C185      1.0  0.00247  0.05751  0.92707  1.0000
  C   C186      1.0  0.00722  0.24094  0.76453  1.0000
  C   C187      1.0  0.02135  0.98257  0.73002  1.0000
  H   H329      1.0  0.01595  0.16806  0.47352  1.0000
  C   C188      1.0  0.11165  0.45954  0.95167  1.0000
  N   N9        1.0  0.14500  0.33780  0.46876  1.0000
  S   S48       1.0  0.08928  0.24552  0.45995  1.0000
  H   H330      1.0  0.99972  0.07444  0.63498  1.0000
  H   H331      1.0  0.09915  0.98325  0.88010  1.0000
  C   C189      1.0  0.02830  0.48152  0.71111  1.0000
  H   H332      1.0  0.08896  0.47080  0.95146  1.0000
  H   H333      1.0  0.18695  0.36352  0.46730  1.0000
  Fe  Fe24      1.0  0.16937  0.87494  0.25818  1.0000
  S   S49       1.0  0.14203  0.85661  0.22078  1.0000
  S   S50       1.0  0.16464  0.85180  0.30242  1.0000
  Fe  Fe25      1.0  0.21026  0.91453  0.21762  1.0000
  S   S51       1.0  0.18598  0.89779  0.17766  1.0000
  S   S52       1.0  0.25389  0.94114  0.21037  1.0000
  Fe  Fe26      1.0  0.14386  0.90588  0.20389  1.0000
  S   S53       1.0  0.10465  0.93645  0.18995  1.0000
  Fe  Fe27      1.0  0.18698  0.85043  0.19868  1.0000
  S   S54       1.0  0.20178  0.80633  0.17534  1.0000
  S   S55       1.0  0.16825  0.92497  0.24335  1.0000
  S   S56       1.0  0.21414  0.86672  0.23669  1.0000
  H   H334      1.0  0.27623  0.83906  0.21818  1.0000
  S   S57       1.0  0.06026  0.52776  0.04704  1.0000
  H   H335      1.0  0.25120  0.70971  0.26329  1.0000
  S   S58       1.0  0.22794  0.51003  0.98937  1.0000
  N   N10       1.0  0.00890  0.76420  0.28450  1.0000
  N   N11       1.0  0.00348  0.49016  0.16664  1.0000
  H   H336      1.0  0.17681  0.67386  0.28925  1.0000
  S   S59       1.0  0.04806  0.94407  0.06266  1.0000
  H   H337      1.0  0.18628  0.69223  0.21297  1.0000
  C   C190      1.0  0.14639  0.77388  0.41705  1.0000
  H   H338      1.0  0.14579  0.61895  0.26561  1.0000
  Fe  Fe28      1.0  0.05650  0.54072  0.99993  1.0000
  H   H339      1.0  0.17564  0.59054  0.26846  1.0000
  H   H340      1.0  0.21473  0.72091  0.21647  1.0000
  H   H341      1.0  0.17364  0.74921  0.38472  1.0000
  H   H342      1.0  0.19490  0.95157  0.13054  1.0000
  Fe  Fe29      1.0  0.02773  0.79461  0.39403  1.0000
  S   S60       1.0  0.03377  0.74310  0.38861  1.0000
  S   S61       1.0  0.03533  0.82949  0.35778  1.0000
  C   C191      1.0  0.06060  0.55813  0.15287  1.0000
  Fe  Fe30      1.0  0.04926  0.74466  0.43572  1.0000
  H   H343      1.0  0.07806  0.56952  0.16655  1.0000
  H   H344      1.0  0.15937  0.48975  0.18874  1.0000
  C   C192      1.0  0.19115  0.52529  0.98563  1.0000
  C   C193      1.0  0.16804  0.51487  0.00416  1.0000
  C   C194      1.0  0.13836  0.52602  0.00083  1.0000
  C   C195      1.0  0.13170  0.54779  0.97902  1.0000
  S   S62       1.0  0.09434  0.56001  0.97214  1.0000
  S   S63       1.0  0.01423  0.56828  0.00744  1.0000
  H   H345      1.0  0.30404  0.95223  0.03813  1.0000
  C   C196      1.0  0.15504  0.55893  0.96115  1.0000
  H   H346      1.0  0.24702  0.65872  0.16740  1.0000
  S   S64       1.0  0.00298  0.73546  0.45411  1.0000
  N   N12       1.0  0.20959  0.49698  0.11110  1.0000
  C   C197      1.0  0.23551  0.69226  0.30492  1.0000
  H   H347      1.0  0.22957  0.71581  0.31306  1.0000
  C   C198      1.0  0.19048  0.91539  0.42551  1.0000
  C   C199      1.0  0.05891  0.96574  0.11838  1.0000
  H   H348      1.0  0.13408  0.52158  0.18131  1.0000
  C   C200      1.0  0.18240  0.67162  0.26564  1.0000
  H   H349      1.0  0.22784  0.54357  0.11516  1.0000
  H   H350      1.0  0.00452  0.79257  0.24572  1.0000
  C   C201      1.0  0.23018  0.78441  0.19293  1.0000
  C   C202      1.0  0.24727  0.76261  0.17709  1.0000
  C   C203      1.0  0.27083  0.74599  0.19073  1.0000
  C   C204      1.0  0.27753  0.75146  0.22017  1.0000
  C   C205      1.0  0.26024  0.77293  0.23596  1.0000
  C   C206      1.0  0.23626  0.78874  0.22259  1.0000
  H   H351      1.0  0.24254  0.75890  0.15416  1.0000
  H   H352      1.0  0.28424  0.72960  0.17831  1.0000
  H   H353      1.0  0.26529  0.77729  0.25873  1.0000
  H   H354      1.0  0.22239  0.80413  0.23541  1.0000
  C   C207      1.0  0.12803  0.84442  0.31575  1.0000
  C   C208      1.0  0.10364  0.86344  0.30825  1.0000
  C   C209      1.0  0.07533  0.85867  0.32140  1.0000
  C   C210      1.0  0.07119  0.83472  0.34187  1.0000
  C   C211      1.0  0.09537  0.81515  0.34876  1.0000
  C   C212      1.0  0.12369  0.81997  0.33559  1.0000
  H   H355      1.0  0.10678  0.88237  0.29295  1.0000
  H   H356      1.0  0.05665  0.87381  0.31587  1.0000
  H   H357      1.0  0.09223  0.79647  0.36430  1.0000
  H   H358      1.0  0.14246  0.80490  0.34083  1.0000
  C   C213      1.0  0.06462  0.94250  0.09771  1.0000
  C   C214      1.0  0.08332  0.91732  0.10524  1.0000
  C   C215      1.0  0.09627  0.91535  0.13329  1.0000
  C   C216      1.0  0.08993  0.93822  0.15415  1.0000
  C   C217      1.0  0.31162  0.86171  0.24278  1.0000
  Fe  Fe31      1.0  0.30745  0.61730  0.22691  1.0000
  H   H359      1.0  0.08773  0.89923  0.08936  1.0000
  H   H360      1.0  0.11059  0.89585  0.13894  1.0000
  H   H361      1.0  0.32241  0.63138  0.06797  1.0000
  H   H362      1.0  0.18607  0.96105  0.96835  1.0000
  H   H363      1.0  0.00862  0.90814  0.97925  1.0000
  H   H364      1.0  0.03432  0.50529  0.13298  1.0000
  C   C218      1.0  0.18459  0.54751  0.96423  1.0000
  H   H365      1.0  0.19025  0.92154  0.98074  1.0000
  S   S65       1.0  0.04616  0.79661  0.43967  1.0000
  C   C219      1.0  0.04167  0.81211  0.27054  1.0000
  H   H366      1.0  0.22648  0.87527  0.12874  1.0000
  H   H367      1.0  0.03808  0.83734  0.22922  1.0000
  C   C220      1.0  0.08352  0.72957  0.31692  1.0000
  C   C221      1.0  0.05581  0.82887  0.24444  1.0000
  H   H368      1.0  0.22971  0.69670  0.16657  1.0000
  H   H369      1.0  0.30436  0.87659  0.28760  1.0000
  H   H370      1.0  0.24612  0.85754  0.17621  1.0000
  H   H371      1.0  0.21370  0.51319  0.15573  1.0000
  C   C222      1.0  0.17922  0.81896  0.45808  1.0000
  H   H372      1.0  0.99819  0.80403  0.31188  1.0000
  C   C223      1.0  0.14552  0.93272  0.96442  1.0000
  H   H373      1.0  0.04100  0.77308  0.31918  1.0000
  H   H374      1.0  0.12207  0.77473  0.42277  1.0000
  H   H375      1.0  0.28042  0.89579  0.26136  1.0000
  H   H376      1.0  0.03435  0.92958  0.00195  1.0000
  C   C224      1.0  0.26654  0.49621  0.12422  1.0000
  H   H377      1.0  0.06042  0.80463  0.28498  1.0000
  C   C225      1.0  0.17978  0.93658  0.96380  1.0000
  H   H378      1.0  0.07175  0.54795  0.13331  1.0000
  H   H379      1.0  0.09270  0.75220  0.32451  1.0000
  S   S66       1.0  0.00558  0.58160  0.09230  1.0000
  H   H380      1.0  0.10237  0.71571  0.30758  1.0000
  H   H381      1.0  0.27293  0.66007  0.31150  1.0000
  H   H382      1.0  0.07409  0.71674  0.33592  1.0000
  H   H383      1.0  0.02839  0.71709  0.24432  1.0000
  H   H384      1.0  0.06890  0.84927  0.25224  1.0000
  H   H385      1.0  0.07149  0.81317  0.23251  1.0000
  H   H386      1.0  0.21248  0.49016  0.22126  1.0000
  C   C226      1.0  0.17114  0.95246  0.12308  1.0000
  C   C227      1.0  0.22748  0.53221  0.06851  1.0000
  H   H387      1.0  0.24071  0.83617  0.12585  1.0000
  H   H388      1.0  0.28078  0.87892  0.21040  1.0000
  Fe  Fe32      1.0  0.03285  0.48604  0.03438  1.0000
  H   H389      1.0  0.31318  0.91441  0.19664  1.0000
  H   H390      1.0  0.21080  0.52421  0.05214  1.0000
  C   C228      1.0  0.03282  0.91333  0.98317  1.0000
  H   H391      1.0  0.12395  0.88324  0.45626  1.0000
  H   H392      1.0  0.14129  0.72808  0.39799  1.0000
  H   H393      1.0  0.29941  0.97191  0.00373  1.0000
  H   H394      1.0  0.25295  0.57486  0.07606  1.0000
  H   H395      1.0  0.23234  0.65174  0.21878  1.0000
  H   H396      1.0  0.25545  0.68524  0.21430  1.0000
  H   H397      1.0  0.21398  0.63152  0.26801  1.0000
  C   C229      1.0  0.16612  0.51227  0.14649  1.0000
  H   H398      1.0  0.14525  0.72378  0.25242  1.0000
  C   C230      1.0  0.32163  0.71697  0.45718  1.0000
  S   S67       1.0  0.09123  0.71894  0.45063  1.0000
  H   H399      1.0  0.20676  0.66226  0.17140  1.0000
  H   H400      1.0  0.06599  0.98098  0.16272  1.0000
  H   H401      1.0  0.12056  0.51745  0.01481  1.0000
  H   H402      1.0  0.06380  0.48828  0.09145  1.0000
  H   H403      1.0  0.06220  0.51682  0.17893  1.0000
  H   H404      1.0  0.18404  0.93927  0.07876  1.0000
  C   C231      1.0  0.28787  0.53508  0.21158  1.0000
  H   H405      1.0  0.32169  0.83943  0.25024  1.0000
  C   C232      1.0  0.28626  0.50316  0.20499  1.0000
  H   H406      1.0  0.21525  0.54654  0.23293  1.0000
  H   H407      1.0  0.32889  0.71613  0.35185  1.0000
  C   C233      1.0  0.23267  0.67560  0.20989  1.0000
  C   C234      1.0  0.19126  0.63735  0.25951  1.0000
  H   H408      1.0  0.20285  0.93153  0.44017  1.0000
  H   H409      1.0  0.21002  0.78572  0.43710  1.0000
  H   H410      1.0  0.16452  0.53636  0.13799  1.0000
  C   C235      1.0  0.19283  0.72746  0.26661  1.0000
  C   C236      1.0  0.23349  0.50256  0.21849  1.0000
  C   C237      1.0  0.26261  0.86452  0.15918  1.0000
  C   C238      1.0  0.15770  0.51331  0.17886  1.0000
  C   C239      1.0  0.03219  0.75313  0.30620  1.0000
  H   H411      1.0  0.02760  0.82938  0.28234  1.0000
  C   C240      1.0  0.29101  0.87319  0.26733  1.0000
  C   C241      1.0  0.07116  0.96333  0.14661  1.0000
  H   H412      1.0  0.31374  0.48833  0.13383  1.0000
  S   S68       1.0  0.31197  0.65276  0.19114  1.0000
  H   H413      1.0  0.17452  0.90716  0.10242  1.0000
  C   C242      1.0  0.25911  0.48680  0.20852  1.0000
  C   C243      1.0  0.29118  0.84364  0.16135  1.0000
  H   H414      1.0  0.26249  0.86849  0.11161  1.0000
  H   H415      1.0  0.00484  0.50782  0.21099  1.0000
  S   S69       1.0  0.30881  0.73435  0.23758  1.0000
  H   H416      1.0  0.15659  0.94255  0.14044  1.0000
  C   C244      1.0  0.23522  0.69149  0.27101  1.0000
  C   C245      1.0  0.21123  0.80848  0.44852  1.0000
  C   C246      1.0  0.19830  0.49869  0.14222  1.0000
  H   H417      1.0  0.11124  0.83753  0.42627  1.0000
  C   C247      1.0  0.04461  0.53292  0.17059  1.0000
  H   H418      1.0  0.20378  0.91247  0.40509  1.0000
  C   C248      1.0  0.23509  0.53450  0.22504  1.0000
  H   H419      1.0  0.18634  0.85601  0.40231  1.0000
  H   H420      1.0  0.26692  0.68707  0.34101  1.0000
  N   N13       1.0  0.31186  0.84841  0.18734  1.0000
  N   N14       1.0  0.20485  0.69619  0.25664  1.0000
  H   H421      1.0  0.16059  0.67527  0.25417  1.0000
  S   S70       1.0  0.26342  0.59081  0.23051  1.0000
  H   H422      1.0  0.24582  0.66920  0.26432  1.0000
  H   H423      1.0  0.28210  0.81942  0.16130  1.0000
  C   C249      1.0  0.16849  0.93140  0.09629  1.0000
  H   H424      1.0  0.16829  0.92601  0.42010  1.0000
  S   S71       1.0  0.31747  0.65169  0.26241  1.0000
  H   H425      1.0  0.22165  0.82548  0.43336  1.0000
  C   C250      1.0  0.20832  0.69709  0.22374  1.0000
  Fe  Fe33      1.0  0.32542  0.68600  0.22650  1.0000
  H   H426      1.0  0.17294  0.49767  0.02072  1.0000
  H   H427      1.0  0.26178  0.50412  0.14679  1.0000
  C   C251      1.0  0.26230  0.55082  0.22177  1.0000
  C   C252      1.0  0.26680  0.68449  0.31687  1.0000
  H   H428      1.0  0.19189  0.54207  0.09869  1.0000
  C   C253      1.0  0.18613  0.88407  0.44075  1.0000
  H   H429      1.0  0.19050  0.63274  0.23567  1.0000
  H   H430      1.0  0.27269  0.51687  0.11099  1.0000
  H   H431      1.0  0.07020  0.74711  0.27521  1.0000
  C   C254      1.0  0.02136  0.51526  0.15146  1.0000
  H   H432      1.0  0.24425  0.56691  0.03826  1.0000
  S   S72       1.0  0.03174  0.49763  0.98617  1.0000
  C   C255      1.0  0.32577  0.90623  0.17720  1.0000
  H   H433      1.0  0.04456  0.89129  0.98889  1.0000
  H   H434      1.0  0.30891  0.54748  0.20895  1.0000
  H   H435      1.0  0.15075  0.87252  0.40919  1.0000
  H   H436      1.0  0.14339  0.81586  0.39144  1.0000
  H   H437      1.0  0.05169  0.71146  0.28627  1.0000
  H   H438      1.0  0.21501  0.58087  0.06226  1.0000
  C   C256      1.0  0.16905  0.61485  0.27382  1.0000
  H   H439      1.0  0.21069  0.74553  0.26455  1.0000
  H   H440      1.0  0.04420  0.57616  0.14569  1.0000
  H   H441      1.0  0.13599  0.75944  0.37247  1.0000
  C   C257      1.0  0.32724  0.81772  0.19376  1.0000
  H   H442      1.0  0.08155  0.95355  0.97885  1.0000
  C   C258      1.0  0.23540  0.56584  0.06098  1.0000
  H   H443      1.0  0.24821  0.51807  0.06582  1.0000
  C   C259      1.0  0.21389  0.52964  0.09973  1.0000
  H   H444      1.0  0.14501  0.93146  0.08780  1.0000
  H   H445      1.0  0.03361  0.54451  0.18944  1.0000
  H   H446      1.0  0.26747  0.88946  0.16245  1.0000
  C   C260      1.0  0.00396  0.72214  0.24313  1.0000
  H   H447      1.0  0.16940  0.61752  0.29797  1.0000
  H   H448      1.0  0.17284  0.52940  0.19090  1.0000
  C   C261      1.0  0.24725  0.86083  0.12947  1.0000
  H   H449      1.0  0.18677  0.72676  0.29021  1.0000
  C   C262      1.0  0.29367  0.85715  0.21401  1.0000
  H   H450      1.0  0.28397  0.70043  0.30750  1.0000
  C   C263      1.0  0.22871  0.67329  0.17678  1.0000
  H   H451      1.0  0.27303  0.85586  0.27185  1.0000
  H   H452      1.0  0.30676  0.53576  0.02937  1.0000
  H   H453      1.0  0.30089  0.60966  0.09482  1.0000
  H   H454      1.0  0.20883  0.87525  0.44679  1.0000
  H   H455      1.0  0.31991  0.69119  0.45695  1.0000
  C   C264      1.0  0.32357  0.51703  0.02564  1.0000
  Fe  Fe34      1.0  0.01505  0.55048  0.05340  1.0000
  H   H456      1.0  0.18070  0.80423  0.39879  1.0000
  C   C265      1.0  0.14963  0.75142  0.39136  1.0000
  C   C266      1.0  0.16449  0.74006  0.25039  1.0000
  C   C267      1.0  0.15445  0.77139  0.26306  1.0000
  H   H457      1.0  0.16916  0.74384  0.22681  1.0000
  H   H458      1.0  0.13437  0.78009  0.25103  1.0000
  H   H459      1.0  0.14838  0.76909  0.28652  1.0000
  H   H460      1.0  0.17265  0.78898  0.26081  1.0000
  N   N15       1.0  0.15907  0.83029  0.43378  1.0000
  C   C268      1.0  0.16991  0.86050  0.42032  1.0000
  C   C269      1.0  0.15811  0.80684  0.40918  1.0000
  C   C270      1.0  0.12714  0.83383  0.44488  1.0000
  H   H461      1.0  0.21951  0.67509  0.31419  1.0000
  H   H462      1.0  0.15908  0.76380  0.43561  1.0000
  H   H463      1.0  0.03767  0.76978  0.24627  1.0000
  H   H464      1.0  0.13755  0.93824  0.98690  1.0000
  Fe  Fe35      1.0  0.99860  0.78728  0.45474  1.0000
  H   H465      1.0  0.31041  0.80057  0.20177  1.0000
  C   C271      1.0  0.05930  0.73475  0.29363  1.0000
  H   H466      1.0  0.30404  0.84598  0.14055  1.0000
  H   H467      1.0  0.00012  0.73828  0.22449  1.0000
  H   H468      1.0  0.31828  0.55746  0.07475  1.0000
  H   H469      1.0  0.15543  0.97897  0.17574  1.0000
  C   C272      1.0  0.32342  0.61937  0.08945  1.0000
  H   H470      1.0  0.32978  0.87916  0.23996  1.0000
  C   C273      1.0  0.02264  0.78377  0.26049  1.0000
  H   H471      1.0  0.30156  0.72721  0.44625  1.0000
  H   H472      1.0  0.00614  0.53259  0.14105  1.0000
  H   H473      1.0  0.31166  0.90892  0.15740  1.0000
  C   C274      1.0  0.30605  0.48674  0.02161  1.0000
  C   C275      1.0  0.31604  0.96547  0.02083  1.0000
  H   H474      1.0  0.14898  0.49787  0.13523  1.0000
  H   H475      1.0  0.09105  0.91491  0.96987  1.0000
  H   H476      1.0  0.09187  0.48892  0.13765  1.0000
  H   H477      1.0  0.02166  0.73750  0.32265  1.0000
  H   H478      1.0  0.11975  0.81203  0.45573  1.0000
  H   H479      1.0  0.30615  0.49111  0.19723  1.0000
  H   H480      1.0  0.16666  0.49489  0.08838  1.0000
  C   C276      1.0  0.08040  0.93613  0.96078  1.0000
  H   H481      1.0  0.14061  0.90792  0.96026  1.0000
  H   H482      1.0  0.29063  0.48904  0.00265  1.0000
  H   H483      1.0  0.32933  0.63685  0.10639  1.0000
  H   H484      1.0  0.32961  0.79865  0.14875  1.0000
  H   H485      1.0  0.30882  0.64172  0.63728  1.0000
  H   H486      1.0  0.13303  0.51358  0.92725  1.0000
  Fe  Fe36      1.0  0.27677  0.55590  0.89779  1.0000
  S   S73       1.0  0.30934  0.52035  0.88148  1.0000
  S   S74       1.0  0.26805  0.60023  0.87308  1.0000
  H   H487      1.0  0.21973  0.55370  0.69329  1.0000
  C   C277      1.0  0.10447  0.76339  0.49213  1.0000
  S   S75       1.0  0.26701  0.93362  0.86619  1.0000
  S   S76       1.0  0.23892  0.52206  0.90464  1.0000
  S   S77       1.0  0.01122  0.57967  0.74657  1.0000
  Fe  Fe37      1.0  0.29182  0.78688  0.53868  1.0000
  S   S78       1.0  0.26097  0.74577  0.53232  1.0000
  C   C278      1.0  0.06862  0.77996  0.64251  1.0000
  Fe  Fe38      1.0  0.26709  0.80061  0.60009  1.0000
  S   S79       1.0  0.23520  0.76056  0.59837  1.0000
  S   S80       1.0  0.26895  0.82745  0.64247  1.0000
  Fe  Fe39      1.0  0.27411  0.73429  0.57883  1.0000
  S   S81       1.0  0.28468  0.68716  0.59815  1.0000
  Fe  Fe40      1.0  0.22500  0.77617  0.55262  1.0000
  S   S82       1.0  0.17634  0.78795  0.54125  1.0000
  S   S83       1.0  0.30694  0.77340  0.58372  1.0000
  S   S84       1.0  0.25498  0.81825  0.55558  1.0000
  H   H488      1.0  0.14244  0.81076  0.59262  1.0000
  H   H489      1.0  0.26204  0.54146  0.83738  1.0000
  S   S85       1.0  0.13211  0.92080  0.82194  1.0000
  H   H490      1.0  0.06566  0.73333  0.72513  1.0000
  C   C279      1.0  0.19819  0.56435  0.68588  1.0000
  S   S86       1.0  0.08374  0.79536  0.73881  1.0000
  H   H491      1.0  0.14110  0.56307  0.66545  1.0000
  C   C280      1.0  0.06362  0.71302  0.80418  1.0000
  H   H492      1.0  0.99848  0.56352  0.81028  1.0000
  H   H493      1.0  0.22245  0.78691  0.49022  1.0000
  S   S87       1.0  0.13731  0.86493  0.74866  1.0000
  H   H494      1.0  0.06879  0.75766  0.65502  1.0000
  C   C281      1.0  0.04871  0.77633  0.74298  1.0000
  C   C282      1.0  0.04629  0.74506  0.73441  1.0000
  C   C283      1.0  0.01888  0.79089  0.66838  1.0000
  C   C284      1.0  0.02363  0.79128  0.75513  1.0000
  C   C285      1.0  0.32690  0.59732  0.80450  1.0000
  H   H495      1.0  0.11278  0.87538  0.59049  1.0000
  H   H496      1.0  0.02528  0.81535  0.76187  1.0000
  C   C286      1.0  0.05459  0.97338  0.60522  1.0000
  C   C287      1.0  0.03609  0.66309  0.91515  1.0000
  C   C288      1.0  0.03403  0.52045  0.74918  1.0000
  H   H497      1.0  0.15009  0.57592  0.94436  1.0000
  H   H498      1.0  0.30281  0.76922  0.66863  1.0000
  C   C289      1.0  0.30823  0.48940  0.80348  1.0000
  H   H499      1.0  0.04377  0.52752  0.76978  1.0000
  H   H500      1.0  0.15642  0.76582  0.66364  1.0000
  H   H501      1.0  0.14338  0.73224  0.57314  1.0000
  H   H502      1.0  0.01485  0.89857  0.68178  1.0000
  C   C290      1.0  0.19361  0.90874  0.81815  1.0000
  C   C291      1.0  0.03399  0.70531  0.81965  1.0000
  C   C292      1.0  0.12940  0.82955  0.60332  1.0000
  C   C293      1.0  0.23610  0.84932  0.65001  1.0000
  C   C294      1.0  0.21704  0.85894  0.62740  1.0000
  C   C295      1.0  0.19128  0.87685  0.63366  1.0000
  C   C296      1.0  0.18341  0.88370  0.66264  1.0000
  C   C297      1.0  0.20244  0.87408  0.68529  1.0000
  C   C298      1.0  0.22908  0.85757  0.67891  1.0000
  H   H503      1.0  0.22244  0.85312  0.60502  1.0000
  H   H504      1.0  0.05536  0.77557  0.62238  1.0000
  H   H505      1.0  0.19682  0.87962  0.70769  1.0000
  H   H506      1.0  0.24410  0.85094  0.69643  1.0000
  H   H507      1.0  0.06649  0.73869  0.80304  1.0000
  C   C299      1.0  0.14303  0.72466  0.48337  1.0000
  C   C300      1.0  0.16236  0.73974  0.50329  1.0000
  C   C301      1.0  0.15270  0.76674  0.51758  1.0000
  H   H508      1.0  0.24194  0.90195  0.81592  1.0000
  H   H509      1.0  0.00778  0.56225  0.84886  1.0000
  H   H510      1.0  0.13172  0.89233  0.91550  1.0000
  H   H511      1.0  0.18476  0.73068  0.50733  1.0000
  H   H512      1.0  0.11828  0.70469  0.59054  1.0000
  H   H513      1.0  0.14162  0.58577  0.69752  1.0000
  H   H514      1.0  0.10797  0.50152  0.75076  1.0000
  C   C302      1.0  0.20555  0.94008  0.87061  1.0000
  C   C303      1.0  0.31356  0.59205  0.83207  1.0000
  C   C304      1.0  0.26908  0.66931  0.70310  1.0000
  H   H515      1.0  0.11604  0.79918  0.52311  1.0000
  C   C305      1.0  0.09912  0.81791  0.61592  1.0000
  C   C306      1.0  0.22952  0.92792  0.85442  1.0000
  C   C307      1.0  0.24990  0.78960  0.72685  1.0000
  C   C308      1.0  0.01909  0.72872  0.73815  1.0000
  C   C309      1.0  0.28314  0.62737  0.79007  1.0000
  H   H516      1.0  0.24542  0.79495  0.70349  1.0000
  H   H517      1.0  0.00527  0.78675  0.64841  1.0000
  H   H518      1.0  0.00453  0.69079  0.87287  1.0000
  H   H519      1.0  0.25454  0.79605  0.46761  1.0000
  H   H520      1.0  0.23006  0.77742  0.73626  1.0000
  C   C310      1.0  0.16428  0.80298  0.69369  1.0000
  H   H521      1.0  0.05424  0.65778  0.87214  1.0000
  Fe  Fe41      1.0  0.25794  0.51599  0.94964  1.0000
  H   H522      1.0  0.05525  0.60611  0.65406  1.0000
  C   C311      1.0  0.17160  0.54677  0.69928  1.0000
  C   C312      1.0  0.11265  0.51112  0.69213  1.0000
  H   H523      1.0  0.09938  0.53903  0.89185  1.0000
  C   C313      1.0  0.10962  0.54906  0.73323  1.0000
  C   C314      1.0  0.26639  0.63966  0.68490  1.0000
  H   H524      1.0  0.00520  0.72275  0.54291  1.0000
  H   H525      1.0  0.03360  0.60842  0.80388  1.0000
  C   C315      1.0  0.17590  0.93698  0.86049  1.0000
  C   C316      1.0  0.27051  0.62315  0.81780  1.0000
  H   H526      1.0  0.09349  0.51116  0.64768  1.0000
  H   H527      1.0  0.28693  0.69840  0.66925  1.0000
  C   C317      1.0  0.16981  0.92185  0.83407  1.0000
  S   S88       1.0  0.07054  0.88149  0.77666  1.0000
  H   H528      1.0  0.03291  0.96585  0.59525  1.0000
  C   C318      1.0  0.01683  0.69792  0.63145  1.0000
  Fe  Fe42      1.0  0.12507  0.89735  0.71208  1.0000
  H   H529      1.0  0.27335  0.66213  0.72595  1.0000
  H   H530      1.0  0.16338  0.80284  0.64685  1.0000
  H   H531      1.0  0.14663  0.86288  0.57198  1.0000
  H   H532      1.0  0.06135  0.81030  0.68106  1.0000
  H   H533      1.0  0.11211  0.82095  0.67057  1.0000
  C   C319      1.0  0.12987  0.95486  0.94225  1.0000
  C   C320      1.0  0.24767  0.53163  0.81979  1.0000
  H   H534      1.0  0.03119  0.62571  0.88495  1.0000
  H   H535      1.0  0.24693  0.68134  0.70214  1.0000
  H   H536      1.0  0.01774  0.70453  0.73195  1.0000
  S   S89       1.0  0.29253  0.55377  0.94435  1.0000
  H   H537      1.0  0.28785  0.62624  0.68568  1.0000
  H   H538      1.0  0.05601  0.93410  0.55602  1.0000
  H   H539      1.0  0.11510  0.74141  0.63446  1.0000
  H   H540      1.0  0.06523  0.54685  0.69079  1.0000
  S   S90       1.0  0.10937  0.93582  0.74179  1.0000
  Fe  Fe43      1.0  0.06374  0.91397  0.73867  1.0000
  H   H541      1.0  0.10231  0.77220  0.57432  1.0000
  H   H542      1.0  0.14300  0.83975  0.62114  1.0000
  S   S91       1.0  0.07854  0.87818  0.70580  1.0000
  C   C321      1.0  0.10165  0.75255  0.59000  1.0000
  H   H543      1.0  0.08306  0.70301  0.81629  1.0000
  H   H544      1.0  0.07581  0.59762  0.71784  1.0000
  S   S92       1.0  0.15003  0.90491  0.66956  1.0000
  C   C322      1.0  0.31195  0.53000  0.74174  1.0000
  H   H545      1.0  0.02395  0.66362  0.79520  1.0000
  H   H546      1.0  0.03581  0.71389  0.84241  1.0000
  H   H547      1.0  0.08549  0.87816  0.49482  1.0000
  H   H548      1.0  0.04605  0.82545  0.64764  1.0000
  H   H549      1.0  0.07803  0.74457  0.59240  1.0000
  H   H550      1.0  0.10754  0.78169  0.68158  1.0000
  H   H551      1.0  0.07886  0.92815  0.60518  1.0000
  H   H552      1.0  0.10225  0.96191  0.59864  1.0000
  C   C323      1.0  0.12443  0.85507  0.58054  1.0000
  H   H553      1.0  0.17712  0.88493  0.61599  1.0000
  H   H554      1.0  0.30613  0.96457  0.82040  1.0000
  C   C324      1.0  0.28544  0.60526  0.83881  1.0000
  H   H555      1.0  0.31499  0.67629  0.68777  1.0000
  C   C325      1.0  0.26347  0.53699  0.78983  1.0000
  C   C326      1.0  0.02754  0.66983  0.81865  1.0000
  H   H556      1.0  0.29899  0.49709  0.82473  1.0000
  H   H557      1.0  0.08859  0.55989  0.66164  1.0000
  H   H558      1.0  0.04396  0.91092  0.93783  1.0000
  H   H559      1.0  0.05409  0.79298  0.54356  1.0000
  C   C327      1.0  0.00580  0.70346  0.60022  1.0000
  H   H560      1.0  0.29742  0.78347  0.72107  1.0000
  H   H561      1.0  0.14558  0.51639  0.74774  1.0000
  H   H562      1.0  0.25638  0.72582  0.72499  1.0000
  C   C328      1.0  0.21687  0.54764  0.82195  1.0000
  C   C329      1.0  0.04989  0.80391  0.66042  1.0000
  H   H563      1.0  0.25274  0.55722  0.77860  1.0000
  H   H564      1.0  0.28633  0.54562  0.79501  1.0000
  H   H565      1.0  0.18896  0.92972  0.94213  1.0000
  H   H566      1.0  0.08540  0.55088  0.73933  1.0000
  H   H567      1.0  0.29197  0.70197  0.75420  1.0000
  C   C330      1.0  0.07991  0.59484  0.69405  1.0000
  H   H568      1.0  0.04869  0.65783  0.82499  1.0000
  H   H569      1.0  0.19181  0.92566  0.73965  1.0000
  N   N16       1.0  0.30224  0.71849  0.71037  1.0000
  H   H570      1.0  0.17357  0.52220  0.69218  1.0000
  C   C331      1.0  0.31146  0.61486  0.78339  1.0000
  H   H571      1.0  0.30829  0.56350  0.70603  1.0000
  H   H572      1.0  0.09647  0.93045  0.55435  1.0000
  C   C332      1.0  0.11442  0.50362  0.65897  1.0000
  H   H573      1.0  0.24530  0.50667  0.82508  1.0000
  H   H574      1.0  0.24882  0.63341  0.82288  1.0000
  H   H575      1.0  0.03904  0.68875  0.91558  1.0000
  H   H576      1.0  0.13189  0.97842  0.95231  1.0000
  H   H577      1.0  0.99825  0.68074  0.59136  1.0000
  C   C333      1.0  0.15129  0.79111  0.66488  1.0000
  C   C334      1.0  0.14116  0.56127  0.68972  1.0000
  H   H578      1.0  0.09170  0.49999  0.70060  1.0000
  H   H579      1.0  0.21945  0.57320  0.81929  1.0000
  H   H580      1.0  0.20101  0.53868  0.80525  1.0000
  H   H581      1.0  0.20705  0.54328  0.84390  1.0000
  Fe  Fe44      1.0  0.08951  0.84760  0.74404  1.0000
  H   H582      1.0  0.08973  0.83800  0.62829  1.0000
  H   H583      1.0  0.15764  0.50069  0.89822  1.0000
  H   H584      1.0  0.08316  0.81411  0.59748  1.0000
  H   H585      1.0  0.06360  0.70374  0.78153  1.0000
  C   C335      1.0  0.32184  0.54266  0.71203  1.0000
  H   H586      1.0  0.27095  0.64064  0.77387  1.0000
  C   C336      1.0  0.22347  0.91172  0.82840  1.0000
  Fe  Fe45      1.0  0.11742  0.90162  0.77811  1.0000
  N   N17       1.0  0.10059  0.78942  0.63513  1.0000
  C   C337      1.0  0.11539  0.76218  0.61986  1.0000
  H   H587      1.0  0.18907  0.89668  0.79787  1.0000
  C   C338      1.0  0.04583  0.94617  0.65284  1.0000
  H   H588      1.0  0.03175  0.59345  0.68412  1.0000
  H   H589      1.0  0.24818  0.62479  0.69391  1.0000
  N   N18       1.0  0.09733  0.94812  0.93440  1.0000
  H   H590      1.0  0.13406  0.51512  0.64860  1.0000
  C   C339      1.0  0.04666  0.92794  0.95584  1.0000
  C   C340      1.0  0.30116  0.88802  0.59388  1.0000
  C   C341      1.0  0.09546  0.92610  0.90873  1.0000
  C   C342      1.0  0.10672  0.89246  0.91391  1.0000
  C   C343      1.0  0.01562  0.54126  0.73360  1.0000
  C   C344      1.0  0.04052  0.49074  0.73791  1.0000
  H   H591      1.0  0.13607  0.55228  0.78948  1.0000
  H   H592      1.0  0.28856  0.88605  0.61478  1.0000
  C   C345      1.0  0.09836  0.87129  0.88833  1.0000
  H   H593      1.0  0.20725  0.48635  0.86480  1.0000
  C   C346      1.0  0.13387  0.50542  0.90447  1.0000
  C   C347      1.0  0.02419  0.60343  0.82592  1.0000
  C   C348      1.0  0.27830  0.76963  0.72966  1.0000
  H   H594      1.0  0.00669  0.80784  0.68245  1.0000
  H   H595      1.0  0.02208  0.76667  0.58020  1.0000
  C   C349      1.0  0.07988  0.95124  0.59450  1.0000
  H   H596      1.0  0.13148  0.49840  0.70263  1.0000
  H   H597      1.0  0.07202  0.92520  0.90007  1.0000
  H   H598      1.0  0.10901  0.93489  0.89007  1.0000
  H   H599      1.0  0.09690  0.88206  0.93389  1.0000
  H   H600      1.0  0.26492  0.53853  0.73122  1.0000
  C   C350      1.0  0.11418  0.73672  0.47741  1.0000
  H   H601      1.0  0.02540  0.71155  0.58725  1.0000
  C   C351      1.0  0.31196  0.70601  0.73994  1.0000
  H   H602      1.0  0.20981  0.95150  0.89120  1.0000
  H   H603      1.0  0.04234  0.60746  0.84200  1.0000
  H   H604      1.0  0.99941  0.49485  0.67535  1.0000
  H   H605      1.0  0.23500  0.82677  0.48661  1.0000
  C   C352      1.0  0.27859  0.51933  0.74096  1.0000
  H   H606      1.0  0.03327  0.94906  0.95069  1.0000
  H   H607      1.0  0.07347  0.86990  0.88581  1.0000
  H   H608      1.0  0.10839  0.88005  0.86768  1.0000
  H   H609      1.0  0.10722  0.84747  0.89231  1.0000
  N   N19       1.0  0.05122  0.97701  0.63787  1.0000
  H   H610      1.0  0.31362  0.73444  0.64934  1.0000
  C   C353      1.0  0.05204  0.60719  0.67811  1.0000
  H   H611      1.0  0.06536  0.93024  0.65032  1.0000
  H   H612      1.0  0.32171  0.72488  0.48030  1.0000
  C   C354      1.0  0.12122  0.53194  0.78540  1.0000
  H   H613      1.0  0.10967  0.71979  0.55468  1.0000
  H   H614      1.0  0.12932  0.51216  0.79897  1.0000
  C   C355      1.0  0.03971  0.77300  0.53714  1.0000
  H   H615      1.0  0.26080  0.64545  0.66185  1.0000
  H   H616      1.0  0.05612  0.65220  0.92564  1.0000
  C   C356      1.0  0.11937  0.72565  0.57639  1.0000
  H   H617      1.0  0.16942  0.96005  0.73380  1.0000
  H   H618      1.0  0.19794  0.58914  0.69278  1.0000
  C   C357      1.0  0.11665  0.79650  0.66362  1.0000
  H   H619      1.0  0.09914  0.60989  0.68779  1.0000
  H   H620      1.0  0.13964  0.76672  0.61556  1.0000
  C   C358      1.0  0.01290  0.77033  0.55800  1.0000
  H   H621      1.0  0.02112  0.76879  0.68076  1.0000
  H   H622      1.0  0.26483  0.74346  0.69110  1.0000
  C   C359      1.0  0.08612  0.56032  0.68583  1.0000
  H   H623      1.0  0.09761  0.95846  0.68096  1.0000
  H   H624      1.0  0.17411  0.54827  0.72332  1.0000
  N   N20       1.0  0.11301  0.54516  0.70041  1.0000
  C   C360      1.0  0.07764  0.94573  0.56156  1.0000
  H   H625      1.0  0.15947  0.82816  0.69626  1.0000
  H   H626      1.0  0.11097  0.84609  0.56189  1.0000
  C   C361      1.0  0.27445  0.73852  0.71313  1.0000
  C   C362      1.0  0.32732  0.65605  0.63004  1.0000
  C   C363      1.0  0.12360  0.77828  0.51215  1.0000
  C   C364      1.0  0.12209  0.52269  0.75316  1.0000
  H   H627      1.0  0.18910  0.79958  0.69387  1.0000
  H   H628      1.0  0.09780  0.53768  0.79221  1.0000
  S   S93       1.0  0.02023  0.94162  0.73391  1.0000
  H   H629      1.0  0.23250  0.95848  0.76132  1.0000
  H   H630      1.0  0.19737  0.56312  0.66163  1.0000
  C   C365      1.0  0.32794  0.73549  0.69577  1.0000
  H   H631      1.0  0.15432  0.79024  0.71249  1.0000
  H   H632      1.0  0.15760  0.94682  0.87295  1.0000
  H   H633      1.0  0.05360  0.75147  0.53771  1.0000
  H   H634      1.0  0.15011  0.97614  0.67924  1.0000
  H   H635      1.0  0.11965  0.57150  0.74052  1.0000
  H   H636      1.0  0.02549  0.71980  0.64119  1.0000
  C   C366      1.0  0.12258  0.53210  0.88526  1.0000
  H   H637      1.0  0.99817  0.68891  0.64528  1.0000
  H   H638      1.0  0.04393  0.94989  0.67684  1.0000
  Fe  Fe46      1.0  0.32323  0.51564  0.92850  1.0000
  H   H639      1.0  0.13759  0.55256  0.88808  1.0000
  C   C367      1.0  0.29446  0.69088  0.69132  1.0000
  C   C368      1.0  0.10487  0.97218  0.66165  1.0000
  H   H640      1.0  0.11256  0.95564  0.64474  1.0000
  H   H641      1.0  0.03180  0.77691  0.51440  1.0000
  H   H642      1.0  0.31580  0.54869  0.75793  1.0000
  H   H643      1.0  0.27830  0.50001  0.72488  1.0000
  H   H644      1.0  0.25305  0.81187  0.73877  1.0000
  H   H645      1.0  0.12266  0.52527  0.86185  1.0000
  H   H646      1.0  0.21950  0.51933  0.75445  1.0000
  C   C369      1.0  0.32959  0.86784  0.59517  1.0000
  H   H647      1.0  0.01582  0.71844  0.80833  1.0000
  H   H648      1.0  0.28617  0.88021  0.57589  1.0000
  H   H649      1.0  0.03593  0.88188  0.65167  1.0000
  C   C370      1.0  0.00906  0.50193  0.69602  1.0000
  H   H650      1.0  0.14396  0.95580  0.92213  1.0000
  H   H651      1.0  0.28178  0.76511  0.75327  1.0000
  C   C371      1.0  0.23267  0.49943  0.76351  1.0000
  H   H652      1.0  0.08491  0.83653  0.49031  1.0000
  C   C372      1.0  0.00492  0.66528  0.86873  1.0000
  H   H653      1.0  0.09029  0.48275  0.90131  1.0000
  C   C373      1.0  0.32201  0.68000  0.60991  1.0000
  H   H654      1.0  0.07920  0.96810  0.54947  1.0000
  H   H655      1.0  0.19773  0.95873  0.78203  1.0000
  H   H656      1.0  0.08232  0.77275  0.48782  1.0000
  C   C374      1.0  0.01608  0.56887  0.82681  1.0000
  C   C375      1.0  0.19281  0.95119  0.73599  1.0000
  H   H657      1.0  0.15068  0.70398  0.47209  1.0000
  C   C376      1.0  0.32080  0.75144  0.66613  1.0000
  N   N21       1.0  0.26481  0.50921  0.76964  1.0000
  H   H658      1.0  0.30447  0.97508  0.78232  1.0000
  C   C377      1.0  0.08269  0.97851  0.92554  1.0000
  H   H659      1.0  0.03639  0.55470  0.82172  1.0000
  Fe  Fe47      1.0  0.27263  0.48593  0.89138  1.0000
  H   H660      1.0  0.32815  0.74950  0.76095  1.0000
  H   H661      1.0  0.04799  0.63180  0.68441  1.0000
  H   H662      1.0  0.01582  0.65673  0.92814  1.0000
  C   C378      1.0  0.03318  0.65140  0.88372  1.0000
  H   H663      1.0  0.03525  0.68037  0.63138  1.0000
  N   N22       1.0  0.00107  0.65857  0.83656  1.0000
  H   H664      1.0  0.32300  0.50816  0.79534  1.0000
  Fe  Fe48      1.0  0.27375  0.97743  0.89271  1.0000
  H   H665      1.0  0.32497  0.57808  0.84819  1.0000
  H   H666      1.0  0.32685  0.50994  0.74682  1.0000
  H   H667      1.0  0.01736  0.92411  0.61907  1.0000
  C   C379      1.0  0.08907  0.85896  0.47895  1.0000
  H   H668      1.0  0.05918  0.97460  0.91792  1.0000
  C   C380      1.0  0.01737  0.92798  0.64302  1.0000
  H   H669      1.0  0.13687  0.85852  0.48598  1.0000
  C   C381      1.0  0.00271  0.53173  0.70722  1.0000
  H   H670      1.0  0.32277  0.68281  0.73736  1.0000
  C   C382      1.0  0.01589  0.89605  0.65763  1.0000
  H   H671      1.0  0.31944  0.52466  0.69478  1.0000
  H   H672      1.0  0.00065  0.79291  0.55768  1.0000
  H   H673      1.0  0.25334  0.96611  0.80368  1.0000
  S   S94       1.0  0.32338  0.80559  0.50365  1.0000
  S   S95       1.0  0.32513  0.61924  0.74755  1.0000
  H   H674      1.0  0.30708  0.91287  0.59059  1.0000
  H   H675      1.0  0.16872  0.79904  0.46959  1.0000
  H   H676      1.0  0.20230  0.55609  0.95014  1.0000
  H   H677      1.0  0.22116  0.49265  0.78416  1.0000
  H   H678      1.0  0.20515  0.95558  0.71527  1.0000
  H   H679      1.0  0.32225  0.84348  0.59903  1.0000
  C   C383      1.0  0.20880  0.96671  0.76172  1.0000
  C   C384      1.0  0.23201  0.80435  0.47489  1.0000
  C   C385      1.0  0.12131  0.86028  0.46707  1.0000
  H   H680      1.0  0.18143  0.83671  0.47554  1.0000
  H   H681      1.0  0.31924  0.71082  0.80092  1.0000
  C   C386      1.0  0.28185  0.48187  0.78239  1.0000
  H   H682      1.0  0.15630  0.48184  0.84364  1.0000
  H   H683      1.0  0.17377  0.88835  0.46133  1.0000
  H   H684      1.0  0.07249  0.86165  0.46090  1.0000
  H   H685      1.0  0.37245  0.18754  0.42026  1.0000
  C   C387      1.0  0.66125  0.20520  0.37014  1.0000
  H   H686      1.0  0.60945  0.40194  0.98223  1.0000
  N   N23       1.0  0.36771  0.01393  0.07354  1.0000
  C   C388      1.0  0.41806  0.09864  0.14244  1.0000
  Fe  Fe49      1.0  0.36865  0.13698  0.25225  1.0000
  S   S96       1.0  0.39925  0.13271  0.29196  1.0000
  S   S97       1.0  0.53760  0.26990  0.44636  1.0000
  S   S98       1.0  0.37771  0.17218  0.21744  1.0000
  S   S99       1.0  0.49359  0.02607  0.14036  1.0000
  H   H687      1.0  0.43243  0.16736  0.39253  1.0000
  Fe  Fe50      1.0  0.49410  0.24838  0.43140  1.0000
  Fe  Fe51      1.0  0.51587  0.24133  0.36852  1.0000
  S   S100      1.0  0.50152  0.23140  0.32182  1.0000
  S   S101      1.0  0.49029  0.27907  0.39178  1.0000
  C   C389      1.0  0.63308  0.23064  0.45028  1.0000
  H   H688      1.0  0.60119  0.32014  0.44343  1.0000
  H   H689      1.0  0.47884  0.07703  0.10111  1.0000
  H   H690      1.0  0.41959  0.05133  0.08300  1.0000
  H   H691      1.0  0.52939  0.38449  0.29907  1.0000
  H   H692      1.0  0.43884  0.11759  0.10380  1.0000
  S   S102      1.0  0.50585  0.02423  0.05111  1.0000
  S   S103      1.0  0.54198  0.47367  0.03393  1.0000
  H   H693      1.0  0.41629  0.07672  0.02030  1.0000
  C   C390      1.0  0.41657  0.02545  0.97010  1.0000
  C   C391      1.0  0.42609  0.16171  0.30081  1.0000
  C   C392      1.0  0.44168  0.15982  0.32748  1.0000
  C   C393      1.0  0.46394  0.18186  0.33477  1.0000
  C   C394      1.0  0.47128  0.20558  0.31510  1.0000
  C   C395      1.0  0.45546  0.20772  0.28859  1.0000
  C   C396      1.0  0.43277  0.18609  0.28162  1.0000
  H   H694      1.0  0.43673  0.14100  0.34243  1.0000
  H   H695      1.0  0.47616  0.17981  0.35514  1.0000
  H   H696      1.0  0.46099  0.22599  0.27324  1.0000
  H   H697      1.0  0.42091  0.18798  0.26113  1.0000
  H   H698      1.0  0.34797  0.18348  0.31356  1.0000
  C   C397      1.0  0.46210  0.07620  0.11832  1.0000
  C   C398      1.0  0.64263  0.01422  0.08754  1.0000
  S   S104      1.0  0.39029  0.12799  0.14407  1.0000
  C   C399      1.0  0.44180  0.05202  0.16179  1.0000
  C   C400      1.0  0.46349  0.05278  0.13948  1.0000
  C   C401      1.0  0.62859  0.98851  0.20044  1.0000
  H   H699      1.0  0.44279  0.03396  0.17824  1.0000
  H   H700      1.0  0.40216  0.07367  0.18009  1.0000
  H   H701      1.0  0.39075  0.07731  0.06890  1.0000
  H   H702      1.0  0.56292  0.35401  0.19272  1.0000
  S   S105      1.0  0.56137  0.99660  0.09205  1.0000
  H   H703      1.0  0.42515  0.33584  0.40433  1.0000
  S   S106      1.0  0.60780  0.40457  0.22946  1.0000
  C   C402      1.0  0.40233  0.29181  0.39801  1.0000
  C   C403      1.0  0.34492  0.34194  0.18443  1.0000
  C   C404      1.0  0.38472  0.00120  0.09957  1.0000
  S   S107      1.0  0.59372  0.44028  0.09547  1.0000
  H   H704      1.0  0.40478  0.01270  0.04279  1.0000
  Fe  Fe52      1.0  0.36406  0.13451  0.18615  1.0000
  C   C405      1.0  0.39727  0.22095  0.39333  1.0000
  H   H705      1.0  0.64062  0.33573  0.34257  1.0000
  H   H706      1.0  0.56522  0.39364  0.28270  1.0000
  C   C406      1.0  0.56295  0.40133  0.32878  1.0000
  C   C407      1.0  0.33612  0.39824  0.19332  1.0000
  C   C408      1.0  0.43652  0.00788  0.98741  1.0000
  Fe  Fe53      1.0  0.53639  0.29664  0.40416  1.0000
  S   S108      1.0  0.56184  0.26135  0.37798  1.0000
  S   S109      1.0  0.54971  0.34721  0.40359  1.0000
  Fe  Fe54      1.0  0.55409  0.00802  0.04449  1.0000
  H   H707      1.0  0.63825  0.46988  0.16966  1.0000
  C   C409      1.0  0.41548  0.16810  0.41037  1.0000
  H   H708      1.0  0.38326  0.24456  0.31975  1.0000
  C   C410      1.0  0.60885  0.99122  0.98340  1.0000
  C   C411      1.0  0.61489  0.02015  0.99600  1.0000
  C   C412      1.0  0.38799  0.18736  0.40131  1.0000
  C   C413      1.0  0.35555  0.22928  0.35721  1.0000
  H   H709      1.0  0.44550  0.05203  0.03547  1.0000
  C   C414      1.0  0.64231  0.37716  0.36899  1.0000
  C   C415      1.0  0.62740  0.39449  0.39050  1.0000
  C   C416      1.0  0.59923  0.38485  0.40113  1.0000
  C   C417      1.0  0.58618  0.35715  0.39122  1.0000
  C   C418      1.0  0.60166  0.33905  0.37060  1.0000
  C   C419      1.0  0.62934  0.34937  0.35904  1.0000
  H   H710      1.0  0.63722  0.41594  0.39835  1.0000
  H   H711      1.0  0.58739  0.39903  0.41697  1.0000
  H   H712      1.0  0.59183  0.31772  0.36272  1.0000
  H   H713      1.0  0.61709  0.00970  0.20879  1.0000
  C   C420      1.0  0.59684  0.43000  0.13269  1.0000
  C   C421      1.0  0.62039  0.41023  0.14157  1.0000
  C   C422      1.0  0.62394  0.40220  0.17119  1.0000
  C   C423      1.0  0.60384  0.41378  0.19208  1.0000
  C   C424      1.0  0.57994  0.43302  0.18313  1.0000
  C   C425      1.0  0.57662  0.44140  0.15358  1.0000
  H   H714      1.0  0.64619  0.43033  0.01464  1.0000
  H   H715      1.0  0.35048  0.40281  0.21285  1.0000
  H   H716      1.0  0.61300  0.41692  0.03363  1.0000
  H   H717      1.0  0.34849  0.03961  0.13135  1.0000
  H   H718      1.0  0.62469  0.26901  0.42114  1.0000
  C   C426      1.0  0.38842  0.02970  0.05199  1.0000
  H   H719      1.0  0.59939  0.33683  0.20008  1.0000
  H   H720      1.0  0.36646  0.34420  0.19683  1.0000
  H   H721      1.0  0.66113  0.00883  0.04496  1.0000
  H   H722      1.0  0.39273  0.44753  0.01636  1.0000
  H   H723      1.0  0.55836  0.45658  0.14694  1.0000
  H   H724      1.0  0.39584  0.02003  0.11218  1.0000
  H   H725      1.0  0.42749  0.98668  0.07883  1.0000
  C   C427      1.0  0.64108  0.03629  0.98768  1.0000
  Fe  Fe55      1.0  0.65327  0.39008  0.24759  1.0000
  C   C428      1.0  0.60924  0.18563  0.35556  1.0000
  H   H726      1.0  0.35057  0.26109  0.17612  1.0000
  H   H727      1.0  0.34519  0.45460  0.16459  1.0000
  H   H728      1.0  0.61733  0.47251  0.97082  1.0000
  H   H729      1.0  0.62658  0.23078  0.34601  1.0000
  C   C429      1.0  0.62138  0.43331  0.01672  1.0000
  H   H730      1.0  0.61200  0.47728  0.21950  1.0000
  H   H731      1.0  0.37730  0.17536  0.38254  1.0000
  C   C430      1.0  0.40629  0.05788  0.06356  1.0000
  H   H732      1.0  0.43076  0.31900  0.36875  1.0000
  H   H733      1.0  0.36188  0.29045  0.15026  1.0000
  H   H734      1.0  0.43772  0.98545  0.13139  1.0000
  H   H735      1.0  0.65968  0.46150  0.12299  1.0000
  C   C431      1.0  0.40146  0.46659  0.00345  1.0000
  H   H736      1.0  0.34675  0.39940  0.14581  1.0000
  C   C432      1.0  0.43067  0.47782  0.00896  1.0000
  C   C433      1.0  0.66110  0.02362  0.96688  1.0000
  H   H737      1.0  0.64580  0.05879  0.99724  1.0000
  Fe  Fe56      1.0  0.51223  0.00808  0.09748  1.0000
  H   H738      1.0  0.61638  0.45734  0.02425  1.0000
  H   H739      1.0  0.37096  0.06693  0.11151  1.0000
  N   N24       1.0  0.55409  0.32665  0.28063  1.0000
  C   C434      1.0  0.56440  0.34810  0.30468  1.0000
  C   C435      1.0  0.56547  0.29423  0.28702  1.0000
  C   C436      1.0  0.56615  0.33863  0.25192  1.0000
  C   C437      1.0  0.52010  0.32551  0.27889  1.0000
  C   C438      1.0  0.50329  0.32028  0.30830  1.0000
  H   H740      1.0  0.63143  0.00059  0.10503  1.0000
  C   C439      1.0  0.56238  0.31676  0.22524  1.0000
  C   C440      1.0  0.60023  0.28984  0.28676  1.0000
  C   C441      1.0  0.60852  0.25533  0.28679  1.0000
  C   C442      1.0  0.46994  0.31317  0.30322  1.0000
  C   C443      1.0  0.55415  0.38252  0.30179  1.0000
  C   C444      1.0  0.57493  0.33187  0.19753  1.0000
  H   H741      1.0  0.58946  0.34870  0.30563  1.0000
  H   H742      1.0  0.55709  0.33916  0.32638  1.0000
  H   H743      1.0  0.55795  0.28645  0.30901  1.0000
  H   H744      1.0  0.55522  0.27713  0.27167  1.0000
  H   H745      1.0  0.59045  0.34478  0.25388  1.0000
  H   H746      1.0  0.55487  0.36092  0.24596  1.0000
  H   H747      1.0  0.51089  0.34718  0.26895  1.0000
  H   H748      1.0  0.51298  0.30655  0.26382  1.0000
  H   H749      1.0  0.50468  0.34139  0.32223  1.0000
  H   H750      1.0  0.51291  0.30060  0.32083  1.0000
  H   H751      1.0  0.55127  0.39220  0.34848  1.0000
  H   H752      1.0  0.56416  0.44187  0.19916  1.0000
  H   H753      1.0  0.53822  0.31148  0.22139  1.0000
  H   H754      1.0  0.57471  0.29454  0.22847  1.0000
  H   H755      1.0  0.61098  0.30029  0.26726  1.0000
  H   H756      1.0  0.61027  0.30060  0.30655  1.0000
  H   H757      1.0  0.63333  0.25267  0.28926  1.0000
  H   H758      1.0  0.59697  0.24311  0.30499  1.0000
  H   H759      1.0  0.59097  0.18780  0.33906  1.0000
  H   H760      1.0  0.45874  0.33274  0.29165  1.0000
  H   H761      1.0  0.46740  0.29144  0.29028  1.0000
  H   H762      1.0  0.45862  0.30959  0.32458  1.0000
  C   C445      1.0  0.37457  0.22267  0.32942  1.0000
  S   S110      1.0  0.35827  0.09787  0.22076  1.0000
  H   H763      1.0  0.37551  0.03843  0.03285  1.0000
  H   H764      1.0  0.34149  0.27363  0.40582  1.0000
  C   C446      1.0  0.35061  0.24952  0.40792  1.0000
  H   H765      1.0  0.35117  0.34594  0.16129  1.0000
  S   S111      1.0  0.51735  0.20938  0.40729  1.0000
  C   C447      1.0  0.41396  0.32285  0.38636  1.0000
  H   H766      1.0  0.40822  0.23051  0.41323  1.0000
  H   H767      1.0  0.36107  0.47108  0.97716  1.0000
  S   S112      1.0  0.58997  0.03696  0.02173  1.0000
  N   N25       1.0  0.48591  0.12055  0.22142  1.0000
  C   C448      1.0  0.50934  0.11951  0.24531  1.0000
  C   C449      1.0  0.49836  0.10430  0.19478  1.0000
  C   C450      1.0  0.47851  0.15413  0.21487  1.0000
  C   C451      1.0  0.45726  0.10436  0.23068  1.0000
  C   C452      1.0  0.46096  0.07068  0.24245  1.0000
  C   C453      1.0  0.49923  0.13243  0.27543  1.0000
  C   C454      1.0  0.45822  0.15994  0.18774  1.0000
  C   C455      1.0  0.52648  0.11952  0.18052  1.0000
  C   C456      1.0  0.53560  0.10239  0.15260  1.0000
  C   C457      1.0  0.43044  0.05673  0.25072  1.0000
  C   C458      1.0  0.52421  0.12896  0.29821  1.0000
  C   C459      1.0  0.45165  0.19461  0.18386  1.0000
  H   H768      1.0  0.52943  0.13341  0.23894  1.0000
  H   H769      1.0  0.51791  0.09536  0.24836  1.0000
  H   H770      1.0  0.50504  0.08001  0.20014  1.0000
  H   H771      1.0  0.48061  0.10192  0.17779  1.0000
  H   H772      1.0  0.49945  0.16813  0.21237  1.0000
  H   H773      1.0  0.46651  0.16478  0.23371  1.0000
  H   H774      1.0  0.44502  0.11824  0.24747  1.0000
  H   H775      1.0  0.44128  0.10296  0.21208  1.0000
  H   H776      1.0  0.47529  0.07013  0.26230  1.0000
  H   H777      1.0  0.47118  0.05525  0.22574  1.0000
  H   H778      1.0  0.49399  0.15756  0.27373  1.0000
  H   H779      1.0  0.47905  0.12020  0.28391  1.0000
  H   H780      1.0  0.43628  0.14792  0.19009  1.0000
  H   H781      1.0  0.46911  0.15164  0.16735  1.0000
  H   H782      1.0  0.52223  0.14414  0.17456  1.0000
  H   H783      1.0  0.54606  0.11859  0.19559  1.0000
  H   H784      1.0  0.55641  0.11291  0.14342  1.0000
  H   H785      1.0  0.54011  0.07741  0.15717  1.0000
  H   H786      1.0  0.51748  0.10424  0.13596  1.0000
  H   H787      1.0  0.43369  0.03281  0.25934  1.0000
  H   H788      1.0  0.41931  0.07095  0.26791  1.0000
  H   H789      1.0  0.41545  0.05546  0.23132  1.0000
  H   H790      1.0  0.52991  0.10403  0.30155  1.0000
  H   H791      1.0  0.54473  0.14185  0.29134  1.0000
  H   H792      1.0  0.51640  0.13876  0.31938  1.0000
  S   S113      1.0  0.65602  0.35251  0.28145  1.0000
  H   H793      1.0  0.43641  0.19793  0.16483  1.0000
  H   H794      1.0  0.44030  0.20419  0.20357  1.0000
  H   H795      1.0  0.44025  0.09082  0.04928  1.0000
  H   H796      1.0  0.42199  0.27899  0.40695  1.0000
  C   C460      1.0  0.63559  0.20672  0.34718  1.0000
  C   C461      1.0  0.36568  0.43983  0.16620  1.0000
  H   H797      1.0  0.55627  0.42603  0.32577  1.0000
  H   H798      1.0  0.36956  0.28784  0.36297  1.0000
  H   H799      1.0  0.39505  0.33724  0.37787  1.0000
  H   H800      1.0  0.60172  0.24440  0.26580  1.0000
  Fe  Fe57      1.0  0.56076  0.23350  0.41946  1.0000
  C   C462      1.0  0.65019  0.99360  0.06131  1.0000
  H   H801      1.0  0.40842  0.14389  0.41536  1.0000
  C   C463      1.0  0.43953  0.09919  0.11993  1.0000
  H   H802      1.0  0.40455  0.26825  0.35688  1.0000
  H   H803      1.0  0.58114  0.43048  0.99117  1.0000
  H   H804      1.0  0.57198  0.31595  0.17865  1.0000
  H   H805      1.0  0.41570  0.21968  0.37681  1.0000
  C   C464      1.0  0.63986  0.25924  0.43726  1.0000
  H   H806      1.0  0.45792  0.01759  0.99413  1.0000
  H   H807      1.0  0.42267  0.04884  0.96378  1.0000
  C   C465      1.0  0.35714  0.40539  0.16699  1.0000
  C   C466      1.0  0.38675  0.27258  0.37357  1.0000
  H   H808      1.0  0.47286  0.20763  0.17981  1.0000
  C   C467      1.0  0.41894  0.07465  0.16304  1.0000
  H   H809      1.0  0.38024  0.44447  0.14692  1.0000
  C   C468      1.0  0.38111  0.98274  0.96948  1.0000
  S   S114      1.0  0.45223  0.46129  0.03746  1.0000
  H   H810      1.0  0.33752  0.35362  0.23889  1.0000
  H   H811      1.0  0.61658  0.16092  0.35649  1.0000
  H   H812      1.0  0.64356  0.19949  0.32525  1.0000
  C   C469      1.0  0.34886  0.05511  0.11189  1.0000
  C   C470      1.0  0.38346  0.47995  0.98139  1.0000
  C   C471      1.0  0.60562  0.42680  0.98765  1.0000
  H   H813      1.0  0.62704  0.03309  0.08056  1.0000
  H   H814      1.0  0.38659  0.29714  0.41616  1.0000
  H   H815      1.0  0.65212  0.21588  0.39051  1.0000
  H   H816      1.0  0.58774  0.40041  0.33227  1.0000
  C   C472      1.0  0.35318  0.98673  0.05802  1.0000
  H   H817      1.0  0.62772  0.98854  0.17620  1.0000
  H   H818      1.0  0.59989  0.19248  0.37714  1.0000
  H   H819      1.0  0.39386  0.20718  0.33446  1.0000
  C   C473      1.0  0.34298  0.03585  0.08367  1.0000
  C   C474      1.0  0.42837  0.07004  0.04063  1.0000
  N   N26       1.0  0.37236  0.24237  0.38315  1.0000
  H   H820      1.0  0.64204  0.38683  0.17779  1.0000
  H   H821      1.0  0.63595  0.40112  0.12547  1.0000
  H   H822      1.0  0.37834  0.44635  0.18624  1.0000
  H   H823      1.0  0.56793  0.48161  0.97426  1.0000
  S   S115      1.0  0.60113  0.20889  0.43953  1.0000
  H   H824      1.0  0.38021  0.28783  0.18564  1.0000
  H   H825      1.0  0.63514  0.47948  0.25169  1.0000
  H   H826      1.0  0.37848  0.39191  0.16898  1.0000
  H   H827      1.0  0.33545  0.22113  0.30027  1.0000
  H   H828      1.0  0.33692  0.05233  0.06581  1.0000
  H   H829      1.0  0.51562  0.46235  0.96675  1.0000
  C   C475      1.0  0.35843  0.28553  0.17385  1.0000
  H   H830      1.0  0.42613  0.17811  0.43023  1.0000
  H   H831      1.0  0.36847  0.99029  0.11508  1.0000
  S   S116      1.0  0.51060  0.48015  0.09819  1.0000
  H   H832      1.0  0.36266  0.24922  0.42926  1.0000
  H   H833      1.0  0.64261  0.44265  0.96121  1.0000
  C   C476      1.0  0.61812  0.44807  0.96307  1.0000
  H   H834      1.0  0.66340  0.02504  0.09647  1.0000
  Fe  Fe58      1.0  0.55755  0.47434  0.08077  1.0000
  C   C477      1.0  0.66048  0.47551  0.21126  1.0000
  H   H835      1.0  0.66177  0.44990  0.21416  1.0000
  H   H836      1.0  0.33713  0.24558  0.35073  1.0000
  H   H837      1.0  0.36906  0.20351  0.28579  1.0000
  C   C478      1.0  0.33479  0.30750  0.18678  1.0000
  H   H838      1.0  0.62863  0.98489  0.05209  1.0000
  C   C479      1.0  0.35548  0.20677  0.30595  1.0000
  H   H839      1.0  0.34413  0.20714  0.36289  1.0000
  H   H840      1.0  0.34146  0.00729  0.01512  1.0000
  H   H841      1.0  0.65261  0.98921  0.20736  1.0000
  C   C480      1.0  0.38878  0.01298  0.96116  1.0000
  H   H842      1.0  0.33177  0.30073  0.20998  1.0000
  H   H843      1.0  0.36383  0.00789  0.80160  1.0000
  Fe  Fe59      1.0  0.59744  0.36644  0.68580  1.0000
  Fe  Fe60      1.0  0.40779  0.13622  0.76717  1.0000
  S   S117      1.0  0.40059  0.09201  0.74229  1.0000
  S   S118      1.0  0.38225  0.15007  0.80768  1.0000
  Fe  Fe61      1.0  0.46327  0.15457  0.73145  1.0000
  S   S119      1.0  0.46054  0.11154  0.70366  1.0000
  S   S120      1.0  0.50391  0.18575  0.72645  1.0000
  Fe  Fe62      1.0  0.41062  0.12190  0.70283  1.0000
  S   S121      1.0  0.38322  0.11762  0.66118  1.0000
  Fe  Fe63      1.0  0.45091  0.08583  0.74543  1.0000
  S   S122      1.0  0.47628  0.04511  0.76545  1.0000
  S   S123      1.0  0.41426  0.16676  0.72776  1.0000
  S   S124      1.0  0.45721  0.12830  0.77317  1.0000
  C   C481      1.0  0.47293  0.24173  0.72565  1.0000
  C   C482      1.0  0.50068  0.22655  0.72866  1.0000
  H   H844      1.0  0.45252  0.22829  0.72320  1.0000
  C   C483      1.0  0.47140  0.00471  0.71869  1.0000
  H   H845      1.0  0.45391  0.01993  0.71040  1.0000
  C   C484      1.0  0.36081  0.14916  0.64924  1.0000
  H   H846      1.0  0.36904  0.32736  0.58532  1.0000
  S   S125      1.0  0.61160  0.41112  0.70735  1.0000
  C   C485      1.0  0.59913  0.40738  0.88969  1.0000
  H   H847      1.0  0.47247  0.00577  0.86687  1.0000
  C   C486      1.0  0.52639  0.00750  0.64429  1.0000
  C   C487      1.0  0.61749  0.10415  0.65825  1.0000
  H   H848      1.0  0.36375  0.05949  0.82939  1.0000
  C   C488      1.0  0.56354  0.28707  0.55894  1.0000
  C   C489      1.0  0.50433  0.08005  0.83694  1.0000
  H   H849      1.0  0.38669  0.01889  0.85544  1.0000
  Fe  Fe64      1.0  0.59615  0.38869  0.74912  1.0000
  H   H850      1.0  0.54302  0.00031  0.85660  1.0000
  H   H851      1.0  0.57377  0.29743  0.61723  1.0000
  H   H852      1.0  0.58406  0.06998  0.64842  1.0000
  C   C490      1.0  0.36244  0.30263  0.58251  1.0000
  C   C491      1.0  0.36975  0.28229  0.48870  1.0000
  C   C492      1.0  0.39886  0.23487  0.48195  1.0000
  C   C493      1.0  0.52258  0.26958  0.64545  1.0000
  H   H853      1.0  0.44814  0.04361  0.90156  1.0000
  C   C494      1.0  0.40715  0.07913  0.87129  1.0000
  H   H854      1.0  0.49862  0.09178  0.81602  1.0000
  H   H855      1.0  0.34533  0.46639  0.82567  1.0000
  Fe  Fe65      1.0  0.56273  0.42518  0.70294  1.0000
  H   H856      1.0  0.51701  0.46281  0.74011  1.0000
  H   H857      1.0  0.37966  0.18235  0.67917  1.0000
  C   C495      1.0  0.36345  0.17852  0.66206  1.0000
  S   S126      1.0  0.49634  0.33313  0.72592  1.0000
  H   H858      1.0  0.60473  0.05188  0.93028  1.0000
  N   N27       1.0  0.55405  0.25771  0.63948  1.0000
  H   H859      1.0  0.54902  0.28581  0.53918  1.0000
  H   H860      1.0  0.40974  0.13486  0.92724  1.0000
  S   S127      1.0  0.58607  0.34255  0.72804  1.0000
  S   S128      1.0  0.54827  0.40543  0.74606  1.0000
  C   C496      1.0  0.49826  0.29214  0.72795  1.0000
  C   C497      1.0  0.47174  0.27448  0.72537  1.0000
  C   C498      1.0  0.52702  0.24418  0.73186  1.0000
  C   C499      1.0  0.52585  0.27684  0.73144  1.0000
  H   H861      1.0  0.45028  0.28621  0.72284  1.0000
  H   H862      1.0  0.54850  0.23253  0.73453  1.0000
  H   H863      1.0  0.54631  0.29013  0.73390  1.0000
  H   H864      1.0  0.62999  0.99854  0.76978  1.0000
  H   H865      1.0  0.52614  0.28501  0.58830  1.0000
  H   H866      1.0  0.57020  0.43162  0.83388  1.0000
  C   C500      1.0  0.48574  0.01168  0.74506  1.0000
  S   S129      1.0  0.61951  0.33603  0.65143  1.0000
  H   H867      1.0  0.63051  0.36903  0.88207  1.0000
  H   H868      1.0  0.46439  0.46224  0.88745  1.0000
  H   H869      1.0  0.35522  0.14865  0.52591  1.0000
  S   S130      1.0  0.61960  0.39149  0.79302  1.0000
  H   H870      1.0  0.61069  0.11893  0.63945  1.0000
  H   H871      1.0  0.61214  0.40278  0.61034  1.0000
  H   H872      1.0  0.41246  0.07828  0.91898  1.0000
  H   H873      1.0  0.55991  0.20551  0.67930  1.0000
  C   C501      1.0  0.63457  0.00582  0.85738  1.0000
  H   H874      1.0  0.43725  0.98486  0.86440  1.0000
  H   H875      1.0  0.64721  0.34561  0.75306  1.0000
  H   H876      1.0  0.54584  0.46419  0.84230  1.0000
  H   H877      1.0  0.57456  0.41123  0.88685  1.0000
  C   C502      1.0  0.55253  0.22304  0.63432  1.0000
  H   H878      1.0  0.55885  0.45068  0.91402  1.0000
  H   H879      1.0  0.38303  0.07302  0.87530  1.0000
  H   H880      1.0  0.56811  0.31191  0.56371  1.0000
  H   H881      1.0  0.33778  0.12215  0.61644  1.0000
  N   N28       1.0  0.57476  0.04427  0.70757  1.0000
  C   C503      1.0  0.55075  0.06576  0.71959  1.0000
  H   H882      1.0  0.41615  0.01348  0.82962  1.0000
  C   C504      1.0  0.58786  0.02659  0.73318  1.0000
  C   C505      1.0  0.60002  0.06189  0.69300  1.0000
  C   C506      1.0  0.60598  0.37401  0.88021  1.0000
  C   C507      1.0  0.56176  0.09167  0.74067  1.0000
  C   C508      1.0  0.50838  0.99176  0.75563  1.0000
  H   H883      1.0  0.53571  0.21772  0.61700  1.0000
  H   H884      1.0  0.54880  0.03287  0.89461  1.0000
  H   H885      1.0  0.41116  0.24360  0.77178  1.0000
  C   C509      1.0  0.53542  0.11185  0.75081  1.0000
  C   C510      1.0  0.47651  0.07821  0.85665  1.0000
  H   H886      1.0  0.53329  0.05190  0.73123  1.0000
  H   H887      1.0  0.53830  0.07784  0.70191  1.0000
  C   C511      1.0  0.36563  0.22584  0.76671  1.0000
  C   C512      1.0  0.59492  0.32661  0.46614  1.0000
  H   H888      1.0  0.56939  0.01526  0.74587  1.0000
  H   H889      1.0  0.59942  0.04255  0.74861  1.0000
  H   H890      1.0  0.61298  0.07547  0.70947  1.0000
  C   C513      1.0  0.61155  0.00115  0.72567  1.0000
  H   H891      1.0  0.57226  0.09977  0.67397  1.0000
  H   H892      1.0  0.64819  0.19581  0.48087  1.0000
  H   H893      1.0  0.57227  0.08187  0.76061  1.0000
  H   H894      1.0  0.57818  0.10721  0.72966  1.0000
  H   H895      1.0  0.59429  0.45988  0.79458  1.0000
  H   H896      1.0  0.58501  0.27476  0.55407  1.0000
  C   C514      1.0  0.36911  0.15163  0.54592  1.0000
  C   C515      1.0  0.37463  0.02944  0.79335  1.0000
  C   C516      1.0  0.61565  0.46984  0.91372  1.0000
  H   H897      1.0  0.51360  0.03428  0.68189  1.0000
  H   H898      1.0  0.35827  0.04217  0.77936  1.0000
  C   C517      1.0  0.55898  0.48038  0.95171  1.0000
  H   H899      1.0  0.64793  0.98688  0.86749  1.0000
  H   H900      1.0  0.54376  0.13126  0.76464  1.0000
  H   H901      1.0  0.52343  0.12194  0.73176  1.0000
  H   H902      1.0  0.51931  0.09783  0.76386  1.0000
  H   H903      1.0  0.34696  0.22568  0.66306  1.0000
  C   C518      1.0  0.59090  0.08390  0.66773  1.0000
  C   C519      1.0  0.53388  0.03149  0.66786  1.0000
  H   H904      1.0  0.52963  0.31327  0.66933  1.0000
  H   H905      1.0  0.63906  0.25870  0.56388  1.0000
  S   S131      1.0  0.54998  0.38239  0.67760  1.0000
  C   C520      1.0  0.60867  0.41295  0.92192  1.0000
  H   H906      1.0  0.55841  0.43004  0.94736  1.0000
  H   H907      1.0  0.41337  0.02402  0.89883  1.0000
  H   H908      1.0  0.36084  0.22968  0.79025  1.0000
  C   C521      1.0  0.39048  0.28197  0.58285  1.0000
  H   H909      1.0  0.60657  0.22675  0.66193  1.0000
  N   N29       1.0  0.42430  0.05084  0.86047  1.0000
  C   C522      1.0  0.58004  0.05056  0.92624  1.0000
  H   H910      1.0  0.63882  0.28763  0.51831  1.0000
  C   C523      1.0  0.56105  0.02074  0.68677  1.0000
  H   H911      1.0  0.57730  0.34501  0.46519  1.0000
  C   C524      1.0  0.66089  0.26612  0.55427  1.0000
  C   C525      1.0  0.56927  0.45009  0.93611  1.0000
  C   C526      1.0  0.42115  0.28430  0.46923  1.0000
  C   C527      1.0  0.33381  0.11153  0.79722  1.0000
  H   H912      1.0  0.37681  0.12070  0.90851  1.0000
  H   H913      1.0  0.44226  0.09855  0.90087  1.0000
  C   C528      1.0  0.45079  0.06003  0.84159  1.0000
  C   C529      1.0  0.39098  0.24806  0.75798  1.0000
  H   H914      1.0  0.64882  0.37929  0.57493  1.0000
  H   H915      1.0  0.60252  0.47109  0.89302  1.0000
  C   C530      1.0  0.51924  0.30539  0.64853  1.0000
  H   H916      1.0  0.57110  0.07463  0.92439  1.0000
  H   H917      1.0  0.46073  0.03916  0.83082  1.0000
  H   H918      1.0  0.63244  0.01178  0.71681  1.0000
  H   H919      1.0  0.40686  0.09761  0.85417  1.0000
  H   H920      1.0  0.47355  0.99638  0.92072  1.0000
  Fe  Fe66      1.0  0.53943  0.36114  0.72123  1.0000
  C   C531      1.0  0.35094  0.12757  0.81795  1.0000
  N   N30       1.0  0.60294  0.44522  0.93370  1.0000
  H   H921      1.0  0.52229  0.09368  0.84797  1.0000
  H   H922      1.0  0.53008  0.31822  0.63037  1.0000
  H   H923      1.0  0.36315  0.24188  0.59440  1.0000
  N   N31       1.0  0.64053  0.35254  0.53543  1.0000
  C   C532      1.0  0.62297  0.25993  0.69292  1.0000
  C   C533      1.0  0.61472  0.34851  0.51406  1.0000
  C   C534      1.0  0.63171  0.37743  0.55727  1.0000
  C   C535      1.0  0.64632  0.32296  0.55221  1.0000
  H   H924      1.0  0.40583  0.14163  0.88852  1.0000
  H   H925      1.0  0.65724  0.39108  0.64402  1.0000
  C   C536      1.0  0.60114  0.37272  0.57341  1.0000
  C   C537      1.0  0.62274  0.33817  0.48239  1.0000
  H   H926      1.0  0.53796  0.05399  0.65688  1.0000
  S   S132      1.0  0.33600  0.30196  0.49807  1.0000
  C   C538      1.0  0.54246  0.16838  0.65316  1.0000
  H   H927      1.0  0.58442  0.04527  0.87982  1.0000
  H   H928      1.0  0.59784  0.33193  0.52302  1.0000
  H   H929      1.0  0.60229  0.37089  0.51109  1.0000
  S   S133      1.0  0.45656  0.23157  0.46142  1.0000
  H   H930      1.0  0.40041  0.20978  0.48312  1.0000
  C   C539      1.0  0.42341  0.25192  0.47115  1.0000
  H   H931      1.0  0.62574  0.31562  0.56410  1.0000
  H   H932      1.0  0.50570  0.01475  0.63240  1.0000
  H   H933      1.0  0.35497  0.14008  0.86326  1.0000
  H   H934      1.0  0.65686  0.99765  0.81565  1.0000
  H   H935      1.0  0.34071  0.11155  0.77458  1.0000
  H   H936      1.0  0.60180  0.35167  0.58740  1.0000
  H   H937      1.0  0.58206  0.37053  0.55789  1.0000
  H   H938      1.0  0.57135  0.98757  0.91791  1.0000
  C   C540      1.0  0.57358  0.26533  0.66544  1.0000
  C   C541      1.0  0.57360  0.03257  0.89809  1.0000
  C   C542      1.0  0.65200  0.01732  0.83068  1.0000
  H   H939      1.0  0.62469  0.11960  0.67642  1.0000
  N   N32       1.0  0.40715  0.22385  0.58284  1.0000
  C   C543      1.0  0.41899  0.22614  0.61375  1.0000
  C   C544      1.0  0.38198  0.24729  0.57903  1.0000
  C   C545      1.0  0.39373  0.19178  0.57912  1.0000
  C   C546      1.0  0.43122  0.22832  0.55977  1.0000
  C   C547      1.0  0.45757  0.25078  0.56703  1.0000
  C   C548      1.0  0.43990  0.19922  0.62388  1.0000
  C   C549      1.0  0.37543  0.18618  0.55075  1.0000
  H   H940      1.0  0.37210  0.24587  0.55672  1.0000
  H   H941      1.0  0.57438  0.21408  0.62570  1.0000
  C   C550      1.0  0.47518  0.25922  0.53940  1.0000
  C   C551      1.0  0.45361  0.20606  0.65386  1.0000
  H   H942      1.0  0.39975  0.22689  0.62943  1.0000
  H   H943      1.0  0.43118  0.24826  0.61745  1.0000
  H   H944      1.0  0.65533  0.44330  0.89738  1.0000
  C   C552      1.0  0.65641  0.29431  0.53431  1.0000
  H   H945      1.0  0.37860  0.18633  0.59774  1.0000
  H   H946      1.0  0.41177  0.17372  0.57959  1.0000
  H   H947      1.0  0.44209  0.20575  0.55393  1.0000
  H   H948      1.0  0.42064  0.23640  0.53905  1.0000
  H   H949      1.0  0.47346  0.23951  0.58253  1.0000
  H   H950      1.0  0.44985  0.27272  0.57716  1.0000
  H   H951      1.0  0.42684  0.17730  0.62625  1.0000
  H   H952      1.0  0.45836  0.19517  0.60794  1.0000
  H   H953      1.0  0.38777  0.19496  0.53143  1.0000
  H   H954      1.0  0.53600  0.15467  0.67278  1.0000
  H   H955      1.0  0.40224  0.28637  0.60379  1.0000
  H   H956      1.0  0.54194  0.24780  0.57854  1.0000
  H   H957      1.0  0.47380  0.30259  0.66679  1.0000
  C   C553      1.0  0.43371  0.03071  0.88597  1.0000
  C   C554      1.0  0.59420  0.40019  0.59357  1.0000
  H   H958      1.0  0.48462  0.23801  0.52888  1.0000
  H   H959      1.0  0.46028  0.27133  0.52350  1.0000
  H   H960      1.0  0.43551  0.20898  0.67045  1.0000
  H   H961      1.0  0.46814  0.18630  0.66079  1.0000
  H   H962      1.0  0.46746  0.22750  0.65322  1.0000
  H   H963      1.0  0.63346  0.02537  0.87318  1.0000
  C   C555      1.0  0.34210  0.12719  0.84731  1.0000
  C   C556      1.0  0.45105  0.00041  0.87836  1.0000
  C   C557      1.0  0.54749  0.27204  0.58485  1.0000
  C   C558      1.0  0.58520  0.99859  0.90051  1.0000
  H   H964      1.0  0.61135  0.42304  0.87452  1.0000
  H   H965      1.0  0.50662  0.26126  0.62841  1.0000
  H   H966      1.0  0.47509  0.30973  0.62779  1.0000
  H   H967      1.0  0.63208  0.35822  0.47000  1.0000
  C   C559      1.0  0.37228  0.24996  0.49101  1.0000
  C   C560      1.0  0.38442  0.05020  0.81872  1.0000
  H   H968      1.0  0.35359  0.23651  0.49926  1.0000
  H   H969      1.0  0.57549  0.29097  0.66815  1.0000
  H   H970      1.0  0.63967  0.31931  0.48170  1.0000
  C   C561      1.0  0.40148  0.12472  0.90641  1.0000
  H   H971      1.0  0.44329  0.07483  0.82303  1.0000
  C   C562      1.0  0.62041  0.98282  0.75299  1.0000
  H   H972      1.0  0.51386  0.25982  0.66633  1.0000
  C   C563      1.0  0.48601  0.31494  0.64907  1.0000
  H   H973      1.0  0.66062  0.31682  0.72723  1.0000
  S   S134      1.0  0.55137  0.47369  0.68685  1.0000
  H   H974      1.0  0.39747  0.24443  0.73477  1.0000
  H   H975      1.0  0.61673  0.04542  0.68345  1.0000
  H   H976      1.0  0.42425  0.46743  0.89181  1.0000
  H   H977      1.0  0.46905  0.10247  0.86087  1.0000
  C   C564      1.0  0.41776  0.09403  0.90047  1.0000
  C   C565      1.0  0.40328  0.03175  0.84161  1.0000
  H   H978      1.0  0.39682  0.07021  0.80938  1.0000
  H   H979      1.0  0.59320  0.35714  0.89379  1.0000
  C   C566      1.0  0.39433  0.29939  0.47784  1.0000
  H   H980      1.0  0.63910  0.03562  0.81893  1.0000
  H   H981      1.0  0.35328  0.19815  0.55219  1.0000
  C   C567      1.0  0.64966  0.46664  0.90610  1.0000
  H   H982      1.0  0.34682  0.29617  0.60052  1.0000
  C   C568      1.0  0.56748  0.27280  0.61270  1.0000
  H   H983      1.0  0.66305  0.29226  0.63105  1.0000
  H   H984      1.0  0.59224  0.42212  0.58086  1.0000
  C   C569      1.0  0.33996  0.14484  0.62647  1.0000
  S   S135      1.0  0.36450  0.03595  0.93952  1.0000
  H   H985      1.0  0.39052  0.13851  0.54303  1.0000
  H   H986      1.0  0.39257  0.32443  0.47602  1.0000
  H   H987      1.0  0.49394  0.27516  0.54489  1.0000
  H   H988      1.0  0.40487  0.28958  0.56432  1.0000
  H   H989      1.0  0.38388  0.27264  0.76113  1.0000
  H   H990      1.0  0.48423  0.34035  0.65328  1.0000
  C   C570      1.0  0.65675  0.34126  0.63913  1.0000
  C   C571      1.0  0.60623  0.25237  0.66460  1.0000
  H   H991      1.0  0.33459  0.11754  0.72032  1.0000
  H   H992      1.0  0.51319  0.05639  0.83212  1.0000
  C   C572      1.0  0.60245  0.99465  0.84877  1.0000
  H   H993      1.0  0.37425  0.20187  0.76432  1.0000
  H   H994      1.0  0.58565  0.30564  0.47708  1.0000
  H   H995      1.0  0.59020  0.01494  0.83937  1.0000
  H   H996      1.0  0.61169  0.24871  0.71188  1.0000
  H   H997      1.0  0.56282  0.25728  0.68591  1.0000
  H   H998      1.0  0.48368  0.06720  0.87739  1.0000
  H   H999      1.0  0.52095  0.20956  0.66912  1.0000
  H   H1000     1.0  0.57865  0.01125  0.67181  1.0000
  H   H1001     1.0  0.60281  0.98439  0.70938  1.0000
  H   H1002     1.0  0.59639  0.39540  0.93527  1.0000
  C   C573      1.0  0.54360  0.20291  0.66109  1.0000
  H   H1003     1.0  0.57249  0.39609  0.60510  1.0000
  H   H1004     1.0  0.55243  0.00014  0.69903  1.0000
  H   H1005     1.0  0.58919  0.26133  0.60685  1.0000
  H   H1006     1.0  0.56489  0.16018  0.64552  1.0000
  H   H1007     1.0  0.34451  0.23306  0.72475  1.0000
  H   H1008     1.0  0.52536  0.16416  0.63587  1.0000
  H   H1009     1.0  0.61903  0.26293  0.64631  1.0000
  H   H1010     1.0  0.39451  0.02301  0.77980  1.0000
  H   H1011     1.0  0.63292  0.40654  0.92418  1.0000
  H   H1012     1.0  0.54522  0.00554  0.62836  1.0000
  H   H1013     1.0  0.51971  0.99723  0.77589  1.0000
  C   C574      1.0  0.44641  0.47948  0.89243  1.0000
  H   H1014     1.0  0.59926  0.37081  0.85700  1.0000
  H   H1015     1.0  0.62364  0.28547  0.69654  1.0000
  C   C575      1.0  0.33689  0.23137  0.74790  1.0000
  H   H1016     1.0  0.35056  0.30039  0.56127  1.0000
  H   H1017     1.0  0.63092  0.40063  0.54634  1.0000
  C   C576      1.0  0.34497  0.20313  0.65275  1.0000
  C   C577      1.0  0.64919  0.41812  0.79845  1.0000
  C   C578      1.0  0.65315  0.21808  0.47094  1.0000
  C   C579      1.0  0.45896  0.98227  0.90610  1.0000
  C   C580      1.0  0.58145  0.47395  0.81059  1.0000
  H   H1018     1.0  0.35647  0.14180  0.56472  1.0000
  H   H1019     1.0  0.34253  0.16789  0.74784  1.0000
  H   H1020     1.0  0.63687  0.08943  0.65135  1.0000
  H   H1021     1.0  0.56909  0.03913  0.94528  1.0000
  H   H1022     1.0  0.66343  0.32708  0.56948  1.0000
  H   H1023     1.0  0.33901  0.45291  0.78882  1.0000
  H   H1024     1.0  0.54215  0.44356  0.80790  1.0000
  H   H1025     1.0  0.64788  0.43711  0.75498  1.0000
  H   H1026     1.0  0.44003  0.29770  0.46111  1.0000
  H   H1027     1.0  0.60853  0.99902  0.90942  1.0000
  C   C581      1.0  0.55837  0.45215  0.82456  1.0000
  H   H1028     1.0  0.66312  0.38559  0.50762  1.0000
  H   H1029     1.0  0.64653  0.25123  0.69156  1.0000
  H   H1030     1.0  0.65634  0.40400  0.84310  1.0000
  C   C582      1.0  0.65480  0.99483  0.95410  1.0000
  C   C583      1.0  0.65882  0.43783  0.77604  1.0000
  H   H1031     1.0  0.66375  0.47089  0.92575  1.0000
  H   H1032     1.0  0.66410  0.31015  0.76603  1.0000
  C   C584      1.0  0.66349  0.41941  0.82578  1.0000
  H   H1033     1.0  0.33154  0.18332  0.71382  1.0000
  H   H1034     1.0  0.52226  0.98429  0.65420  1.0000
  H   H1035     1.0  0.37448  0.72542  0.30203  1.0000
  H   H1036     1.0  0.52446  0.69817  0.29811  1.0000
  H   H1037     1.0  0.43057  0.63930  0.43697  1.0000
  C   C585      1.0  0.42667  0.59130  0.16612  1.0000
  C   C586      1.0  0.46143  0.64770  0.22221  1.0000
  Fe  Fe67      1.0  0.36601  0.63864  0.25679  1.0000
  S   S136      1.0  0.39454  0.63185  0.29753  1.0000
  H   H1038     1.0  0.45459  0.70496  0.16803  1.0000
  S   S137      1.0  0.37489  0.67515  0.22291  1.0000
  H   H1039     1.0  0.34807  0.58323  0.11122  1.0000
  C   C587      1.0  0.40455  0.67557  0.41556  1.0000
  H   H1040     1.0  0.34477  0.95217  0.17050  1.0000
  Fe  Fe68      1.0  0.50382  0.74387  0.38497  1.0000
  S   S138      1.0  0.48659  0.73600  0.33889  1.0000
  S   S139      1.0  0.48399  0.78481  0.40895  1.0000
  S   S140      1.0  0.38328  0.63251  0.14663  1.0000
  H   H1041     1.0  0.54727  0.60742  0.24548  1.0000
  S   S141      1.0  0.56800  0.52541  0.08099  1.0000
  H   H1042     1.0  0.36753  0.92708  0.19306  1.0000
  H   H1043     1.0  0.64502  0.72477  0.35176  1.0000
  S   S142      1.0  0.50399  0.71265  0.42428  1.0000
  H   H1044     1.0  0.48701  0.59946  0.27645  1.0000
  H   H1045     1.0  0.58041  0.92850  0.25975  1.0000
  H   H1046     1.0  0.48458  0.65940  0.18113  1.0000
  H   H1047     1.0  0.49696  0.91363  0.13521  1.0000
  C   C588      1.0  0.41949  0.66128  0.30938  1.0000
  C   C589      1.0  0.43498  0.65772  0.33597  1.0000
  C   C590      1.0  0.45547  0.68057  0.34556  1.0000
  C   C591      1.0  0.46071  0.70697  0.32845  1.0000
  C   C592      1.0  0.44556  0.71025  0.30172  1.0000
  C   C593      1.0  0.42497  0.68759  0.29228  1.0000
  H   H1048     1.0  0.43120  0.63717  0.34913  1.0000
  H   H1049     1.0  0.46758  0.67756  0.36587  1.0000
  H   H1050     1.0  0.44965  0.73056  0.28831  1.0000
  H   H1051     1.0  0.41328  0.69063  0.27180  1.0000
  C   C594      1.0  0.43218  0.61013  0.11661  1.0000
  N   N33       1.0  0.37967  0.72489  0.39306  1.0000
  C   C595      1.0  0.40849  0.77192  0.37115  1.0000
  C   C596      1.0  0.40693  0.71064  0.40776  1.0000
  H   H1052     1.0  0.43080  0.81497  0.35934  1.0000
  H   H1053     1.0  0.51441  0.92620  0.30922  1.0000
  H   H1054     1.0  0.46214  0.56071  0.18106  1.0000
  H   H1055     1.0  0.42545  0.54397  0.26242  1.0000
  C   C597      1.0  0.50288  0.65767  0.25616  1.0000
  H   H1056     1.0  0.42876  0.57340  0.29022  1.0000
  H   H1057     1.0  0.55698  0.67811  0.28330  1.0000
  S   S143      1.0  0.60301  0.87222  0.28595  1.0000
  C   C598      1.0  0.65689  0.93277  0.02763  1.0000
  H   H1058     1.0  0.48536  0.90266  0.17132  1.0000
  H   H1059     1.0  0.43433  0.70341  0.20214  1.0000
  C   C599      1.0  0.52986  0.92435  0.16868  1.0000
  H   H1060     1.0  0.42277  0.79756  0.45642  1.0000
  S   S144      1.0  0.56466  0.90392  0.09816  1.0000
  H   H1061     1.0  0.64188  0.53324  0.07934  1.0000
  H   H1062     1.0  0.61859  0.51542  0.02643  1.0000
  H   H1063     1.0  0.38992  0.76840  0.41451  1.0000
  Fe  Fe69      1.0  0.36086  0.63828  0.19076  1.0000
  S   S145      1.0  0.50653  0.55868  0.13578  1.0000
  H   H1064     1.0  0.41400  0.59013  0.18626  1.0000
  C   C600      1.0  0.35105  0.71762  0.40952  1.0000
  H   H1065     1.0  0.43749  0.67785  0.45098  1.0000
  Fe  Fe70      1.0  0.53234  0.79729  0.41780  1.0000
  S   S146      1.0  0.55217  0.75846  0.39137  1.0000
  S   S147      1.0  0.55224  0.84533  0.41300  1.0000
  C   C601      1.0  0.41612  0.60962  0.14305  1.0000
  H   H1066     1.0  0.52631  0.90337  0.26139  1.0000
  C   C602      1.0  0.54702  0.57453  0.21036  1.0000
  H   H1067     1.0  0.40631  0.49701  0.12930  1.0000
  C   C603      1.0  0.62737  0.52289  0.00552  1.0000
  C   C604      1.0  0.60893  0.53975  0.98647  1.0000
  S   S148      1.0  0.50189  0.53654  0.04953  1.0000
  H   H1068     1.0  0.65798  0.84730  0.43928  1.0000
  H   H1069     1.0  0.39761  0.48886  0.07609  1.0000
  C   C605      1.0  0.59068  0.86390  0.32169  1.0000
  C   C606      1.0  0.56870  0.84089  0.32583  1.0000
  C   C607      1.0  0.55685  0.83508  0.35376  1.0000
  C   C608      1.0  0.56584  0.85326  0.37754  1.0000
  C   C609      1.0  0.58689  0.87720  0.37317  1.0000
  C   C610      1.0  0.59986  0.88202  0.34546  1.0000
  H   H1070     1.0  0.56079  0.82744  0.30739  1.0000
  H   H1071     1.0  0.54021  0.81698  0.35674  1.0000
  H   H1072     1.0  0.59364  0.89161  0.39141  1.0000
  C   C611      1.0  0.63736  0.82187  0.40323  1.0000
  C   C612      1.0  0.59685  0.90427  0.12079  1.0000
  C   C613      1.0  0.60656  0.87652  0.13396  1.0000
  C   C614      1.0  0.63278  0.87596  0.15130  1.0000
  H   H1073     1.0  0.65395  0.75391  0.31422  1.0000
  C   C615      1.0  0.64003  0.93076  0.14184  1.0000
  C   C616      1.0  0.61336  0.93150  0.12524  1.0000
  H   H1074     1.0  0.59393  0.85532  0.13051  1.0000
  H   H1075     1.0  0.34762  0.86593  0.15972  1.0000
  H   H1076     1.0  0.52002  0.57626  0.24892  1.0000
  H   H1077     1.0  0.65095  0.71899  0.26357  1.0000
  N   N34       1.0  0.36289  0.54347  0.05989  1.0000
  C   C617      1.0  0.38102  0.53623  0.08706  1.0000
  H   H1078     1.0  0.34402  0.82024  0.21165  1.0000
  H   H1079     1.0  0.53115  0.55885  0.19868  1.0000
  C   C618      1.0  0.38281  0.55286  0.03468  1.0000
  C   C619      1.0  0.40325  0.58149  0.03971  1.0000
  C   C620      1.0  0.64676  0.77851  0.31345  1.0000
  H   H1080     1.0  0.39494  0.94185  0.99339  1.0000
  H   H1081     1.0  0.65346  0.95160  0.14413  1.0000
  H   H1082     1.0  0.44182  0.56566  0.01418  1.0000
  C   C621      1.0  0.42571  0.58548  0.01465  1.0000
  H   H1083     1.0  0.63553  0.70067  0.39955  1.0000
  H   H1084     1.0  0.66411  0.72153  0.22635  1.0000
  H   H1085     1.0  0.64220  0.89165  0.05216  1.0000
  H   H1086     1.0  0.39219  0.55731  0.09587  1.0000
  H   H1087     1.0  0.37064  0.97181  0.04745  1.0000
  C   C622      1.0  0.62797  0.74896  0.45718  1.0000
  H   H1088     1.0  0.46450  0.51085  0.99592  1.0000
  H   H1089     1.0  0.44040  0.48792  0.10949  1.0000
  H   H1090     1.0  0.39727  0.53300  0.02784  1.0000
  H   H1091     1.0  0.65722  0.95250  0.08639  1.0000
  H   H1092     1.0  0.41658  0.57939  0.06007  1.0000
  H   H1093     1.0  0.38928  0.60291  0.04056  1.0000
  C   C623      1.0  0.35063  0.72752  0.44210  1.0000
  H   H1094     1.0  0.45291  0.66615  0.41601  1.0000
  C   C624      1.0  0.53178  0.92816  0.26486  1.0000
  H   H1095     1.0  0.36377  0.81715  0.16100  1.0000
  Fe  Fe71      1.0  0.65244  0.87451  0.27407  1.0000
  H   H1096     1.0  0.42378  0.51968  0.06780  1.0000
  H   H1097     1.0  0.33356  0.95036  0.01075  1.0000
  C   C625      1.0  0.42410  0.51533  0.96978  1.0000
  C   C626      1.0  0.40101  0.96524  0.98692  1.0000
  H   H1098     1.0  0.43883  0.60719  0.01790  1.0000
  H   H1099     1.0  0.51802  0.50409  0.96512  1.0000
  H   H1100     1.0  0.43313  0.52732  0.12068  1.0000
  H   H1101     1.0  0.48499  0.94336  0.16060  1.0000
  C   C627      1.0  0.34729  0.59364  0.08897  1.0000
  H   H1102     1.0  0.51597  0.91481  0.21280  1.0000
  H   H1103     1.0  0.52142  0.66690  0.24221  1.0000
  S   S149      1.0  0.35552  0.60046  0.22436  1.0000
  C   C628      1.0  0.40646  0.51158  0.08358  1.0000
  H   H1104     1.0  0.56198  0.96390  0.25152  1.0000
  H   H1105     1.0  0.64611  0.87143  0.40888  1.0000
  C   C629      1.0  0.50633  0.61477  0.21964  1.0000
  H   H1106     1.0  0.34561  0.69239  0.40796  1.0000
  Fe  Fe72      1.0  0.48734  0.75466  0.44895  1.0000
  C   C630      1.0  0.61367  0.95929  0.21279  1.0000
  C   C631      1.0  0.64224  0.79280  0.34437  1.0000
  C   C632      1.0  0.35386  0.71517  0.31183  1.0000
  H   H1107     1.0  0.62204  0.92697  0.06163  1.0000
  H   H1108     1.0  0.63808  0.51443  0.12983  1.0000
  H   H1109     1.0  0.64543  0.95211  0.01595  1.0000
  H   H1110     1.0  0.48786  0.67806  0.26046  1.0000
  H   H1111     1.0  0.45588  0.62479  0.27664  1.0000
  H   H1112     1.0  0.56475  0.55997  0.22074  1.0000
  H   H1113     1.0  0.44482  0.65947  0.23683  1.0000
  H   H1114     1.0  0.59687  0.92521  0.01250  1.0000
  H   H1115     1.0  0.41379  0.58692  0.99332  1.0000
  H   H1116     1.0  0.49794  0.64677  0.30278  1.0000
  H   H1117     1.0  0.54176  0.90239  0.16327  1.0000
  H   H1118     1.0  0.35410  0.87121  0.19745  1.0000
  H   H1119     1.0  0.44035  0.94655  0.11688  1.0000
  C   C633      1.0  0.34646  0.51406  0.05128  1.0000
  H   H1120     1.0  0.37356  0.68611  0.36334  1.0000
  Fe  Fe73      1.0  0.54602  0.94889  0.07954  1.0000
  H   H1121     1.0  0.36902  0.55837  0.01503  1.0000
  H   H1122     1.0  0.47199  0.59453  0.09343  1.0000
  S   S150      1.0  0.57099  0.54838  0.99557  1.0000
  C   C634      1.0  0.47045  0.61089  0.26182  1.0000
  C   C635      1.0  0.44088  0.56146  0.27216  1.0000
  C   C636      1.0  0.47056  0.57618  0.13716  1.0000
  H   H1123     1.0  0.36989  0.71757  0.45443  1.0000
  H   H1124     1.0  0.64045  0.85433  0.16089  1.0000
  H   H1125     1.0  0.55427  0.91896  0.30639  1.0000
  H   H1126     1.0  0.40026  0.95576  0.08248  1.0000
  H   H1127     1.0  0.33546  0.52196  0.00480  1.0000
  H   H1128     1.0  0.51902  0.63128  0.20553  1.0000
  C   C637      1.0  0.41268  0.80704  0.37436  1.0000
  Fe  Fe74      1.0  0.55057  0.73138  0.43326  1.0000
  C   C638      1.0  0.44615  0.68918  0.18541  1.0000
  H   H1129     1.0  0.53985  0.95816  0.30258  1.0000
  S   S151      1.0  0.54173  0.95921  0.03152  1.0000
  H   H1130     1.0  0.41938  0.81304  0.39707  1.0000
  H   H1131     1.0  0.39150  0.81953  0.36875  1.0000
  H   H1132     1.0  0.43053  0.76061  0.37546  1.0000
  H   H1133     1.0  0.49291  0.60067  0.20400  1.0000
  Fe  Fe75      1.0  0.54957  0.52525  0.03521  1.0000
  H   H1134     1.0  0.54453  0.67035  0.32015  1.0000
  H   H1135     1.0  0.35018  0.75077  0.34417  1.0000
  H   H1136     1.0  0.52976  0.62786  0.28612  1.0000
  H   H1137     1.0  0.40135  0.66124  0.39565  1.0000
  S   S152      1.0  0.58832  0.70021  0.44976  1.0000
  H   H1138     1.0  0.48797  0.68908  0.20875  1.0000
  H   H1139     1.0  0.55788  0.59021  0.19417  1.0000
  C   C639      1.0  0.49720  0.92086  0.15850  1.0000
  N   N35       1.0  0.48578  0.63224  0.24024  1.0000
  H   H1140     1.0  0.40230  0.76734  0.34805  1.0000
  C   C640      1.0  0.43317  0.66415  0.43080  1.0000
  C   C641      1.0  0.53028  0.59329  0.23372  1.0000
  H   H1141     1.0  0.46086  0.54915  0.28118  1.0000
  H   H1142     1.0  0.42410  0.62425  0.09867  1.0000
  H   H1143     1.0  0.42948  0.59484  0.23933  1.0000
  S   S153      1.0  0.49748  0.95949  0.08804  1.0000
  Fe  Fe76      1.0  0.51963  0.53142  0.09530  1.0000
  C   C642      1.0  0.38386  0.75974  0.39236  1.0000
  H   H1144     1.0  0.44829  0.63022  0.20973  1.0000
  H   H1145     1.0  0.54003  0.94346  0.15568  1.0000
  C   C643      1.0  0.56055  0.93827  0.24798  1.0000
  C   C644      1.0  0.35087  0.72502  0.34375  1.0000
  H   H1146     1.0  0.58341  0.95100  0.17731  1.0000
  H   H1147     1.0  0.62188  0.76959  0.27349  1.0000
  H   H1148     1.0  0.52090  0.95488  0.20535  1.0000
  H   H1149     1.0  0.42722  0.71318  0.39366  1.0000
  C   C645      1.0  0.57797  0.89980  0.21086  1.0000
  C   C646      1.0  0.55986  0.87018  0.21869  1.0000
  C   C647      1.0  0.66004  0.51148  0.11846  1.0000
  H   H1150     1.0  0.35158  0.75321  0.44377  1.0000
  H   H1151     1.0  0.37232  0.77280  0.19597  1.0000
  H   H1152     1.0  0.61142  0.80491  0.29170  1.0000
  C   C648      1.0  0.57756  0.84083  0.21073  1.0000
  C   C649      1.0  0.61794  0.78030  0.29524  1.0000
  H   H1153     1.0  0.59916  0.76783  0.30623  1.0000
  H   H1154     1.0  0.61909  0.82581  0.38733  1.0000
  C   C650      1.0  0.35731  0.77069  0.17662  1.0000
  C   C651      1.0  0.33606  0.87199  0.18053  1.0000
  H   H1155     1.0  0.61616  0.90042  0.34228  1.0000
  C   C652      1.0  0.47256  0.67159  0.19911  1.0000
  N   N36       1.0  0.56231  0.93062  0.21563  1.0000
  H   H1156     1.0  0.58530  0.89764  0.18774  1.0000
  H   H1157     1.0  0.59930  0.89866  0.22368  1.0000
  H   H1158     1.0  0.53812  0.86911  0.20681  1.0000
  H   H1159     1.0  0.55556  0.86916  0.24245  1.0000
  H   H1160     1.0  0.36565  0.52832  0.10484  1.0000
  H   H1161     1.0  0.63041  0.80252  0.41759  1.0000
  H   H1162     1.0  0.51214  0.94228  0.25756  1.0000
  H   H1163     1.0  0.63848  0.49152  0.07986  1.0000
  C   C653      1.0  0.35283  0.92787  0.17340  1.0000
  H   H1164     1.0  0.60602  0.95288  0.11515  1.0000
  H   H1165     1.0  0.62755  0.93897  0.20611  1.0000
  C   C654      1.0  0.60725  0.90429  0.02254  1.0000
  H   H1166     1.0  0.61613  0.88895  0.00499  1.0000
  H   H1167     1.0  0.58210  0.84002  0.18687  1.0000
  H   H1168     1.0  0.59928  0.84014  0.22278  1.0000
  H   H1169     1.0  0.56432  0.81992  0.21687  1.0000
  C   C655      1.0  0.53539  0.93327  0.29774  1.0000
  H   H1170     1.0  0.63941  0.81826  0.34027  1.0000
  C   C656      1.0  0.53134  0.93153  0.20192  1.0000
  C   C657      1.0  0.45925  0.59328  0.11358  1.0000
  C   C658      1.0  0.45390  0.57477  0.16319  1.0000
  H   H1171     1.0  0.36617  0.92114  0.15384  1.0000
  H   H1172     1.0  0.46259  0.57166  0.23159  1.0000
  C   C659      1.0  0.45044  0.58481  0.24873  1.0000
  H   H1173     1.0  0.39861  0.71469  0.35049  1.0000
  H   H1174     1.0  0.36233  0.77182  0.38705  1.0000
  C   C660      1.0  0.37706  0.71172  0.36260  1.0000
  H   H1175     1.0  0.61051  0.76349  0.44786  1.0000
  H   H1176     1.0  0.61999  0.78493  0.35300  1.0000
  H   H1177     1.0  0.42993  0.67268  0.17535  1.0000
  C   C661      1.0  0.51641  0.64962  0.28655  1.0000
  C   C662      1.0  0.53687  0.67569  0.29758  1.0000
  C   C663      1.0  0.58098  0.95561  0.20109  1.0000
  C   C664      1.0  0.64979  0.90304  0.15496  1.0000
  C   C665      1.0  0.63246  0.91357  0.04357  1.0000
  H   H1178     1.0  0.33878  0.75426  0.18182  1.0000
  C   C666      1.0  0.42243  0.50567  0.11263  1.0000
  H   H1179     1.0  0.58865  0.97875  0.98938  1.0000
  S   S154      1.0  0.45235  0.95540  0.01882  1.0000
  Fe  Fe77      1.0  0.49409  0.97440  0.04133  1.0000
  H   H1180     1.0  0.38553  0.67107  0.43070  1.0000
  H   H1181     1.0  0.37059  0.76078  0.15824  1.0000
  H   H1182     1.0  0.61851  0.85543  0.43358  1.0000
  C   C667      1.0  0.34452  0.80243  0.16788  1.0000
  H   H1183     1.0  0.65895  0.66639  0.24381  1.0000
  C   C668      1.0  0.65719  0.51550  0.99745  1.0000
  Fe  Fe78      1.0  0.49577  0.48478  0.05135  1.0000
  C   C669      1.0  0.44198  0.50216  0.99196  1.0000
  H   H1184     1.0  0.41272  0.72347  0.42817  1.0000
  C   C670      1.0  0.33936  0.56825  0.06614  1.0000
  H   H1185     1.0  0.36941  0.60457  0.08465  1.0000
  H   H1186     1.0  0.58945  0.89148  0.03469  1.0000
  C   C671      1.0  0.63317  0.48709  0.22857  1.0000
  H   H1187     1.0  0.40762  0.95781  0.13744  1.0000
  C   C672      1.0  0.42467  0.96609  0.12150  1.0000
  H   H1188     1.0  0.63186  0.51287  0.22802  1.0000
  C   C673      1.0  0.39475  0.50442  0.96453  1.0000
  H   H1189     1.0  0.35480  0.68942  0.30995  1.0000
  C   C674      1.0  0.64032  0.85081  0.42240  1.0000
  H   H1190     1.0  0.63711  0.75908  0.39337  1.0000
  H   H1191     1.0  0.56931  0.97856  0.20283  1.0000
  H   H1192     1.0  0.61440  0.96104  0.23695  1.0000
  H   H1193     1.0  0.36263  0.49570  0.04440  1.0000
  H   H1194     1.0  0.66439  0.79177  0.30154  1.0000
  H   H1195     1.0  0.33411  0.50447  0.07050  1.0000
  H   H1196     1.0  0.34126  0.97164  0.07413  1.0000
  H   H1197     1.0  0.64999  0.50851  0.17706  1.0000
  H   H1198     1.0  0.33269  0.58019  0.04548  1.0000
  C   C675      1.0  0.65346  0.51129  0.08564  1.0000
  H   H1199     1.0  0.33417  0.72373  0.29917  1.0000
  C   C676      1.0  0.62876  0.97861  0.96261  1.0000
  C   C677      1.0  0.42868  0.97779  0.99607  1.0000
  C   C678      1.0  0.65848  0.69971  0.38980  1.0000
  C   C679      1.0  0.66047  0.75826  0.38449  1.0000
  C   C680      1.0  0.62072  0.54955  0.95945  1.0000
  C   C681      1.0  0.66299  0.72671  0.36848  1.0000
  H   H1200     1.0  0.66089  0.67723  0.37808  1.0000
  H   H1201     1.0  0.35990  0.97284  0.96246  1.0000
  C   C682      1.0  0.65748  0.48381  0.17828  1.0000
  C   C683      1.0  0.40967  0.97679  0.09311  1.0000
  H   H1202     1.0  0.33153  0.72970  0.39925  1.0000
  S   S155      1.0  0.62202  0.84727  0.73130  1.0000
  C   C684      1.0  0.44728  0.50591  0.87006  1.0000
  Fe  Fe79      1.0  0.37479  0.62733  0.73986  1.0000
  S   S156      1.0  0.39951  0.59725  0.70776  1.0000
  H   H1203     1.0  0.64098  0.67407  0.47728  1.0000
  Fe  Fe80      1.0  0.42938  0.67060  0.74873  1.0000
  S   S157      1.0  0.45850  0.64311  0.71814  1.0000
  S   S158      1.0  0.44261  0.71673  0.76872  1.0000
  Fe  Fe81      1.0  0.41723  0.64221  0.68944  1.0000
  S   S159      1.0  0.41765  0.66012  0.64317  1.0000
  Fe  Fe82      1.0  0.43795  0.60099  0.73965  1.0000
  S   S160      1.0  0.46099  0.55868  0.75899  1.0000
  S   S161      1.0  0.38941  0.67190  0.71892  1.0000
  S   S162      1.0  0.41183  0.62880  0.77296  1.0000
  C   C685      1.0  0.50051  0.71626  0.74630  1.0000
  C   C686      1.0  0.47688  0.73414  0.75768  1.0000
  H   H1204     1.0  0.49801  0.69137  0.74427  1.0000
  C   C687      1.0  0.49538  0.54442  0.71029  1.0000
  H   H1205     1.0  0.48950  0.56722  0.70201  1.0000
  C   C688      1.0  0.38084  0.66779  0.63048  1.0000
  C   C689      1.0  0.37583  0.69111  0.60958  1.0000
  Fe  Fe83      1.0  0.61389  0.87281  0.68942  1.0000
  H   H1206     1.0  0.39473  0.70408  0.60105  1.0000
  H   H1207     1.0  0.34268  0.71541  0.58343  1.0000
  C   C690      1.0  0.61369  0.83112  0.59053  1.0000
  C   C691      1.0  0.39643  0.74839  0.50871  1.0000
  C   C692      1.0  0.36763  0.76135  0.51312  1.0000
  C   C693      1.0  0.35871  0.78759  0.49732  1.0000
  H   H1208     1.0  0.40320  0.72815  0.52120  1.0000
  H   H1209     1.0  0.35790  0.72393  0.79991  1.0000
  H   H1210     1.0  0.57787  0.93755  0.92229  1.0000
  H   H1211     1.0  0.62790  0.54268  0.73745  1.0000
  C   C694      1.0  0.34042  0.71053  0.78792  1.0000
  H   H1212     1.0  0.47585  0.64883  0.83545  1.0000
  H   H1213     1.0  0.41599  0.50520  0.77804  1.0000
  H   H1214     1.0  0.34856  0.58715  0.79924  1.0000
  H   H1215     1.0  0.47364  0.89350  0.60363  1.0000
  Fe  Fe84      1.0  0.57394  0.83112  0.72666  1.0000
  H   H1216     1.0  0.44481  0.49537  0.84807  1.0000
  H   H1217     1.0  0.49989  0.94330  0.84709  1.0000
  H   H1218     1.0  0.55825  0.96451  0.81652  1.0000
  C   C695      1.0  0.43260  0.87743  0.58250  1.0000
  H   H1219     1.0  0.36146  0.62103  0.91905  1.0000
  C   C696      1.0  0.34639  0.69757  0.59965  1.0000
  H   H1220     1.0  0.36698  0.89462  0.51340  1.0000
  H   H1221     1.0  0.35232  0.75102  0.52876  1.0000
  S   S163      1.0  0.56694  0.77922  0.73237  1.0000
  H   H1222     1.0  0.58097  0.48996  0.74261  1.0000
  H   H1223     1.0  0.35232  0.62240  0.88068  1.0000
  H   H1224     1.0  0.42308  0.81169  0.58860  1.0000
  H   H1225     1.0  0.39910  0.57976  0.91032  1.0000
  H   H1226     1.0  0.57473  0.86584  0.82647  1.0000
  H   H1227     1.0  0.40749  0.61429  0.88981  1.0000
  C   C697      1.0  0.53169  0.76276  0.74145  1.0000
  C   C698      1.0  0.52787  0.73050  0.73843  1.0000
  C   C699      1.0  0.48067  0.76644  0.76064  1.0000
  C   C700      1.0  0.50788  0.78079  0.75225  1.0000
  H   H1228     1.0  0.54626  0.71641  0.73022  1.0000
  H   H1229     1.0  0.46248  0.78041  0.76946  1.0000
  H   H1230     1.0  0.51063  0.80566  0.75474  1.0000
  H   H1231     1.0  0.39546  0.50158  0.82913  1.0000
  C   C701      1.0  0.65878  0.49037  0.88293  1.0000
  C   C702      1.0  0.49137  0.50470  0.74753  1.0000
  C   C703      1.0  0.48353  0.53427  0.73697  1.0000
  C   C704      1.0  0.51568  0.52536  0.69473  1.0000
  C   C705      1.0  0.44768  0.57718  0.85962  1.0000
  H   H1232     1.0  0.48222  0.49668  0.76811  1.0000
  H   H1233     1.0  0.40009  0.51713  0.87689  1.0000
  H   H1234     1.0  0.56088  0.70082  0.53497  1.0000
  H   H1235     1.0  0.50348  0.97749  0.82421  1.0000
  H   H1236     1.0  0.38992  0.89911  0.59048  1.0000
  C   C706      1.0  0.40744  0.78734  0.47212  1.0000
  C   C707      1.0  0.63383  0.50298  0.70923  1.0000
  H   H1237     1.0  0.34419  0.58786  0.90195  1.0000
  H   H1238     1.0  0.43672  0.89321  0.56374  1.0000
  C   C708      1.0  0.51673  0.96497  0.73993  1.0000
  C   C709      1.0  0.66356  0.73950  0.58210  1.0000
  H   H1239     1.0  0.56942  0.73020  0.50819  1.0000
  C   C710      1.0  0.59871  0.50451  0.75314  1.0000
  H   H1240     1.0  0.63299  0.84121  0.53046  1.0000
  H   H1241     1.0  0.45287  0.60074  0.81740  1.0000
  N   N37       1.0  0.62856  0.78204  0.56064  1.0000
  C   C711      1.0  0.58804  0.85456  0.59465  1.0000
  C   C712      1.0  0.63865  0.76505  0.85359  1.0000
  H   H1242     1.0  0.59387  0.79780  0.81665  1.0000
  H   H1243     1.0  0.41749  0.75367  0.57839  1.0000
  H   H1244     1.0  0.60454  0.77288  0.52033  1.0000
  C   C713      1.0  0.41849  0.54686  0.82424  1.0000
  C   C714      1.0  0.39302  0.52354  0.81663  1.0000
  H   H1245     1.0  0.41339  0.80074  0.55149  1.0000
  S   S164      1.0  0.53405  0.77124  0.46045  1.0000
  H   H1246     1.0  0.41502  0.56723  0.80960  1.0000
  H   H1247     1.0  0.38557  0.59159  0.84467  1.0000
  H   H1248     1.0  0.37051  0.53365  0.82148  1.0000
  C   C715      1.0  0.62756  0.83100  0.83425  1.0000
  C   C716      1.0  0.65988  0.54185  0.82084  1.0000
  C   C717      1.0  0.57975  0.92682  0.90033  1.0000
  H   H1249     1.0  0.37772  0.76007  0.57514  1.0000
  N   N38       1.0  0.41996  0.55733  0.85565  1.0000
  H   H1250     1.0  0.63719  0.77229  0.80663  1.0000
  H   H1251     1.0  0.65962  0.55014  0.93074  1.0000
  S   S165      1.0  0.55456  0.87113  0.75220  1.0000
  H   H1252     1.0  0.61924  0.82150  0.61239  1.0000
  H   H1253     1.0  0.61867  0.89888  0.91328  1.0000
  H   H1254     1.0  0.62063  0.95055  0.88858  1.0000
  H   H1255     1.0  0.58210  0.86567  0.57350  1.0000
  C   C718      1.0  0.37637  0.82289  0.57617  1.0000
  S   S166      1.0  0.64639  0.87556  0.65144  1.0000
  C   C719      1.0  0.59569  0.89549  0.90409  1.0000
  S   S167      1.0  0.59805  0.91653  0.71170  1.0000
  H   H1256     1.0  0.42793  0.62088  0.84207  1.0000
  H   H1257     1.0  0.34591  0.54973  0.71313  1.0000
  H   H1258     1.0  0.63553  0.81033  0.50406  1.0000
  Fe  Fe85      1.0  0.60221  0.88924  0.75327  1.0000
  H   H1259     1.0  0.34296  0.78130  0.63451  1.0000
  H   H1260     1.0  0.58556  0.79223  0.58091  1.0000
  C   C720      1.0  0.37862  0.80041  0.47662  1.0000
  S   S168      1.0  0.45266  0.74450  0.48438  1.0000
  C   C721      1.0  0.64510  0.69863  0.47397  1.0000
  H   H1261     1.0  0.47198  0.63604  0.87278  1.0000
  C   C722      1.0  0.55187  0.97700  0.86288  1.0000
  H   H1262     1.0  0.60082  0.93475  0.85841  1.0000
  S   S169      1.0  0.51244  0.92471  0.69310  1.0000
  H   H1263     1.0  0.38979  0.53654  0.77059  1.0000
  H   H1264     1.0  0.59333  0.81516  0.54985  1.0000
  H   H1265     1.0  0.46830  0.56380  0.85385  1.0000
  N   N39       1.0  0.58523  0.52338  0.77775  1.0000
  H   H1266     1.0  0.63356  0.84405  0.58231  1.0000
  C   C723      1.0  0.56571  0.50227  0.79616  1.0000
  C   C724      1.0  0.56486  0.54778  0.76432  1.0000
  H   H1267     1.0  0.40475  0.87236  0.47854  1.0000
  C   C725      1.0  0.39379  0.51541  0.78409  1.0000
  C   C726      1.0  0.39819  0.87467  0.58867  1.0000
  C   C727      1.0  0.54486  0.56655  0.78597  1.0000
  C   C728      1.0  0.44928  0.89097  0.60884  1.0000
  S   S170      1.0  0.37342  0.52184  0.93636  1.0000
  C   C729      1.0  0.59763  0.94802  0.87906  1.0000
  C   C730      1.0  0.60868  0.53973  0.79621  1.0000
  C   C731      1.0  0.53271  0.59636  0.77194  1.0000
  H   H1268     1.0  0.50938  0.93933  0.80896  1.0000
  N   N40       1.0  0.37936  0.85652  0.56696  1.0000
  H   H1269     1.0  0.55510  0.51539  0.81443  1.0000
  H   H1270     1.0  0.54670  0.49327  0.78266  1.0000
  H   H1271     1.0  0.54949  0.53699  0.74804  1.0000
  H   H1272     1.0  0.57838  0.56501  0.75176  1.0000
  H   H1273     1.0  0.61547  0.48751  0.76139  1.0000
  H   H1274     1.0  0.59963  0.54415  0.81854  1.0000
  H   H1275     1.0  0.56675  0.83355  0.85077  1.0000
  H   H1276     1.0  0.59751  0.88326  0.88276  1.0000
  C   C732      1.0  0.57134  0.84027  0.82776  1.0000
  H   H1277     1.0  0.62021  0.75498  0.59976  1.0000
  H   H1278     1.0  0.55759  0.57325  0.80585  1.0000
  H   H1279     1.0  0.52515  0.55226  0.79267  1.0000
  H   H1280     1.0  0.63059  0.85659  0.83225  1.0000
  H   H1281     1.0  0.35749  0.72518  0.74652  1.0000
  H   H1282     1.0  0.34869  0.89525  0.56049  1.0000
  C   C733      1.0  0.59150  0.73661  0.55042  1.0000
  H   H1283     1.0  0.45059  0.58360  0.88303  1.0000
  H   H1284     1.0  0.44715  0.87535  0.62809  1.0000
  H   H1285     1.0  0.37883  0.84156  0.52208  1.0000
  H   H1286     1.0  0.34720  0.71919  0.69226  1.0000
  C   C734      1.0  0.39037  0.88997  0.52105  1.0000
  H   H1287     1.0  0.56780  0.84305  0.60396  1.0000
  H   H1288     1.0  0.62023  0.48403  0.69928  1.0000
  H   H1289     1.0  0.51631  0.60771  0.78692  1.0000
  H   H1290     1.0  0.55138  0.61291  0.76751  1.0000
  H   H1291     1.0  0.52094  0.59110  0.75111  1.0000
  H   H1292     1.0  0.39667  0.76888  0.60903  1.0000
  C   C735      1.0  0.51117  0.48547  0.73171  1.0000
  H   H1293     1.0  0.58261  0.88063  0.91937  1.0000
  H   H1294     1.0  0.59629  0.53402  0.71412  1.0000
  C   C736      1.0  0.44901  0.60707  0.84063  1.0000
  H   H1295     1.0  0.49694  0.61548  0.84794  1.0000
  C   C737      1.0  0.66453  0.82446  0.79492  1.0000
  C   C738      1.0  0.65677  0.91883  0.80084  1.0000
  H   H1296     1.0  0.34843  0.68610  0.78571  1.0000
  C   C739      1.0  0.60410  0.80462  0.56951  1.0000
  C   C740      1.0  0.40511  0.80244  0.57432  1.0000
  H   H1297     1.0  0.41528  0.84908  0.53532  1.0000
  H   H1298     1.0  0.62252  0.82706  0.85779  1.0000
  C   C741      1.0  0.61545  0.75977  0.53848  1.0000
  C   C742      1.0  0.63949  0.76514  0.58751  1.0000
  H   H1299     1.0  0.45020  0.48861  0.91485  1.0000
  N   N41       1.0  0.49084  0.72604  0.64395  1.0000
  C   C743      1.0  0.49046  0.72093  0.61125  1.0000
  C   C744      1.0  0.49655  0.69566  0.65987  1.0000
  C   C745      1.0  0.45977  0.73753  0.65255  1.0000
  C   C746      1.0  0.51344  0.75044  0.65294  1.0000
  C   C747      1.0  0.54668  0.74433  0.64422  1.0000
  C   C748      1.0  0.48708  0.75056  0.59209  1.0000
  C   C749      1.0  0.45345  0.74011  0.68588  1.0000
  C   C750      1.0  0.51827  0.67183  0.64538  1.0000
  C   C751      1.0  0.52540  0.64483  0.66603  1.0000
  C   C752      1.0  0.56568  0.77377  0.64748  1.0000
  C   C753      1.0  0.48507  0.74216  0.55967  1.0000
  C   C754      1.0  0.42085  0.74993  0.69162  1.0000
  H   H1300     1.0  0.47198  0.70440  0.60545  1.0000
  H   H1301     1.0  0.51139  0.70948  0.60350  1.0000
  H   H1302     1.0  0.50480  0.70031  0.68244  1.0000
  H   H1303     1.0  0.47504  0.68261  0.66267  1.0000
  H   H1304     1.0  0.44210  0.72207  0.64312  1.0000
  H   H1305     1.0  0.45534  0.76105  0.64345  1.0000
  H   H1306     1.0  0.50654  0.77370  0.64451  1.0000
  H   H1307     1.0  0.51364  0.75323  0.67712  1.0000
  H   H1308     1.0  0.54898  0.73645  0.62129  1.0000
  H   H1309     1.0  0.55645  0.72644  0.65899  1.0000
  H   H1310     1.0  0.46652  0.76388  0.59769  1.0000
  H   H1311     1.0  0.50688  0.76604  0.59490  1.0000
  H   H1312     1.0  0.46830  0.75774  0.69612  1.0000
  H   H1313     1.0  0.45687  0.71754  0.69716  1.0000
  H   H1314     1.0  0.50747  0.66171  0.62562  1.0000
  H   H1315     1.0  0.53986  0.68253  0.63874  1.0000
  H   H1316     1.0  0.54151  0.62859  0.65535  1.0000
  H   H1317     1.0  0.53572  0.65347  0.68661  1.0000
  H   H1318     1.0  0.50452  0.63169  0.67124  1.0000
  H   H1319     1.0  0.58980  0.76840  0.64329  1.0000
  H   H1320     1.0  0.55815  0.79190  0.63180  1.0000
  H   H1321     1.0  0.56376  0.78315  0.66998  1.0000
  H   H1322     1.0  0.48249  0.76366  0.54639  1.0000
  H   H1323     1.0  0.50582  0.72990  0.55233  1.0000
  H   H1324     1.0  0.46521  0.72707  0.55540  1.0000
  H   H1325     1.0  0.41704  0.75197  0.71555  1.0000
  H   H1326     1.0  0.41602  0.77282  0.68137  1.0000
  H   H1327     1.0  0.40510  0.73213  0.68290  1.0000
  H   H1328     1.0  0.66230  0.85012  0.79248  1.0000
  H   H1329     1.0  0.47123  0.96059  0.90026  1.0000
  H   H1330     1.0  0.63777  0.49959  0.80800  1.0000
  H   H1331     1.0  0.64893  0.54417  0.84255  1.0000
  H   H1332     1.0  0.34319  0.87555  0.61418  1.0000
  H   H1333     1.0  0.37209  0.55900  0.86425  1.0000
  H   H1334     1.0  0.60533  0.97815  0.83016  1.0000
  C   C755      1.0  0.59902  0.82302  0.81608  1.0000
  H   H1335     1.0  0.64977  0.93546  0.84463  1.0000
  C   C756      1.0  0.61390  0.52358  0.72843  1.0000
  C   C757      1.0  0.36052  0.60714  0.89861  1.0000
  H   H1336     1.0  0.36015  0.63215  0.65671  1.0000
  C   C758      1.0  0.39186  0.59423  0.89156  1.0000
  H   H1337     1.0  0.44320  0.85489  0.57711  1.0000
  S   S171      1.0  0.56722  0.85407  0.68302  1.0000
  C   C759      1.0  0.35644  0.65049  0.64091  1.0000
  C   C760      1.0  0.42191  0.52996  0.87624  1.0000
  C   C761      1.0  0.39153  0.57526  0.86269  1.0000
  C   C762      1.0  0.39875  0.76935  0.58489  1.0000
  H   H1338     1.0  0.63775  0.96511  0.74733  1.0000
  C   C763      1.0  0.50221  0.95782  0.71364  1.0000
  H   H1339     1.0  0.46987  0.51680  0.87154  1.0000
  H   H1340     1.0  0.53430  0.94980  0.74815  1.0000
  H   H1341     1.0  0.60138  0.72098  0.56717  1.0000
  C   C764      1.0  0.41647  0.76132  0.48828  1.0000
  Fe  Fe86      1.0  0.55188  0.89574  0.70892  1.0000
  C   C765      1.0  0.51268  0.95392  0.82876  1.0000
  H   H1342     1.0  0.36830  0.82123  0.59914  1.0000
  H   H1343     1.0  0.44017  0.91431  0.61454  1.0000
  C   C766      1.0  0.65183  0.77949  0.82524  1.0000
  S   S172      1.0  0.61814  0.91064  0.79578  1.0000
  H   H1344     1.0  0.36636  0.75050  0.64873  1.0000
  C   C767      1.0  0.52382  0.49589  0.70549  1.0000
  H   H1345     1.0  0.40865  0.91384  0.48317  1.0000
  H   H1346     1.0  0.59711  0.70069  0.51734  1.0000
  H   H1347     1.0  0.55672  0.92203  0.89203  1.0000
  H   H1348     1.0  0.60050  0.97057  0.76222  1.0000
  H   H1349     1.0  0.44045  0.53664  0.81726  1.0000
  H   H1350     1.0  0.39533  0.86484  0.61104  1.0000
  H   H1351     1.0  0.60667  0.56293  0.94475  1.0000
  C   C768      1.0  0.47511  0.62804  0.84989  1.0000
  C   C769      1.0  0.57904  0.71593  0.52618  1.0000
  H   H1352     1.0  0.42545  0.53818  0.89902  1.0000
  H   H1353     1.0  0.35888  0.81126  0.56247  1.0000
  C   C770      1.0  0.41098  0.89098  0.49428  1.0000
  H   H1354     1.0  0.65394  0.76897  0.87241  1.0000
  C   C771      1.0  0.34786  0.87012  0.56628  1.0000
  C   C772      1.0  0.39170  0.85773  0.53626  1.0000
  H   H1355     1.0  0.55412  0.93142  0.84021  1.0000
  H   H1356     1.0  0.52530  0.53357  0.67442  1.0000
  H   H1357     1.0  0.55132  0.83417  0.81433  1.0000
  H   H1358     1.0  0.57206  0.74909  0.56018  1.0000
  H   H1359     1.0  0.65814  0.81772  0.68264  1.0000
  C   C773      1.0  0.47950  0.97771  0.70314  1.0000
  H   H1360     1.0  0.66090  0.78578  0.45966  1.0000
  H   H1361     1.0  0.59526  0.87312  0.61001  1.0000
  H   H1362     1.0  0.33412  0.85875  0.54882  1.0000
  H   H1363     1.0  0.60206  0.83002  0.79294  1.0000
  H   H1364     1.0  0.35784  0.78457  0.67077  1.0000
  H   H1365     1.0  0.61371  0.56327  0.78721  1.0000
  H   H1366     1.0  0.39687  0.90900  0.53614  1.0000
  H   H1367     1.0  0.63352  0.74604  0.52750  1.0000
  H   H1368     1.0  0.53714  0.96923  0.88120  1.0000
  C   C774      1.0  0.65062  0.54218  0.95138  1.0000
  H   H1369     1.0  0.61622  0.77501  0.85894  1.0000
  C   C775      1.0  0.54629  0.95555  0.83611  1.0000
  H   H1370     1.0  0.37603  0.49813  0.77897  1.0000
  H   H1371     1.0  0.64784  0.70620  0.61463  1.0000
  H   H1372     1.0  0.37183  0.82070  0.46426  1.0000
  H   H1373     1.0  0.43494  0.88790  0.50083  1.0000
  C   C776      1.0  0.63985  0.52364  0.79972  1.0000
  C   C777      1.0  0.33530  0.72507  0.75782  1.0000
  N   N42       1.0  0.58420  0.97961  0.87282  1.0000
  C   C778      1.0  0.34880  0.76794  0.65440  1.0000
  H   H1374     1.0  0.64373  0.51713  0.69135  1.0000
  C   C779      1.0  0.65508  0.79854  0.54698  1.0000
  C   C780      1.0  0.65636  0.76153  0.46412  1.0000
  H   H1375     1.0  0.65657  0.71842  0.84574  1.0000
  H   H1376     1.0  0.61311  0.49325  0.92380  1.0000
  H   H1377     1.0  0.33682  0.75423  0.70998  1.0000
  H   H1378     1.0  0.43812  0.97577  0.91819  1.0000
  H   H1379     1.0  0.65376  0.51437  0.89043  1.0000
  H   H1380     1.0  0.65006  0.78175  0.60311  1.0000
  C   C781      1.0  0.62255  0.71728  0.46127  1.0000
  H   H1381     1.0  0.65711  0.72345  0.56424  1.0000
  H   H1382     1.0  0.64829  0.81456  0.77894  1.0000
  H   H1383     1.0  0.62378  0.95630  0.95282  1.0000
  H   H1384     1.0  0.46822  0.97229  0.68280  1.0000
  H   H1385     1.0  0.51421  0.48213  0.93175  1.0000
  H   H1386     1.0  0.43303  0.53421  0.95678  1.0000
  H   H1387     1.0  0.56675  0.50129  0.93967  1.0000
  N   N43       1.0  0.65614  0.81433  0.82544  1.0000
  H   H1388     1.0  0.62527  0.72007  0.87083  1.0000
  H   H1389     1.0  0.61860  0.72467  0.83223  1.0000
  C   C782      1.0  0.64745  0.82201  0.52230  1.0000
  C   C783      1.0  0.63458  0.72991  0.85028  1.0000
  H   H1390     1.0  0.65195  0.52259  0.77852  1.0000
  H   H1391     1.0  0.64670  0.48577  0.86213  1.0000
  H   H1392     1.0  0.65246  0.49265  0.72226  1.0000
  C   C784      1.0  0.52459  0.48219  0.95383  1.0000
  H   H1393     1.0  0.59676  0.48185  0.82824  1.0000
  Fe  Fe87      1.0  0.71938  0.40649  0.25343  1.0000
  S   S173      1.0  0.69445  0.37309  0.22388  1.0000
  S   S174      1.0  0.75438  0.43764  0.23193  1.0000
  Fe  Fe88      1.0  0.69994  0.33837  0.26063  1.0000
  S   S175      1.0  0.70617  0.28572  0.26033  1.0000
  S   S176      1.0  0.72823  0.37024  0.28808  1.0000
  Fe  Fe89      1.0  0.83858  0.16528  0.24558  1.0000
  S   S177      1.0  0.82447  0.13942  0.28592  1.0000
  S   S178      1.0  0.83321  0.21788  0.24454  1.0000
  H   H1394     1.0  0.95083  0.46961  0.09236  1.0000
  C   C785      1.0  0.96700  0.08606  0.12284  1.0000
  H   H1395     1.0  0.91393  0.14086  0.38194  1.0000
  C   C786      1.0  0.71046  0.19267  0.40896  1.0000
  H   H1396     1.0  0.80556  0.33700  0.37138  1.0000
  Fe  Fe90      1.0  0.87011  0.11678  0.28183  1.0000
  S   S179      1.0  0.89985  0.10551  0.32045  1.0000
  H   H1397     1.0  0.91592  0.17255  0.40749  1.0000
  S   S180      1.0  0.88553  0.14442  0.24319  1.0000
  H   H1398     1.0  0.79527  0.39448  0.31289  1.0000
  H   H1399     1.0  0.78992  0.35293  0.31348  1.0000
  S   S181      1.0  0.76312  0.07767  0.25363  1.0000
  H   H1400     1.0  0.84273  0.38723  0.45695  1.0000
  H   H1401     1.0  0.67048  0.26534  0.37282  1.0000
  C   C787      1.0  0.79830  0.37312  0.32628  1.0000
  H   H1402     1.0  0.77884  0.25326  0.42931  1.0000
  H   H1403     1.0  0.71198  0.44730  0.18619  1.0000
  H   H1404     1.0  0.80136  0.27493  0.45520  1.0000
  H   H1405     1.0  0.96678  0.13394  0.13678  1.0000
  H   H1406     1.0  0.91644  0.06819  0.27153  1.0000
  H   H1407     1.0  0.85846  0.28657  0.35313  1.0000
  H   H1408     1.0  0.69000  0.31839  0.36267  1.0000
  H   H1409     1.0  0.78594  0.04233  0.00702  1.0000
  H   H1410     1.0  0.72115  0.02973  0.23775  1.0000
  H   H1411     1.0  0.75150  0.30304  0.40740  1.0000
  H   H1412     1.0  0.91559  0.03203  0.14459  1.0000
  H   H1413     1.0  0.72772  0.27534  0.36580  1.0000
  H   H1414     1.0  0.93572  0.47135  0.96558  1.0000
  H   H1415     1.0  0.72697  0.21730  0.33055  1.0000
  C   C788      1.0  0.77838  0.02630  0.28700  1.0000
  N   N44       1.0  0.99266  0.10497  0.22757  1.0000
  C   C789      1.0  0.93641  0.12138  0.32358  1.0000
  C   C790      1.0  0.94525  0.14769  0.30774  1.0000
  C   C791      1.0  0.97360  0.16146  0.31297  1.0000
  H   H1416     1.0  0.68909  0.19365  0.42165  1.0000
  H   H1417     1.0  0.72085  0.32367  0.33747  1.0000
  C   C792      1.0  0.95654  0.10812  0.34364  1.0000
  H   H1418     1.0  0.92998  0.15773  0.29198  1.0000
  C   C793      1.0  0.66686  0.27467  0.44432  1.0000
  H   H1419     1.0  0.69501  0.47723  0.11305  1.0000
  H   H1420     1.0  0.94988  0.08776  0.35595  1.0000
  C   C794      1.0  0.91226  0.01344  0.97200  1.0000
  C   C795      1.0  0.71109  0.27542  0.34772  1.0000
  Fe  Fe91      1.0  0.86466  0.10651  0.21594  1.0000
  H   H1421     1.0  0.79584  0.04063  0.29652  1.0000
  H   H1422     1.0  0.85973  0.02118  0.08344  1.0000
  H   H1423     1.0  0.79983  0.28675  0.38908  1.0000
  H   H1424     1.0  0.70820  0.24143  0.40178  1.0000
  H   H1425     1.0  0.76001  0.07447  0.18805  1.0000
  H   H1426     1.0  0.92110  0.12848  0.16818  1.0000
  H   H1427     1.0  0.71406  0.38378  0.16099  1.0000
  H   H1428     1.0  0.68098  0.03641  0.96030  1.0000
  H   H1429     1.0  0.94579  0.09358  0.22000  1.0000
  H   H1430     1.0  0.74136  0.38626  0.39556  1.0000
  H   H1431     1.0  0.84713  0.02022  0.21870  1.0000
  H   H1432     1.0  0.73317  0.44504  0.13173  1.0000
  C   C796      1.0  0.93025  0.28491  0.45666  1.0000
  H   H1433     1.0  0.89461  0.17543  0.34350  1.0000
  H   H1434     1.0  0.88576  0.22098  0.45025  1.0000
  H   H1435     1.0  0.73586  0.22281  0.37981  1.0000
  C   C797      1.0  0.74173  0.26730  0.25621  1.0000
  C   C798      1.0  0.74321  0.23461  0.25563  1.0000
  C   C799      1.0  0.77103  0.21913  0.25198  1.0000
  C   C800      1.0  0.79767  0.23627  0.24902  1.0000
  C   C801      1.0  0.79623  0.26894  0.25007  1.0000
  C   C802      1.0  0.76841  0.28442  0.25366  1.0000
  H   H1436     1.0  0.72269  0.22118  0.25754  1.0000
  H   H1437     1.0  0.77184  0.19398  0.25122  1.0000
  H   H1438     1.0  0.81672  0.28236  0.24776  1.0000
  H   H1439     1.0  0.76757  0.30957  0.25405  1.0000
  C   C803      1.0  0.92989  0.10857  0.15644  1.0000
  Fe  Fe92      1.0  0.80835  0.10241  0.25474  1.0000
  H   H1440     1.0  0.92149  0.22497  0.36507  1.0000
  H   H1441     1.0  0.77686  0.23920  0.31323  1.0000
  H   H1442     1.0  0.94036  0.17205  0.37575  1.0000
  H   H1443     1.0  0.68414  0.38061  0.45532  1.0000
  C   C804      1.0  0.67567  0.48080  0.12803  1.0000
  H   H1444     1.0  0.78878  0.39371  0.41823  1.0000
  H   H1445     1.0  0.92679  0.12949  0.02825  1.0000
  C   C805      1.0  0.77783  0.07279  0.17103  1.0000
  C   C806      1.0  0.69379  0.37673  0.43326  1.0000
  S   S182      1.0  0.81927  0.13011  0.21438  1.0000
  H   H1446     1.0  0.87888  0.26539  0.30940  1.0000
  C   C807      1.0  0.78081  0.37640  0.35494  1.0000
  H   H1447     1.0  0.93269  0.24418  0.27477  1.0000
  C   C808      1.0  0.80012  0.36218  0.45366  1.0000
  H   H1448     1.0  0.70755  0.16323  0.28930  1.0000
  H   H1449     1.0  0.81955  0.25220  0.42722  1.0000
  C   C809      1.0  0.70111  0.30896  0.34280  1.0000
  C   C810      1.0  0.82307  0.24329  0.32810  1.0000
  S   S183      1.0  0.94485  0.03583  0.97896  1.0000
  H   H1450     1.0  0.84364  0.01327  0.28268  1.0000
  H   H1451     1.0  0.97312  0.04359  0.24120  1.0000
  H   H1452     1.0  0.98879  0.16585  0.25201  1.0000
  C   C811      1.0  0.92665  0.05434  0.14291  1.0000
  H   H1453     1.0  0.84922  0.20185  0.33444  1.0000
  C   C812      1.0  0.89269  0.24416  0.45651  1.0000
  C   C813      1.0  0.89893  0.22012  0.30113  1.0000
  H   H1454     1.0  0.76762  0.06454  0.15028  1.0000
  H   H1455     1.0  0.66875  0.25595  0.33490  1.0000
  H   H1456     1.0  0.91770  0.04748  0.23712  1.0000
  C   C814      1.0  0.91540  0.07982  0.15875  1.0000
  C   C815      1.0  0.71124  0.17096  0.33641  1.0000
  C   C816      1.0  0.95235  0.05740  0.12512  1.0000
  C   C817      1.0  0.95566  0.11163  0.13857  1.0000
  H   H1457     1.0  0.71118  0.17003  0.39752  1.0000
  H   H1458     1.0  0.94626  0.09411  0.01818  1.0000
  C   C818      1.0  0.80409  0.05037  0.99209  1.0000
  C   C819      1.0  0.79973  0.26716  0.43213  1.0000
  H   H1459     1.0  0.87858  0.20597  0.29666  1.0000
  C   C820      1.0  0.96228  0.09404  0.23844  1.0000
  H   H1460     1.0  0.87751  0.00540  0.26183  1.0000
  C   C821      1.0  0.79387  0.22478  0.32485  1.0000
  C   C822      1.0  0.72682  0.36691  0.43591  1.0000
  C   C823      1.0  0.83651  0.98891  0.17257  1.0000
  H   H1461     1.0  0.87718  0.33250  0.38338  1.0000
  C   C824      1.0  0.77100  0.31582  0.41695  1.0000
  H   H1462     1.0  0.81276  0.06035  0.20138  1.0000
  H   H1463     1.0  0.75846  0.19114  0.41960  1.0000
  C   C825      1.0  0.75920  0.03882  0.26579  1.0000
  C   C826      1.0  0.79065  0.01745  0.18562  1.0000
  H   H1464     1.0  0.97862  0.16913  0.45784  1.0000
  H   H1465     1.0  0.96371  0.46257  0.15718  1.0000
  C   C827      1.0  0.98796  0.13609  0.21282  1.0000
  H   H1466     1.0  0.88246  0.99408  0.04087  1.0000
  S   S184      1.0  0.94571  0.22920  0.43015  1.0000
  C   C828      1.0  0.73109  0.40058  0.15281  1.0000
  H   H1467     1.0  0.97208  0.06395  0.27583  1.0000
  C   C829      1.0  0.97492  0.16259  0.23211  1.0000
  H   H1468     1.0  0.95994  0.19168  0.19582  1.0000
  H   H1469     1.0  0.68043  0.35831  0.42219  1.0000
  C   C830      1.0  0.73280  0.98897  0.26298  1.0000
  S   S185      1.0  0.85243  0.07735  0.25481  1.0000
  H   H1470     1.0  0.95197  0.43251  0.11122  1.0000
  H   H1471     1.0  0.81793  0.36682  0.41044  1.0000
  C   C831      1.0  0.78200  0.34585  0.37302  1.0000
  H   H1472     1.0  0.91664  0.20547  0.31115  1.0000
  H   H1473     1.0  0.82813  0.02921  0.04121  1.0000
  C   C832      1.0  0.74139  0.36261  0.40543  1.0000
  C   C833      1.0  0.71214  0.22069  0.38756  1.0000
  H   H1474     1.0  0.82277  0.36999  0.33063  1.0000
  C   C834      1.0  0.96154  0.06198  0.25388  1.0000
  C   C835      1.0  0.79949  0.29543  0.41195  1.0000
  H   H1475     1.0  0.67223  0.29643  0.43364  1.0000
  C   C836      1.0  0.89335  0.18358  0.36638  1.0000
  S   S186      1.0  0.88246  0.07464  0.17997  1.0000
  C   C837      1.0  0.69773  0.44667  0.16619  1.0000
  C   C838      1.0  0.91121  0.23129  0.27175  1.0000
  C   C839      1.0  0.93798  0.10824  0.03684  1.0000
  C   C840      1.0  0.90743  0.98444  0.98498  1.0000
  N   N45       1.0  0.81301  0.99328  0.19607  1.0000
  H   H1476     1.0  0.73566  0.47519  0.28224  1.0000
  N   N46       1.0  0.86563  0.05891  0.05283  1.0000
  C   C841      1.0  0.87840  0.03323  0.07170  1.0000
  C   C842      1.0  0.84656  0.08102  0.07106  1.0000
  C   C843      1.0  0.84534  0.04408  0.03023  1.0000
  C   C844      1.0  0.89002  0.07641  0.03679  1.0000
  C   C845      1.0  0.91610  0.08941  0.05558  1.0000
  H   H1477     1.0  0.72848  0.16589  0.35327  1.0000
  C   C846      1.0  0.82892  0.06693  0.00922  1.0000
  C   C847      1.0  0.85469  0.08481  0.10393  1.0000
  C   C848      1.0  0.83626  0.11092  0.11802  1.0000
  H   H1478     1.0  0.74390  0.38932  0.13482  1.0000
  C   C849      1.0  0.79514  0.36874  0.42060  1.0000
  H   H1479     1.0  0.81332  0.02999  0.98014  1.0000
  H   H1480     1.0  0.89328  0.04285  0.08896  1.0000
  H   H1481     1.0  0.84630  0.10468  0.06109  1.0000
  H   H1482     1.0  0.82249  0.07347  0.07121  1.0000
  H   H1483     1.0  0.76777  0.32843  0.36142  1.0000
  C   C850      1.0  0.99368  0.14811  0.33310  1.0000
  H   H1484     1.0  0.90019  0.06156  0.01945  1.0000
  H   H1485     1.0  0.88017  0.09655  0.02482  1.0000
  H   H1486     1.0  0.92913  0.07027  0.06590  1.0000
  H   H1487     1.0  0.90752  0.10535  0.07262  1.0000
  H   H1488     1.0  0.88000  0.30783  0.41537  1.0000
  C   C851      1.0  0.97446  0.19347  0.21554  1.0000
  H   H1489     1.0  0.84525  0.07650  0.99313  1.0000
  H   H1490     1.0  0.81833  0.08669  0.02096  1.0000
  H   H1491     1.0  0.84963  0.06301  0.11602  1.0000
  H   H1492     1.0  0.87878  0.09023  0.10728  1.0000
  H   H1493     1.0  0.84167  0.13364  0.10772  1.0000
  H   H1494     1.0  0.81172  0.10631  0.11588  1.0000
  H   H1495     1.0  0.84182  0.11251  0.14165  1.0000
  C   C852      1.0  0.70483  0.20631  0.33516  1.0000
  H   H1496     1.0  0.76623  0.31612  0.44071  1.0000
  H   H1497     1.0  0.95764  0.11542  0.05030  1.0000
  H   H1498     1.0  0.96524  0.21205  0.22987  1.0000
  H   H1499     1.0  0.77146  0.01924  0.20133  1.0000
  H   H1500     1.0  0.82047  0.30887  0.41580  1.0000
  H   H1501     1.0  0.87111  0.17644  0.37532  1.0000
  H   H1502     1.0  0.91450  0.25882  0.32567  1.0000
  H   H1503     1.0  0.68526  0.31016  0.32407  1.0000
  H   H1504     1.0  0.78465  0.21828  0.34656  1.0000
  H   H1505     1.0  0.98008  0.18231  0.30134  1.0000
  C   C853      1.0  0.68347  0.25440  0.35457  1.0000
  H   H1506     1.0  0.91643  0.27358  0.38831  1.0000
  C   C854      1.0  0.87175  0.26998  0.36660  1.0000
  C   C855      1.0  0.84682  0.22456  0.34578  1.0000
  C   C856      1.0  0.71567  0.43003  0.14151  1.0000
  H   H1507     1.0  0.96113  0.03744  0.11356  1.0000
  N   N47       1.0  0.69053  0.22087  0.36186  1.0000
  H   H1508     1.0  0.91269  0.32832  0.40227  1.0000
  H   H1509     1.0  0.69048  0.15746  0.34094  1.0000
  H   H1510     1.0  0.81145  0.33939  0.45687  1.0000
  H   H1511     1.0  0.85832  0.02830  0.01559  1.0000
  S   S187      1.0  0.67780  0.42506  0.27520  1.0000
  H   H1512     1.0  0.89452  0.24654  0.26062  1.0000
  C   C857      1.0  0.91743  0.16634  0.38399  1.0000
  H   H1513     1.0  0.91555  0.21089  0.25746  1.0000
  C   C858      1.0  0.72399  0.15935  0.30727  1.0000
  H   H1514     1.0  0.91232  0.29776  0.35662  1.0000
  H   H1515     1.0  0.83150  0.24861  0.30583  1.0000
  H   H1516     1.0  0.79794  0.20337  0.31180  1.0000
  C   C859      1.0  0.73624  0.02013  0.25400  1.0000
  H   H1517     1.0  0.83665  0.21898  0.36745  1.0000
  N   N48       1.0  0.87712  0.23990  0.35026  1.0000
  C   C860      1.0  0.90036  0.28831  0.37598  1.0000
  C   C861      1.0  0.76414  0.47539  0.24415  1.0000
  C   C862      1.0  0.92921  0.05094  0.25845  1.0000
  N   N49       1.0  0.77260  0.34841  0.40471  1.0000
  H   H1518     1.0  0.81699  0.26535  0.33916  1.0000
  H   H1519     1.0  0.75704  0.38211  0.34928  1.0000
  H   H1520     1.0  0.85826  0.26529  0.38669  1.0000
  H   H1521     1.0  0.72730  0.34526  0.44895  1.0000
  C   C863      1.0  0.89222  0.24775  0.32166  1.0000
  C   C864      1.0  0.89724  0.21943  0.36899  1.0000
  C   C865      1.0  0.92150  0.25484  0.44882  1.0000
  H   H1522     1.0  0.92509  0.99677  0.09358  1.0000
  H   H1523     1.0  0.89332  0.22432  0.39260  1.0000
  C   C866      1.0  0.73641  0.19341  0.43096  1.0000
  C   C867      1.0  0.89188  0.31593  0.39540  1.0000
  S   S188      1.0  0.99628  0.24092  0.36094  1.0000
  Fe  Fe93      1.0  0.68397  0.38577  0.30706  1.0000
  H   H1524     1.0  0.81153  0.02045  0.23605  1.0000
  H   H1525     1.0  0.79051  0.39623  0.36726  1.0000
  H   H1526     1.0  0.72877  0.13399  0.30864  1.0000
  H   H1527     1.0  0.74712  0.40626  0.17070  1.0000
  H   H1528     1.0  0.69179  0.39875  0.42066  1.0000
  H   H1529     1.0  0.99421  0.42402  0.17253  1.0000
  H   H1530     1.0  0.78938  0.98592  0.31297  1.0000
  H   H1531     1.0  0.79407  0.06664  0.97590  1.0000
  H   H1532     1.0  0.73600  0.21544  0.44366  1.0000
  H   H1533     1.0  0.74540  0.17148  0.30187  1.0000
  H   H1534     1.0  0.84961  0.01073  0.16945  1.0000
  H   H1535     1.0  0.67909  0.43031  0.17134  1.0000
  H   H1536     1.0  0.97475  0.43872  0.07910  1.0000
  C   C868      1.0  0.80302  0.05083  0.18095  1.0000
  H   H1537     1.0  0.95136  0.15765  0.23863  1.0000
  C   C869      1.0  0.89701  0.00784  0.05570  1.0000
  H   H1538     1.0  0.70001  0.42288  0.12376  1.0000
  H   H1539     1.0  0.78710  0.09642  0.16731  1.0000
  C   C870      1.0  0.96557  0.44994  0.09911  1.0000
  H   H1540     1.0  0.91568  0.01828  0.04292  1.0000
  H   H1541     1.0  0.73867  0.38565  0.44797  1.0000
  H   H1542     1.0  0.69110  0.21115  0.31529  1.0000
  S   S189      1.0  0.98375  0.01194  0.05805  1.0000
  N   N50       1.0  0.68529  0.47877  0.15967  1.0000
  Fe  Fe94      1.0  0.99110  0.24037  0.40974  1.0000
  H   H1543     1.0  0.82059  0.05120  0.16375  1.0000
  H   H1544     1.0  0.72570  0.34853  0.39177  1.0000
  H   H1545     1.0  0.88399  0.46563  0.02316  1.0000
  H   H1546     1.0  0.95283  0.11050  0.25478  1.0000
  H   H1547     1.0  0.73405  0.17374  0.44654  1.0000
  H   H1548     1.0  0.72259  0.26776  0.32740  1.0000
  H   H1549     1.0  0.92930  0.02853  0.27053  1.0000
  H   H1550     1.0  0.72849  0.98893  0.97613  1.0000
  Fe  Fe95      1.0  0.98349  0.02613  0.01058  1.0000
  C   C871      1.0  0.98517  0.12116  0.34809  1.0000
  H   H1551     1.0  0.82560  0.98453  0.15108  1.0000
  H   H1552     1.0  0.97291  0.13351  0.19357  1.0000
  S   S190      1.0  0.67749  0.39031  0.35576  1.0000
  C   C872      1.0  0.82745  0.00511  0.22394  1.0000
  C   C873      1.0  0.77461  0.99534  0.29635  1.0000
  H   H1553     1.0  0.95240  0.29334  0.45066  1.0000
  H   H1554     1.0  0.98540  0.07727  0.18865  1.0000
  H   H1555     1.0  0.78071  0.01061  0.16431  1.0000
  C   C874      1.0  0.91067  0.98469  0.07732  1.0000
  C   C875      1.0  0.99164  0.46159  0.11797  1.0000
  C   C876      1.0  0.85666  0.99501  0.27102  1.0000
  H   H1556     1.0  0.66484  0.18033  0.37564  1.0000
  H   H1557     1.0  0.99763  0.20028  0.20889  1.0000
  C   C877      1.0  0.97976  0.47834  0.14579  1.0000
  H   H1558     1.0  0.99798  0.43983  0.20883  1.0000
  H   H1559     1.0  0.90311  0.47949  0.05545  1.0000
  H   H1560     1.0  0.68855  0.98315  0.01520  1.0000
  H   H1561     1.0  0.82687  0.44861  0.85287  1.0000
  H   H1562     1.0  0.92684  0.46630  0.82759  1.0000
  Fe  Fe96      1.0  0.77475  0.03187  0.88197  1.0000
  S   S191      1.0  0.80447  0.99027  0.87478  1.0000
  S   S192      1.0  0.78960  0.07972  0.86628  1.0000
  H   H1563     1.0  0.97142  0.11713  0.86049  1.0000
  C   C878      1.0  0.75033  0.35877  0.71022  1.0000
  C   C879      1.0  0.98825  0.06995  0.89893  1.0000
  S   S193      1.0  0.73282  0.00863  0.86487  1.0000
  H   H1564     1.0  0.98819  0.04650  0.66193  1.0000
  H   H1565     1.0  0.89709  0.27759  0.75956  1.0000
  Fe  Fe97      1.0  0.81688  0.29546  0.52456  1.0000
  S   S194      1.0  0.79561  0.24952  0.51380  1.0000
  S   S195      1.0  0.85831  0.31630  0.50310  1.0000
  Fe  Fe98      1.0  0.76596  0.31335  0.56749  1.0000
  S   S196      1.0  0.74096  0.26889  0.55934  1.0000
  S   S197      1.0  0.74924  0.35305  0.59603  1.0000
  Fe  Fe99      1.0  0.78717  0.24678  0.56243  1.0000
  S   S198      1.0  0.79436  0.20374  0.59032  1.0000
  Fe  Fe100     1.0  0.75166  0.27599  0.51174  1.0000
  C   C880      1.0  0.69686  0.36934  0.53847  1.0000
  S   S199      1.0  0.81143  0.29110  0.57328  1.0000
  S   S200      1.0  0.77384  0.32205  0.51990  1.0000
  H   H1566     1.0  0.67029  0.24641  0.54147  1.0000
  Fe  Fe101     1.0  0.92139  0.11889  0.74951  1.0000
  S   S201      1.0  0.93501  0.10747  0.70307  1.0000
  S   S202      1.0  0.89676  0.08077  0.77415  1.0000
  Fe  Fe102     1.0  0.96290  0.17572  0.75201  1.0000
  S   S203      1.0  0.98011  0.16714  0.70691  1.0000
  S   S204      1.0  0.97701  0.21825  0.77791  1.0000
  Fe  Fe103     1.0  0.93153  0.15919  0.69507  1.0000
  S   S205      1.0  0.92075  0.18786  0.65453  1.0000
  Fe  Fe104     1.0  0.98186  0.11664  0.71923  1.0000
  H   H1567     1.0  0.83288  0.19032  0.50769  1.0000
  S   S206      1.0  0.91393  0.16993  0.74016  1.0000
  S   S207      1.0  0.96877  0.12589  0.76568  1.0000
  S   S208      1.0  0.74932  0.47394  0.89950  1.0000
  H   H1568     1.0  0.78097  0.37869  0.76048  1.0000
  H   H1569     1.0  0.68098  0.38686  0.73143  1.0000
  C   C881      1.0  0.93754  0.23016  0.53308  1.0000
  H   H1570     1.0  0.76434  0.05913  0.77883  1.0000
  C   C882      1.0  0.82882  0.20012  0.60960  1.0000
  C   C883      1.0  0.83279  0.17610  0.63015  1.0000
  C   C884      1.0  0.86053  0.17236  0.64492  1.0000
  C   C885      1.0  0.88454  0.19244  0.63886  1.0000
  C   C886      1.0  0.88040  0.21641  0.61850  1.0000
  C   C887      1.0  0.85275  0.22037  0.60402  1.0000
  H   H1571     1.0  0.81439  0.16026  0.63454  1.0000
  H   H1572     1.0  0.86347  0.15366  0.66050  1.0000
  H   H1573     1.0  0.89882  0.23180  0.61371  1.0000
  H   H1574     1.0  0.85016  0.23867  0.58805  1.0000
  C   C888      1.0  0.71405  0.34812  0.61330  1.0000
  C   C889      1.0  0.67977  0.23394  0.47860  1.0000
  C   C890      1.0  0.89173  0.46854  0.94509  1.0000
  H   H1575     1.0  0.93907  0.98589  0.83093  1.0000
  C   C891      1.0  0.92458  0.25004  0.55842  1.0000
  N   N51       1.0  0.72842  0.38372  0.71986  1.0000
  H   H1576     1.0  0.67571  0.34669  0.50268  1.0000
  C   C892      1.0  0.80413  0.34437  0.69600  1.0000
  H   H1577     1.0  0.68939  0.35890  0.70382  1.0000
  H   H1578     1.0  0.84748  0.11580  0.89047  1.0000
  H   H1579     1.0  0.94384  0.05247  0.91111  1.0000
  H   H1580     1.0  0.82541  0.35344  0.68645  1.0000
  C   C893      1.0  0.88188  0.29281  0.48124  1.0000
  H   H1581     1.0  0.71530  0.40669  0.51157  1.0000
  C   C894      1.0  0.66507  0.32813  0.74862  1.0000
  C   C895      1.0  0.82062  0.08160  0.84194  1.0000
  C   C896      1.0  0.82552  0.10824  0.82472  1.0000
  C   C897      1.0  0.84946  0.10916  0.80432  1.0000
  C   C898      1.0  0.86832  0.08325  0.80101  1.0000
  C   C899      1.0  0.86391  0.05723  0.81890  1.0000
  C   C900      1.0  0.84060  0.05663  0.83951  1.0000
  H   H1582     1.0  0.81042  0.12793  0.82672  1.0000
  H   H1583     1.0  0.85268  0.12941  0.79063  1.0000
  H   H1584     1.0  0.87876  0.03744  0.81696  1.0000
  H   H1585     1.0  0.83834  0.03686  0.85365  1.0000
  H   H1586     1.0  0.74681  0.41955  0.69171  1.0000
  C   C901      1.0  0.78095  0.37066  0.69812  1.0000
  H   H1587     1.0  0.93688  0.13845  0.57035  1.0000
  H   H1588     1.0  0.94914  0.43634  0.90094  1.0000
  H   H1589     1.0  0.95116  0.02006  0.87283  1.0000
  C   C902      1.0  0.88438  0.98671  0.73597  1.0000
  C   C903      1.0  0.70011  0.43141  0.69797  1.0000
  C   C904      1.0  0.72213  0.38353  0.52009  1.0000
  H   H1590     1.0  0.74258  0.38653  0.53384  1.0000
  C   C905      1.0  0.67283  0.31520  0.62923  1.0000
  S   S209      1.0  0.76352  0.02054  0.92897  1.0000
  C   C906      1.0  0.76183  0.40168  0.79765  1.0000
  C   C907      1.0  0.94258  0.06470  0.85007  1.0000
  H   H1591     1.0  0.91730  0.32707  0.47911  1.0000
  N   N52       1.0  0.93552  0.19538  0.53709  1.0000
  C   C908      1.0  0.87995  0.19670  0.51915  1.0000
  C   C909      1.0  0.90336  0.18504  0.54181  1.0000
  H   H1592     1.0  0.72130  0.39394  0.67410  1.0000
  C   C910      1.0  0.99423  0.99952  0.72905  1.0000
  C   C911      1.0  0.69809  0.37423  0.62340  1.0000
  H   H1593     1.0  0.98541  0.27434  0.63718  1.0000
  H   H1594     1.0  0.89924  0.13249  0.90228  1.0000
  H   H1595     1.0  0.83181  0.42585  0.82020  1.0000
  C   C912      1.0  0.92590  0.47117  0.87511  1.0000
  H   H1596     1.0  0.67675  0.27161  0.57228  1.0000
  C   C913      1.0  0.70314  0.45664  0.67462  1.0000
  H   H1597     1.0  0.81749  0.04494  0.77330  1.0000
  H   H1598     1.0  0.90205  0.15919  0.54177  1.0000
  H   H1599     1.0  0.89516  0.19205  0.56382  1.0000
  C   C914      1.0  0.86637  0.46089  0.82681  1.0000
  H   H1600     1.0  0.67799  0.29888  0.52283  1.0000
  H   H1601     1.0  0.88095  0.44316  0.83738  1.0000
  S   S210      1.0  0.72116  0.28166  0.47195  1.0000
  H   H1602     1.0  0.87104  0.98359  0.80640  1.0000
  H   H1603     1.0  0.85056  0.15612  0.52265  1.0000
  H   H1604     1.0  0.84044  0.18820  0.54629  1.0000
  H   H1605     1.0  0.90018  0.24551  0.56148  1.0000
  H   H1606     1.0  0.90576  0.13933  0.85092  1.0000
  H   H1607     1.0  0.75410  0.01935  0.78676  1.0000
  H   H1608     1.0  0.89034  0.09092  0.86265  1.0000
  H   H1609     1.0  0.90370  0.46086  0.88053  1.0000
  H   H1610     1.0  0.90400  0.28279  0.70719  1.0000
  H   H1611     1.0  0.70523  0.34695  0.54749  1.0000
  H   H1612     1.0  0.92909  0.12159  0.82347  1.0000
  H   H1613     1.0  0.92794  0.07158  0.83145  1.0000
  H   H1614     1.0  0.90295  0.10154  0.92847  1.0000
  H   H1615     1.0  0.91908  0.29834  0.57120  1.0000
  H   H1616     1.0  0.94226  0.19456  0.58398  1.0000
  H   H1617     1.0  0.91416  0.24228  0.74610  1.0000
  C   C915      1.0  0.87300  0.26300  0.47277  1.0000
  H   H1618     1.0  0.69048  0.47349  0.76346  1.0000
  H   H1619     1.0  0.93065  0.01931  0.80850  1.0000
  H   H1620     1.0  0.77866  0.36166  0.46593  1.0000
  C   C916      1.0  0.82024  0.38685  0.46766  1.0000
  C   C917      1.0  0.83382  0.44959  0.82955  1.0000
  H   H1621     1.0  0.71299  0.32508  0.74555  1.0000
  H   H1622     1.0  0.77160  0.42499  0.79311  1.0000
  C   C918      1.0  0.95364  0.18623  0.56371  1.0000
  H   H1623     1.0  0.99466  0.28159  0.78935  1.0000
  H   H1624     1.0  0.89616  0.06194  0.88939  1.0000
  H   H1625     1.0  0.72784  0.36804  0.50150  1.0000
  H   H1626     1.0  0.97949  0.04003  0.62379  1.0000
  H   H1627     1.0  0.82174  0.00415  0.80908  1.0000
  H   H1628     1.0  0.70248  0.44620  0.65242  1.0000
  H   H1629     1.0  0.85084  0.08291  0.91494  1.0000
  H   H1630     1.0  0.90934  0.03014  0.73105  1.0000
  H   H1631     1.0  0.70763  0.39718  0.62053  1.0000
  H   H1632     1.0  0.75519  0.34212  0.72810  1.0000
  H   H1633     1.0  0.98541  0.20942  0.49623  1.0000
  C   C919      1.0  0.95372  0.07455  0.90268  1.0000
  C   C920      1.0  0.68683  0.26217  0.46510  1.0000
  C   C921      1.0  0.85738  0.00100  0.75298  1.0000
  H   H1634     1.0  0.71389  0.29827  0.60958  1.0000
  H   H1635     1.0  0.91907  0.00044  0.70500  1.0000
  C   C922      1.0  0.91035  0.30393  0.47271  1.0000
  C   C923      1.0  0.66840  0.36364  0.51957  1.0000
  C   C924      1.0  0.99166  0.16396  0.47802  1.0000
  C   C925      1.0  0.70154  0.31857  0.61673  1.0000
  C   C926      1.0  0.94763  0.11799  0.86826  1.0000
  H   H1636     1.0  0.77780  0.38011  0.67569  1.0000
  H   H1637     1.0  0.85163  0.12203  0.92914  1.0000
  H   H1638     1.0  0.69263  0.38568  0.55671  1.0000
  C   C927      1.0  0.90005  0.01126  0.71714  1.0000
  H   H1639     1.0  0.96269  0.34733  0.70234  1.0000
  H   H1640     1.0  0.69901  0.44030  0.85149  1.0000
  C   C928      1.0  0.68754  0.44004  0.83062  1.0000
  H   H1641     1.0  0.91571  0.29161  0.53269  1.0000
  H   H1642     1.0  0.77726  0.04103  0.81203  1.0000
  H   H1643     1.0  0.75219  0.42207  0.74083  1.0000
  C   C929      1.0  0.89295  0.10808  0.90713  1.0000
  C   C930      1.0  0.99664  0.04919  0.63922  1.0000
  C   C931      1.0  0.98134  0.18497  0.50304  1.0000
  H   H1644     1.0  0.69522  0.22387  0.49429  1.0000
  H   H1645     1.0  0.99376  0.03388  0.93211  1.0000
  C   C932      1.0  0.94963  0.44557  0.87825  1.0000
  H   H1646     1.0  0.89712  0.32590  0.62413  1.0000
  H   H1647     1.0  0.74818  0.36030  0.77518  1.0000
  H   H1648     1.0  0.93521  0.18867  0.49013  1.0000
  H   H1649     1.0  0.94315  0.24487  0.69776  1.0000
  C   C933      1.0  0.90357  0.08558  0.88264  1.0000
  H   H1650     1.0  0.97299  0.98755  0.73200  1.0000
  C   C934      1.0  0.89031  0.02564  0.95305  1.0000
  H   H1651     1.0  0.70090  0.44270  0.71973  1.0000
  C   C935      1.0  0.99439  0.03184  0.72387  1.0000
  H   H1652     1.0  0.79559  0.32548  0.68162  1.0000
  C   C936      1.0  0.77236  0.03693  0.78855  1.0000
  H   H1653     1.0  0.81828  0.46525  0.81741  1.0000
  C   C937      1.0  0.75808  0.38307  0.76940  1.0000
  H   H1654     1.0  0.87855  0.31478  0.65788  1.0000
  H   H1655     1.0  0.94339  0.18196  0.85674  1.0000
  H   H1656     1.0  0.94273  0.15446  0.51025  1.0000
  S   S211      1.0  0.83682  0.46502  0.91709  1.0000
  H   H1657     1.0  0.73969  0.40473  0.80866  1.0000
  H   H1658     1.0  0.79034  0.38944  0.71202  1.0000
  H   H1659     1.0  0.93673  0.27083  0.76523  1.0000
  H   H1660     1.0  0.87194  0.46165  0.80322  1.0000
  H   H1661     1.0  0.87362  0.29172  0.62537  1.0000
  Fe  Fe105     1.0  0.72457  0.99254  0.91102  1.0000
  C   C938      1.0  0.92832  0.28479  0.55256  1.0000
  H   H1662     1.0  0.90920  0.26594  0.65948  1.0000
  H   H1663     1.0  0.96857  0.01302  0.82179  1.0000
  H   H1664     1.0  0.89111  0.44337  0.94544  1.0000
  C   C939      1.0  0.69600  0.34370  0.74869  1.0000
  C   C940      1.0  0.66964  0.37082  0.63669  1.0000
  H   H1665     1.0  0.67764  0.42053  0.69496  1.0000
  H   H1666     1.0  0.71873  0.41080  0.75864  1.0000
  H   H1667     1.0  0.97336  0.04460  0.72278  1.0000
  H   H1668     1.0  0.80914  0.33472  0.71799  1.0000
  C   C941      1.0  0.85866  0.10703  0.91058  1.0000
  H   H1669     1.0  0.96683  0.16403  0.82897  1.0000
  H   H1670     1.0  0.87704  0.22227  0.52078  1.0000
  H   H1671     1.0  0.97698  0.32346  0.73187  1.0000
  H   H1672     1.0  0.77711  0.38909  0.81282  1.0000
  H   H1673     1.0  0.88407  0.02150  0.70108  1.0000
  C   C942      1.0  0.81391  0.99618  0.78723  1.0000
  C   C943      1.0  0.94334  0.16680  0.83708  1.0000
  H   H1674     1.0  0.85113  0.25427  0.47908  1.0000
  C   C944      1.0  0.73863  0.40120  0.74684  1.0000
  C   C945      1.0  0.72534  0.40658  0.69492  1.0000
  H   H1675     1.0  0.92635  0.23747  0.51239  1.0000
  H   H1676     1.0  0.72461  0.46960  0.67741  1.0000
  H   H1677     1.0  0.82358  0.38119  0.49115  1.0000
  H   H1678     1.0  0.93663  0.24501  0.57909  1.0000
  H   H1679     1.0  0.84328  0.01319  0.73657  1.0000
  H   H1680     1.0  0.86657  0.01980  0.76712  1.0000
  H   H1681     1.0  0.97142  0.14042  0.54975  1.0000
  H   H1682     1.0  0.92694  0.27656  0.62560  1.0000
  C   C946      1.0  0.92942  0.13515  0.84406  1.0000
  H   H1683     1.0  0.92901  0.30870  0.72579  1.0000
  H   H1684     1.0  0.69895  0.35445  0.77057  1.0000
  H   H1685     1.0  0.97602  0.19794  0.56369  1.0000
  N   N53       1.0  0.93689  0.08569  0.87596  1.0000
  H   H1686     1.0  0.96150  0.23731  0.53048  1.0000
  H   H1687     1.0  0.98025  0.11910  0.59876  1.0000
  H   H1688     1.0  0.96601  0.06764  0.84172  1.0000
  H   H1689     1.0  0.95099  0.09142  0.92092  1.0000
  H   H1690     1.0  0.94814  0.13314  0.88799  1.0000
  H   H1691     1.0  0.80962  0.41022  0.46610  1.0000
  H   H1692     1.0  0.96939  0.26317  0.72097  1.0000
  H   H1693     1.0  0.91294  0.02500  0.86049  1.0000
  H   H1694     1.0  0.92998  0.17849  0.81969  1.0000
  H   H1695     1.0  0.79455  0.02184  0.74942  1.0000
  N   N54       1.0  0.96481  0.28570  0.67889  1.0000
  C   C947      1.0  0.94172  0.30487  0.66255  1.0000
  C   C948      1.0  0.99024  0.30668  0.68859  1.0000
  C   C949      1.0  0.97789  0.26240  0.65754  1.0000
  C   C950      1.0  0.95151  0.26826  0.70459  1.0000
  C   C951      1.0  0.92468  0.28395  0.72080  1.0000
  C   C952      1.0  0.91724  0.28589  0.64619  1.0000
  C   C953      1.0  0.68290  0.45838  0.78086  1.0000
  C   C954      1.0  0.98212  0.33331  0.70998  1.0000
  H   H1696     1.0  0.99353  0.05315  0.88126  1.0000
  C   C955      1.0  0.91780  0.26757  0.74964  1.0000
  C   C956      1.0  0.89004  0.30595  0.63794  1.0000
  H   H1697     1.0  0.67385  0.02739  0.83777  1.0000
  H   H1698     1.0  0.95308  0.31980  0.64594  1.0000
  H   H1699     1.0  0.93007  0.32153  0.67719  1.0000
  C   C957      1.0  0.93691  0.02944  0.85497  1.0000
  H   H1700     1.0  0.68414  0.47336  0.67653  1.0000
  C   C958      1.0  0.69788  0.36905  0.72473  1.0000
  H   H1701     1.0  0.96027  0.24542  0.65074  1.0000
  C   C959      1.0  0.94425  0.01087  0.82732  1.0000
  C   C960      1.0  0.84913  0.18186  0.52435  1.0000
  H   H1702     1.0  0.88682  0.19072  0.49659  1.0000
  H   H1703     1.0  0.99268  0.20028  0.64532  1.0000
  C   C961      1.0  0.86370  0.00911  0.94705  1.0000
  C   C962      1.0  0.97676  0.14454  0.59609  1.0000
  H   H1704     1.0  0.74002  0.34431  0.69258  1.0000
  C   C963      1.0  0.95871  0.15080  0.56822  1.0000
  H   H1705     1.0  0.84695  0.01881  0.93243  1.0000
  C   C964      1.0  0.94737  0.17991  0.50977  1.0000
  H   H1706     1.0  0.99589  0.17978  0.52210  1.0000
  H   H1707     1.0  0.98871  0.13906  0.48383  1.0000
  H   H1708     1.0  0.96435  0.15322  0.61557  1.0000
  H   H1709     1.0  0.99750  0.07319  0.94578  1.0000
  H   H1710     1.0  0.95249  0.29083  0.54971  1.0000
  H   H1711     1.0  0.97254  0.45490  0.87385  1.0000
  H   H1712     1.0  0.94484  0.42612  0.86296  1.0000
  H   H1713     1.0  0.89383  0.04809  0.94309  1.0000
  C   C965      1.0  0.80068  0.02580  0.77255  1.0000
  C   C966      1.0  0.69742  0.45942  0.80807  1.0000
  Fe  Fe106     1.0  0.71532  0.90392  0.27571  1.0000
  S   S212      1.0  0.73270  0.87270  0.24014  1.0000
  S   S213      1.0  0.74826  0.93762  0.29659  1.0000
  Fe  Fe107     1.0  0.70815  0.83418  0.26331  1.0000
  S   S214      1.0  0.72569  0.78658  0.27749  1.0000
  S   S215      1.0  0.69368  0.86466  0.30088  1.0000
  Fe  Fe108     1.0  0.83885  0.66029  0.21911  1.0000
  S   S216      1.0  0.84497  0.64605  0.26596  1.0000
  S   S217      1.0  0.81839  0.70571  0.20316  1.0000
  C   C967      1.0  0.85108  0.77996  0.38615  1.0000
  H   H1714     1.0  0.67080  0.55859  0.23412  1.0000
  C   C968      1.0  0.95566  0.62856  0.04089  1.0000
  C   C969      1.0  0.78293  0.53486  0.26330  1.0000
  H   H1715     1.0  0.69737  0.52715  0.16589  1.0000
  Fe  Fe109     1.0  0.89128  0.63093  0.25173  1.0000
  S   S218      1.0  0.93591  0.63776  0.27479  1.0000
  H   H1716     1.0  0.99576  0.68237  0.21489  1.0000
  S   S219      1.0  0.88643  0.64847  0.20576  1.0000
  H   H1717     1.0  0.76134  0.78092  0.43495  1.0000
  H   H1718     1.0  0.97867  0.56160  0.33578  1.0000
  H   H1719     1.0  0.68758  0.62259  0.26167  1.0000
  Fe  Fe110     1.0  0.68820  0.88318  0.21829  1.0000
  H   H1720     1.0  0.81119  0.53510  0.22502  1.0000
  Fe  Fe111     1.0  0.98919  0.52432  0.99659  1.0000
  N   N55       1.0  0.66692  0.78711  0.36674  1.0000
  H   H1721     1.0  0.77771  0.96841  0.21873  1.0000
  H   H1722     1.0  0.67538  0.56663  0.27277  1.0000
  H   H1723     1.0  0.69852  0.76649  0.33588  1.0000
  C   C970      1.0  0.80306  0.80727  0.42966  1.0000
  H   H1724     1.0  0.85587  0.75653  0.32898  1.0000
  H   H1725     1.0  0.67470  0.50944  0.07285  1.0000
  C   C971      1.0  0.78520  0.49268  0.22798  1.0000
  C   C972      1.0  0.86039  0.96333  0.17822  1.0000
  H   H1726     1.0  0.77258  0.62419  0.30703  1.0000
  H   H1727     1.0  0.98806  0.60091  0.34613  1.0000
  H   H1728     1.0  0.89750  0.94024  0.15611  1.0000
  H   H1729     1.0  0.89818  0.57235  0.38970  1.0000
  H   H1730     1.0  0.85123  0.96157  0.23686  1.0000
  C   C973      1.0  0.70131  0.91910  0.05845  1.0000
  C   C974      1.0  0.75192  0.48828  0.26963  1.0000
  C   C975      1.0  0.93872  0.66267  0.30518  1.0000
  C   C976      1.0  0.96684  0.66669  0.31877  1.0000
  C   C977      1.0  0.96926  0.68409  0.34468  1.0000
  C   C978      1.0  0.94340  0.69690  0.35739  1.0000
  C   C979      1.0  0.91543  0.69349  0.34342  1.0000
  C   C980      1.0  0.91319  0.67690  0.31710  1.0000
  H   H1731     1.0  0.98669  0.65572  0.30961  1.0000
  H   H1732     1.0  0.99087  0.68653  0.35543  1.0000
  H   H1733     1.0  0.83648  0.54328  0.37528  1.0000
  H   H1734     1.0  0.89161  0.67442  0.30640  1.0000
  H   H1735     1.0  0.84741  0.66549  0.33746  1.0000
  H   H1736     1.0  0.93491  0.61553  0.34893  1.0000
  H   H1737     1.0  0.91603  0.57938  0.30897  1.0000
  H   H1738     1.0  0.93943  0.84835  0.42308  1.0000
  H   H1739     1.0  0.92428  0.97471  0.99946  1.0000
  H   H1740     1.0  0.84994  0.94076  0.18400  1.0000
  C   C981      1.0  0.96784  0.53177  0.18903  1.0000
  C   C982      1.0  0.91579  0.57143  0.33221  1.0000
  H   H1741     1.0  0.94087  0.52554  0.22851  1.0000
  H   H1742     1.0  0.81763  0.96964  0.25718  1.0000
  H   H1743     1.0  0.91024  0.52983  0.11731  1.0000
  H   H1744     1.0  0.72241  0.69203  0.23042  1.0000
  H   H1745     1.0  0.86596  0.94928  0.13277  1.0000
  C   C983      1.0  0.90337  0.81441  0.41925  1.0000
  H   H1746     1.0  0.82318  0.73177  0.33068  1.0000
  H   H1747     1.0  0.71516  0.97475  0.25366  1.0000
  C   C984      1.0  0.71952  0.94769  0.00227  1.0000
  H   H1748     1.0  0.81491  0.74490  0.38226  1.0000
  H   H1749     1.0  0.86774  0.81445  0.45146  1.0000
  C   C985      1.0  0.75202  0.76499  0.25669  1.0000
  C   C986      1.0  0.76616  0.73903  0.26945  1.0000
  C   C987      1.0  0.78696  0.72105  0.25345  1.0000
  C   C988      1.0  0.79322  0.72841  0.22432  1.0000
  C   C989      1.0  0.77903  0.75430  0.21155  1.0000
  C   C990      1.0  0.75861  0.77265  0.22770  1.0000
  H   H1750     1.0  0.76129  0.73305  0.29190  1.0000
  H   H1751     1.0  0.79840  0.70171  0.26361  1.0000
  H   H1752     1.0  0.78390  0.76025  0.18906  1.0000
  H   H1753     1.0  0.74783  0.79256  0.21765  1.0000
  S   S220      1.0  0.87958  0.57012  0.15704  1.0000
  C   C991      1.0  0.70203  0.96511  0.02677  1.0000
  H   H1754     1.0  0.72519  0.92677  0.06100  1.0000
  C   C992      1.0  0.85886  0.72264  0.43719  1.0000
  C   C993      1.0  0.83602  0.64976  0.35322  1.0000
  H   H1755     1.0  0.83426  0.53202  0.42794  1.0000
  H   H1756     1.0  0.86316  0.97687  0.28713  1.0000
  C   C994      1.0  0.91497  0.84655  0.42809  1.0000
  C   C995      1.0  0.85857  0.98033  0.96038  1.0000
  C   C996      1.0  0.66747  0.81446  0.38749  1.0000
  H   H1757     1.0  0.76260  0.96435  0.16534  1.0000
  C   C997      1.0  0.68729  0.55999  0.25233  1.0000
  H   H1758     1.0  0.75187  0.48357  0.15760  1.0000
  C   C998      1.0  0.69735  0.78575  0.35194  1.0000
  H   H1759     1.0  0.74073  0.67973  0.18332  1.0000
  H   H1760     1.0  0.70085  0.80729  0.33879  1.0000
  H   H1761     1.0  0.97057  0.79553  0.28494  1.0000
  H   H1762     1.0  0.82750  0.60111  0.35942  1.0000
  C   C999      1.0  0.72508  0.78218  0.37233  1.0000
  C   C1000     1.0  0.88033  0.51549  0.03003  1.0000
  S   S221      1.0  0.70638  0.51408  0.96131  1.0000
  C   C1001     1.0  0.75266  0.65721  0.18598  1.0000
  C   C1002     1.0  0.88432  0.55839  0.37430  1.0000
  C   C1003     1.0  0.75393  0.77776  0.35458  1.0000
  H   H1763     1.0  0.84457  0.65456  0.37559  1.0000
  H   H1764     1.0  0.69744  0.53656  0.25552  1.0000
  H   H1765     1.0  0.67534  0.75732  0.40408  1.0000
  C   C1004     1.0  0.86179  0.57179  0.06744  1.0000
  H   H1766     1.0  0.87290  0.54405  0.43247  1.0000
  H   H1767     1.0  0.98051  0.55125  0.17899  1.0000
  H   H1768     1.0  0.68415  0.81065  0.40530  1.0000
  H   H1769     1.0  0.72383  0.57476  0.22543  1.0000
  H   H1770     1.0  0.86539  0.61520  0.09241  1.0000
  C   C1005     1.0  0.87551  0.60735  0.34624  1.0000
  H   H1771     1.0  0.67548  0.70051  0.40765  1.0000
  H   H1772     1.0  0.72833  0.80340  0.38576  1.0000
  H   H1773     1.0  0.72264  0.76182  0.38704  1.0000
  C   C1006     1.0  0.97106  0.57769  0.11111  1.0000
  H   H1774     1.0  0.73280  0.67784  0.28516  1.0000
  H   H1775     1.0  0.89567  0.53528  0.37335  1.0000
  H   H1776     1.0  0.78602  0.66244  0.29705  1.0000
  C   C1007     1.0  0.82870  0.58653  0.97745  1.0000
  H   H1777     1.0  0.94279  0.64995  0.03536  1.0000
  C   C1008     1.0  0.93725  0.59953  0.03366  1.0000
  C   C1009     1.0  0.73941  0.65291  0.28447  1.0000
  H   H1778     1.0  0.90714  0.81183  0.39546  1.0000
  H   H1779     1.0  0.76017  0.65783  0.32706  1.0000
  H   H1780     1.0  0.75718  0.79749  0.33918  1.0000
  H   H1781     1.0  0.77348  0.77691  0.36961  1.0000
  H   H1782     1.0  0.75304  0.75570  0.34198  1.0000
  H   H1783     1.0  0.74417  0.55425  0.15011  1.0000
  H   H1784     1.0  0.98935  0.71813  0.28825  1.0000
  H   H1785     1.0  0.97352  0.55054  0.23300  1.0000
  H   H1786     1.0  0.68041  0.61521  0.22440  1.0000
  H   H1787     1.0  0.94248  0.58244  0.37177  1.0000
  C   C1010     1.0  0.82030  0.59811  0.09705  1.0000
  S   S222      1.0  0.94935  0.53837  0.96815  1.0000
  H   H1788     1.0  0.73498  0.88076  0.09564  1.0000
  C   C1011     1.0  0.92464  0.54970  0.12115  1.0000
  H   H1789     1.0  0.81213  0.62084  0.10549  1.0000
  C   C1012     1.0  0.74123  0.96972  0.98674  1.0000
  H   H1790     1.0  0.84278  0.55648  0.06115  1.0000
  H   H1791     1.0  0.70484  0.85777  0.07977  1.0000
  H   H1792     1.0  0.77395  0.62355  0.15660  1.0000
  H   H1793     1.0  0.95198  0.57908  0.03795  1.0000
  S   S223      1.0  0.82049  0.61387  0.20488  1.0000
  C   C1013     1.0  0.90840  0.59757  0.05281  1.0000
  H   H1794     1.0  0.87673  0.94574  0.98966  1.0000
  H   H1795     1.0  0.89859  0.62142  0.05358  1.0000
  H   H1796     1.0  0.81261  0.82873  0.43949  1.0000
  H   H1797     1.0  0.93160  0.60006  0.01004  1.0000
  H   H1798     1.0  0.85755  0.83073  0.41706  1.0000
  C   C1014     1.0  0.83771  0.98044  0.24677  1.0000
  H   H1799     1.0  0.92764  0.61625  0.16115  1.0000
  H   H1800     1.0  0.73309  0.92804  0.01088  1.0000
  H   H1801     1.0  0.87003  0.50846  0.33925  1.0000
  C   C1015     1.0  0.91540  0.57300  0.14064  1.0000
  C   C1016     1.0  0.84141  0.61571  0.34490  1.0000
  C   C1017     1.0  0.95236  0.55204  0.10646  1.0000
  H   H1802     1.0  0.69840  0.92336  0.10620  1.0000
  S   S224      1.0  0.79590  0.57095  0.27701  1.0000
  C   C1018     1.0  0.71214  0.58343  0.24523  1.0000
  H   H1803     1.0  0.72831  0.58317  0.26374  1.0000
  C   C1019     1.0  0.71031  0.87627  0.09586  1.0000
  Fe  Fe112     1.0  0.86872  0.60084  0.19578  1.0000
  C   C1020     1.0  0.98802  0.50258  0.19362  1.0000
  C   C1021     1.0  0.75624  0.53309  0.15776  1.0000
  C   C1022     1.0  0.85347  0.55431  0.38966  1.0000
  C   C1023     1.0  0.87458  0.75374  0.42882  1.0000
  H   H1804     1.0  0.93136  0.77798  0.35515  1.0000
  C   C1024     1.0  0.66891  0.52490  0.97030  1.0000
  H   H1805     1.0  0.77685  0.66354  0.14524  1.0000
  C   C1025     1.0  0.77983  0.94873  0.17500  1.0000
  H   H1806     1.0  0.80208  0.58736  0.08382  1.0000
  H   H1807     1.0  0.87573  0.97079  0.19605  1.0000
  C   C1026     1.0  0.76630  0.64909  0.30501  1.0000
  H   H1808     1.0  0.95540  0.81083  0.34754  1.0000
  C   C1027     1.0  0.76347  0.91896  0.18371  1.0000
  H   H1809     1.0  0.83780  0.80037  0.37855  1.0000
  C   C1028     1.0  0.98656  0.78451  0.30068  1.0000
  C   C1029     1.0  0.79538  0.96383  0.20187  1.0000
  N   N56       1.0  0.88481  0.57431  0.04319  1.0000
  C   C1030     1.0  0.82454  0.77915  0.43451  1.0000
  C   C1031     1.0  0.97124  0.58626  0.33456  1.0000
  H   H1810     1.0  0.74787  0.61147  0.20369  1.0000
  H   H1811     1.0  0.81149  0.65490  0.35281  1.0000
  H   H1812     1.0  0.81169  0.75800  0.42856  1.0000
  C   C1032     1.0  0.67068  0.96595  0.07048  1.0000
  C   C1033     1.0  0.67914  0.68018  0.25010  1.0000
  H   H1813     1.0  0.95509  0.74778  0.31584  1.0000
  H   H1814     1.0  0.79662  0.94247  0.15800  1.0000
  H   H1815     1.0  0.68085  0.48578  0.22135  1.0000
  C   C1034     1.0  0.69275  0.90603  0.08902  1.0000
  C   C1035     1.0  0.83825  0.57606  0.00800  1.0000
  H   H1816     1.0  0.83460  0.55066  0.00954  1.0000
  H   H1817     1.0  0.77844  0.53193  0.14652  1.0000
  C   C1036     1.0  0.76136  0.51789  0.27919  1.0000
  C   C1037     1.0  0.84853  0.60313  0.07844  1.0000
  H   H1818     1.0  0.66847  0.90066  0.09094  1.0000
  H   H1819     1.0  0.73451  0.50324  0.12681  1.0000
  H   H1820     1.0  0.81876  0.77329  0.33412  1.0000
  H   H1821     1.0  0.77933  0.90191  0.19362  1.0000
  H   H1822     1.0  0.74523  0.92444  0.19957  1.0000
  H   H1823     1.0  0.75307  0.90812  0.16412  1.0000
  H   H1824     1.0  0.88525  0.61804  0.36631  1.0000
  C   C1038     1.0  0.77255  0.80176  0.44430  1.0000
  H   H1825     1.0  0.91586  0.59264  0.07555  1.0000
  H   H1826     1.0  0.87193  0.56017  0.08687  1.0000
  H   H1827     1.0  0.71431  0.62619  0.18712  1.0000
  H   H1828     1.0  0.91824  0.54442  0.02282  1.0000
  H   H1829     1.0  0.68958  0.72934  0.25636  1.0000
  S   S225      1.0  0.98761  0.50812  0.04333  1.0000
  C   C1039     1.0  0.87149  0.58520  0.01448  1.0000
  H   H1830     1.0  0.68541  0.72359  0.35816  1.0000
  C   C1040     1.0  0.96226  0.60054  0.13130  1.0000
  H   H1831     1.0  0.89138  0.97983  0.14464  1.0000
  Fe  Fe113     1.0  0.98707  0.73925  0.40750  1.0000
  H   H1832     1.0  0.87217  0.61106  0.01285  1.0000
  H   H1833     1.0  0.83284  0.61230  0.32231  1.0000
  C   C1041     1.0  0.83357  0.75325  0.33966  1.0000
  H   H1834     1.0  0.70201  0.89925  0.04278  1.0000
  N   N57       1.0  0.68217  0.94532  0.04617  1.0000
  N   N58       1.0  0.72111  0.64156  0.23176  1.0000
  N   N59       1.0  0.85462  0.78038  0.41897  1.0000
  H   H1835     1.0  0.85983  0.51307  0.04365  1.0000
  H   H1836     1.0  0.82553  0.58286  0.11602  1.0000
  H   H1837     1.0  0.84273  0.61875  0.05996  1.0000
  H   H1838     1.0  0.80979  0.94540  0.21149  1.0000
  H   H1839     1.0  0.70371  0.93855  0.98554  1.0000
  C   C1042     1.0  0.90025  0.54318  0.03966  1.0000
  H   H1840     1.0  0.88564  0.57687  0.99590  1.0000
  H   H1841     1.0  0.84719  0.51837  0.27649  1.0000
  C   C1043     1.0  0.79451  0.52231  0.23743  1.0000
  H   H1842     1.0  0.89227  0.74895  0.41210  1.0000
  C   C1044     1.0  0.89781  0.48486  0.03227  1.0000
  C   C1045     1.0  0.73325  0.63246  0.20203  1.0000
  H   H1843     1.0  0.96162  0.62896  0.06448  1.0000
  S   S226      1.0  0.87697  0.58211  0.24081  1.0000
  C   C1046     1.0  0.88052  0.96806  0.97936  1.0000
  C   C1047     1.0  0.84703  0.50669  0.29816  1.0000
  H   H1844     1.0  0.72090  0.63850  0.29342  1.0000
  H   H1845     1.0  0.70399  0.86772  0.11794  1.0000
  H   H1846     1.0  0.91182  0.53668  0.06035  1.0000
  C   C1048     1.0  0.87993  0.95795  0.15119  1.0000
  C   C1049     1.0  0.69893  0.61667  0.24083  1.0000
  H   H1847     1.0  0.75228  0.52742  0.29922  1.0000
  H   H1848     1.0  0.83958  0.55814  0.33012  1.0000
  H   H1849     1.0  0.67121  0.50224  0.01229  1.0000
  C   C1050     1.0  0.74734  0.64368  0.25268  1.0000
  C   C1051     1.0  0.86355  0.55653  0.32334  1.0000
  H   H1850     1.0  0.89544  0.70360  0.35307  1.0000
  H   H1851     1.0  0.84065  0.71601  0.42193  1.0000
  H   H1852     1.0  0.98210  0.75999  0.34285  1.0000
  C   C1052     1.0  0.76168  0.64607  0.15546  1.0000
  H   H1853     1.0  0.97061  0.59360  0.31130  1.0000
  H   H1854     1.0  0.75789  0.97960  0.00230  1.0000
  H   H1855     1.0  0.79887  0.81144  0.40613  1.0000
  H   H1856     1.0  0.87342  0.78254  0.37543  1.0000
  C   C1053     1.0  0.94413  0.79024  0.33773  1.0000
  C   C1054     1.0  0.70551  0.67284  0.22877  1.0000
  H   H1857     1.0  0.83136  0.61208  0.97494  1.0000
  S   S227      1.0  0.68531  0.90196  0.17217  1.0000
  H   H1858     1.0  0.85257  0.73004  0.37650  1.0000
  H   H1859     1.0  0.76037  0.62157  0.25291  1.0000
  H   H1860     1.0  0.76382  0.66128  0.24501  1.0000
  C   C1055     1.0  0.83731  0.75012  0.37277  1.0000
  H   H1861     1.0  0.82268  0.58749  0.02367  1.0000
  C   C1056     1.0  0.96751  0.76807  0.32467  1.0000
  H   H1862     1.0  0.74142  0.64336  0.14141  1.0000
  H   H1863     1.0  0.77359  0.66152  0.19832  1.0000
  H   H1864     1.0  0.95920  0.53397  0.09158  1.0000
  H   H1865     1.0  0.76037  0.53498  0.18164  1.0000
  C   C1057     1.0  0.93448  0.59824  0.14604  1.0000
  Fe  Fe114     1.0  0.83003  0.59852  0.25068  1.0000
  H   H1866     1.0  0.88567  0.62032  0.32757  1.0000
  C   C1058     1.0  0.95504  0.54364  0.21796  1.0000
  H   H1867     1.0  0.97676  0.62033  0.13523  1.0000
  C   C1059     1.0  0.86952  0.81074  0.42738  1.0000
  H   H1868     1.0  0.91920  0.48616  0.01968  1.0000
  H   H1869     1.0  0.92796  0.79810  0.32072  1.0000
  H   H1870     1.0  0.91745  0.79696  0.43076  1.0000
  H   H1871     1.0  0.97692  0.62842  0.02804  1.0000
  H   H1872     1.0  0.68452  0.67452  0.27306  1.0000
  C   C1060     1.0  0.85649  0.53383  0.41683  1.0000
  H   H1873     1.0  0.71435  0.50157  0.19108  1.0000
  H   H1874     1.0  0.89266  0.51820  0.30771  1.0000
  C   C1061     1.0  0.87039  0.52149  0.31833  1.0000
  C   C1062     1.0  0.94028  0.59033  0.34882  1.0000
  H   H1875     1.0  0.92403  0.54699  0.33200  1.0000
  H   H1876     1.0  0.86421  0.56830  0.30167  1.0000
  H   H1877     1.0  0.92487  0.96760  0.06531  1.0000
  C   C1063     1.0  0.70780  0.50369  0.16772  1.0000
  N   N60       1.0  0.88409  0.57329  0.34442  1.0000
  H   H1878     1.0  0.84504  0.57725  0.39723  1.0000
  H   H1879     1.0  0.80460  0.58065  0.97386  1.0000
  H   H1880     1.0  0.94070  0.56442  0.21377  1.0000
  H   H1881     1.0  0.88726  0.76020  0.44881  1.0000
  H   H1882     1.0  0.75388  0.95677  0.96971  1.0000
  H   H1883     1.0  0.87367  0.51842  0.00680  1.0000
  H   H1884     1.0  0.96562  0.49794  0.13787  1.0000
  C   C1064     1.0  0.99167  0.73696  0.27171  1.0000
  H   H1885     1.0  0.96807  0.74395  0.26623  1.0000
  C   C1065     1.0  0.75191  0.97650  0.28432  1.0000
  C   C1066     1.0  0.67047  0.71461  0.24892  1.0000
  S   S228      1.0  0.67248  0.91666  0.25258  1.0000
  H   H1886     1.0  0.82408  0.50844  0.30781  1.0000
  S   S229      1.0  0.97998  0.79073  0.40962  1.0000
  C   C1067     1.0  0.88140  0.69571  0.43809  1.0000
  H   H1887     1.0  0.94840  0.52608  0.17479  1.0000
  H   H1888     1.0  0.86399  0.51001  0.41073  1.0000
  C   C1068     1.0  0.73797  0.50383  0.15077  1.0000
  S   S230      1.0  0.94469  0.71568  0.39147  1.0000
  H   H1889     1.0  0.67470  0.83592  0.37564  1.0000
  H   H1890     1.0  0.96290  0.69552  0.23457  1.0000
  H   H1891     1.0  0.75763  0.82221  0.44080  1.0000
  H   H1892     1.0  0.97310  0.48448  0.20322  1.0000
  H   H1893     1.0  0.90174  0.70215  0.45089  1.0000
  C   C1069     1.0  0.98767  0.69171  0.23613  1.0000
  H   H1894     1.0  0.91189  0.85037  0.45191  1.0000
  H   H1895     1.0  0.99223  0.67405  0.25330  1.0000
  H   H1896     1.0  0.69009  0.97537  0.08317  1.0000
  H   H1897     1.0  0.67450  0.53191  0.12307  1.0000
  H   H1898     1.0  0.88845  0.68941  0.41556  1.0000
  H   H1899     1.0  0.69526  0.67526  0.20663  1.0000
  H   H1900     1.0  0.90286  0.86510  0.41589  1.0000
  H   H1901     1.0  0.87075  0.67504  0.44833  1.0000
  H   H1902     1.0  0.82838  0.77749  0.45858  1.0000
  H   H1903     1.0  0.89256  0.97179  0.08880  1.0000
  H   H1904     1.0  0.71885  0.97791  0.04031  1.0000
  H   H1905     1.0  0.66595  0.91744  0.01012  1.0000
  S   S231      1.0  0.66524  0.84162  0.23793  1.0000
  H   H1906     1.0  0.79477  0.48288  0.20824  1.0000
  H   H1907     1.0  0.85239  0.48169  0.29482  1.0000
  H   H1908     1.0  0.84865  0.72494  0.45929  1.0000
  H   H1909     1.0  0.84230  0.57453  0.96048  1.0000
  C   C1070     1.0  0.93955  0.81263  0.50055  1.0000
  H   H1910     1.0  0.95817  0.78272  0.58358  1.0000
  Fe  Fe115     1.0  0.77674  0.55712  0.87968  1.0000
  S   S232      1.0  0.79388  0.51431  0.85773  1.0000
  S   S233      1.0  0.79841  0.60254  0.86549  1.0000
  H   H1911     1.0  0.68338  0.48862  0.87876  1.0000
  H   H1912     1.0  0.83912  0.91974  0.80552  1.0000
  H   H1913     1.0  0.88697  0.92494  0.83412  1.0000
  S   S234      1.0  0.72763  0.54380  0.87666  1.0000
  C   C1071     1.0  0.99652  0.77478  0.75923  1.0000
  S   S235      1.0  0.78219  0.53734  0.92497  1.0000
  Fe  Fe116     1.0  0.80698  0.77965  0.53753  1.0000
  S   S236      1.0  0.79806  0.73887  0.50848  1.0000
  S   S237      1.0  0.83928  0.81814  0.52514  1.0000
  Fe  Fe117     1.0  0.75900  0.75950  0.58228  1.0000
  S   S238      1.0  0.74677  0.71712  0.55614  1.0000
  S   S239      1.0  0.73616  0.76344  0.62635  1.0000
  Fe  Fe118     1.0  0.79707  0.71185  0.55074  1.0000
  S   S240      1.0  0.82038  0.66535  0.55639  1.0000
  Fe  Fe119     1.0  0.74880  0.74868  0.51699  1.0000
  H   H1914     1.0  0.93039  0.56137  0.80947  1.0000
  S   S241      1.0  0.80911  0.75222  0.57926  1.0000
  S   S242      1.0  0.75786  0.79152  0.54366  1.0000
  C   C1072     1.0  0.92636  0.48549  0.84392  1.0000
  Fe  Fe120     1.0  0.90620  0.62330  0.73052  1.0000
  S   S243      1.0  0.93533  0.59709  0.69857  1.0000
  S   S244      1.0  0.86132  0.60081  0.74060  1.0000
  Fe  Fe121     1.0  0.95175  0.67654  0.73570  1.0000
  H   H1915     1.0  0.67015  0.85389  0.49283  1.0000
  H   H1916     1.0  0.94118  0.85908  0.51798  1.0000
  Fe  Fe122     1.0  0.94228  0.64391  0.67780  1.0000
  S   S245      1.0  0.94155  0.65177  0.62899  1.0000
  H   H1917     1.0  0.68501  0.81284  0.73773  1.0000
  C   C1073     1.0  0.80517  0.96236  0.72766  1.0000
  S   S246      1.0  0.91068  0.66926  0.70763  1.0000
  S   S247      1.0  0.94407  0.63274  0.76156  1.0000
  H   H1918     1.0  0.93112  0.48920  0.89172  1.0000
  C   C1074     1.0  0.86849  0.51764  0.93241  1.0000
  H   H1919     1.0  0.79066  0.64835  0.76253  1.0000
  C   C1075     1.0  0.85952  0.96474  0.79395  1.0000
  H   H1920     1.0  0.69073  0.69670  0.49075  1.0000
  C   C1076     1.0  0.85302  0.66190  0.57835  1.0000
  C   C1077     1.0  0.86305  0.68606  0.59648  1.0000
  C   C1078     1.0  0.88910  0.68217  0.61375  1.0000
  C   C1079     1.0  0.90577  0.65448  0.61235  1.0000
  C   C1080     1.0  0.89592  0.63053  0.59402  1.0000
  C   C1081     1.0  0.86941  0.63401  0.57753  1.0000
  H   H1921     1.0  0.85085  0.70771  0.59721  1.0000
  H   H1922     1.0  0.89701  0.70103  0.62733  1.0000
  H   H1923     1.0  0.90900  0.60932  0.59230  1.0000
  H   H1924     1.0  0.86198  0.61526  0.56351  1.0000
  C   C1082     1.0  0.71100  0.79454  0.63275  1.0000
  H   H1925     1.0  0.91922  0.70904  0.83217  1.0000
  H   H1926     1.0  0.87677  0.96781  0.72123  1.0000
  H   H1927     1.0  0.67374  0.76756  0.82125  1.0000
  C   C1083     1.0  0.68931  0.84456  0.61962  1.0000
  C   C1084     1.0  0.70914  0.81980  0.61359  1.0000
  H   H1928     1.0  0.90502  0.49740  0.79114  1.0000
  H   H1929     1.0  0.91511  0.73030  0.53222  1.0000
  H   H1930     1.0  0.72340  0.82058  0.59443  1.0000
  H   H1931     1.0  0.69962  0.78935  0.78534  1.0000
  C   C1085     1.0  0.92107  0.78670  0.49532  1.0000
  C   C1086     1.0  0.89034  0.78724  0.50389  1.0000
  C   C1087     1.0  0.87788  0.81430  0.51617  1.0000
  H   H1932     1.0  0.93064  0.76611  0.48537  1.0000
  H   H1933     1.0  0.87617  0.76710  0.50054  1.0000
  C   C1088     1.0  0.81556  0.60252  0.83053  1.0000
  C   C1089     1.0  0.80848  0.57966  0.80991  1.0000
  C   C1090     1.0  0.82283  0.57942  0.78255  1.0000
  C   C1091     1.0  0.84477  0.60170  0.77565  1.0000
  C   C1092     1.0  0.85189  0.62472  0.79611  1.0000
  C   C1093     1.0  0.83688  0.62545  0.82326  1.0000
  H   H1934     1.0  0.79138  0.56254  0.81476  1.0000
  H   H1935     1.0  0.81684  0.56186  0.76665  1.0000
  H   H1936     1.0  0.86840  0.64231  0.79076  1.0000
  H   H1937     1.0  0.84206  0.64356  0.83887  1.0000
  H   H1938     1.0  0.71431  0.82619  0.79736  1.0000
  H   H1939     1.0  0.88736  0.58143  0.89652  1.0000
  C   C1094     1.0  0.93241  0.71184  0.52986  1.0000
  H   H1940     1.0  0.90006  0.67503  0.53880  1.0000
  H   H1941     1.0  0.98720  0.74883  0.61126  1.0000
  C   C1095     1.0  0.79514  0.93394  0.71010  1.0000
  H   H1942     1.0  0.99531  0.88358  0.65033  1.0000
  C   C1096     1.0  0.93132  0.53873  0.79784  1.0000
  H   H1943     1.0  0.87051  0.95719  0.85416  1.0000
  Fe  Fe123     1.0  0.76188  0.96629  0.86077  1.0000
  H   H1944     1.0  0.66843  0.81105  0.56390  1.0000
  H   H1945     1.0  0.68743  0.70335  0.60573  1.0000
  H   H1946     1.0  0.72595  0.91319  0.76850  1.0000
  N   N61       1.0  0.80884  0.66217  0.67284  1.0000
  C   C1097     1.0  0.77745  0.65432  0.66250  1.0000
  C   C1098     1.0  0.81055  0.65732  0.70545  1.0000
  C   C1099     1.0  0.81530  0.69555  0.66467  1.0000
  C   C1100     1.0  0.83210  0.64147  0.65855  1.0000
  C   C1101     1.0  0.82705  0.60590  0.66179  1.0000
  C   C1102     1.0  0.77280  0.65413  0.62881  1.0000
  C   C1103     1.0  0.84461  0.70971  0.67741  1.0000
  C   C1104     1.0  0.79045  0.67896  0.72436  1.0000
  C   C1105     1.0  0.79583  0.67294  0.75690  1.0000
  C   C1106     1.0  0.85160  0.58753  0.64589  1.0000
  C   C1107     1.0  0.74006  0.64688  0.62099  1.0000
  C   C1108     1.0  0.84889  0.74321  0.66697  1.0000
  H   H1947     1.0  0.76094  0.67143  0.67139  1.0000
  H   H1948     1.0  0.77014  0.63141  0.67134  1.0000
  H   H1949     1.0  0.80374  0.63319  0.71121  1.0000
  H   H1950     1.0  0.83431  0.65930  0.71320  1.0000
  H   H1951     1.0  0.79610  0.71099  0.67085  1.0000
  H   H1952     1.0  0.81715  0.69788  0.64054  1.0000
  H   H1953     1.0  0.83395  0.64677  0.63490  1.0000
  H   H1954     1.0  0.85490  0.64622  0.66766  1.0000
  H   H1955     1.0  0.80504  0.59867  0.65255  1.0000
  H   H1956     1.0  0.82782  0.59879  0.68504  1.0000
  H   H1957     1.0  0.77816  0.67713  0.61910  1.0000
  H   H1958     1.0  0.78719  0.63635  0.61807  1.0000
  H   H1959     1.0  0.86453  0.69626  0.67020  1.0000
  H   H1960     1.0  0.84426  0.71002  0.70163  1.0000
  H   H1961     1.0  0.79521  0.70386  0.72014  1.0000
  H   H1962     1.0  0.76622  0.67462  0.71988  1.0000
  Fe  Fe124     1.0  0.73466  0.51935  0.91989  1.0000
  H   H1963     1.0  0.81968  0.67787  0.76274  1.0000
  H   H1964     1.0  0.78103  0.68831  0.77017  1.0000
  H   H1965     1.0  0.94764  0.71802  0.51153  1.0000
  H   H1966     1.0  0.87437  0.59449  0.65368  1.0000
  H   H1967     1.0  0.84867  0.56228  0.65015  1.0000
  H   H1968     1.0  0.72472  0.66478  0.63032  1.0000
  H   H1969     1.0  0.73743  0.64703  0.59683  1.0000
  H   H1970     1.0  0.73358  0.62354  0.62930  1.0000
  H   H1971     1.0  0.87012  0.75275  0.67620  1.0000
  H   H1972     1.0  0.85040  0.74409  0.64275  1.0000
  H   H1973     1.0  0.82978  0.75805  0.67430  1.0000
  H   H1974     1.0  0.84405  0.93737  0.74481  1.0000
  H   H1975     1.0  0.90271  0.68596  0.50111  1.0000
  C   C1109     1.0  0.90394  0.53543  0.85762  1.0000
  S   S248      1.0  0.97873  0.81264  0.49345  1.0000
  C   C1110     1.0  0.69646  0.93732  0.83320  1.0000
  H   H1976     1.0  0.94865  0.49708  0.84180  1.0000
  H   H1977     1.0  0.88701  0.86112  0.53021  1.0000
  H   H1978     1.0  0.88201  0.57139  0.83013  1.0000
  H   H1979     1.0  0.87780  0.78235  0.60737  1.0000
  H   H1980     1.0  0.93915  0.77194  0.55142  1.0000
  Fe  Fe125     1.0  0.97385  0.60997  0.72801  1.0000
  C   C1111     1.0  0.90380  0.51812  0.80565  1.0000
  C   C1112     1.0  0.92711  0.83904  0.51369  1.0000
  H   H1981     1.0  0.93472  0.52391  0.75227  1.0000
  H   H1982     1.0  0.98191  0.62058  0.81149  1.0000
  H   H1983     1.0  0.88311  0.53086  0.79854  1.0000
  H   H1984     1.0  0.92724  0.54506  0.85714  1.0000
  H   H1985     1.0  0.66475  0.56541  0.81204  1.0000
  H   H1986     1.0  0.79475  0.98031  0.79199  1.0000
  H   H1987     1.0  0.70118  0.80801  0.84293  1.0000
  H   H1988     1.0  0.77543  0.79844  0.46825  1.0000
  C   C1113     1.0  0.93189  0.54567  0.76510  1.0000
  H   H1989     1.0  0.81494  0.92180  0.70048  1.0000
  C   C1114     1.0  0.67613  0.83682  0.51010  1.0000
  H   H1990     1.0  0.85781  0.55433  0.85734  1.0000
  Fe  Fe126     1.0  0.74543  0.49944  0.85681  1.0000
  C   C1115     1.0  0.68059  0.82223  0.84711  1.0000
  C   C1116     1.0  0.67234  0.81846  0.66346  1.0000
  H   H1991     1.0  0.97503  0.70121  0.83195  1.0000
  H   H1992     1.0  0.89481  0.67559  0.83432  1.0000
  H   H1993     1.0  0.90174  0.97742  0.75109  1.0000
  N   N62       1.0  0.83881  0.97884  0.77127  1.0000
  H   H1994     1.0  0.67114  0.78129  0.53745  1.0000
  H   H1995     1.0  0.78248  0.91746  0.72424  1.0000
  H   H1996     1.0  0.68861  0.84922  0.52763  1.0000
  H   H1997     1.0  0.95285  0.52699  0.80337  1.0000
  C   C1117     1.0  0.70134  0.82472  0.75236  1.0000
  H   H1998     1.0  0.85003  0.59147  0.62197  1.0000
  H   H1999     1.0  0.98151  0.75132  0.52740  1.0000
  C   C1118     1.0  0.94607  0.76296  0.57318  1.0000
  H   H2000     1.0  0.82324  0.95180  0.82524  1.0000
  H   H2001     1.0  0.68547  0.75042  0.57626  1.0000
  C   C1119     1.0  0.91715  0.75737  0.59156  1.0000
  C   C1120     1.0  0.89827  0.78701  0.59409  1.0000
  Fe  Fe127     1.0  0.79632  0.49352  0.90244  1.0000
  H   H2002     1.0  0.85013  0.53068  0.92277  1.0000
  C   C1121     1.0  0.69644  0.81491  0.78414  1.0000
  C   C1122     1.0  0.82580  0.95268  0.75334  1.0000
  C   C1123     1.0  0.69250  0.79393  0.65766  1.0000
  C   C1124     1.0  0.71823  0.93074  0.81203  1.0000
  H   H2003     1.0  0.90268  0.73939  0.58138  1.0000
  H   H2004     1.0  0.92290  0.74991  0.61406  1.0000
  H   H2005     1.0  0.94147  0.66655  0.86218  1.0000
  H   H2006     1.0  0.91611  0.68281  0.80147  1.0000
  H   H2007     1.0  0.91136  0.80586  0.60476  1.0000
  H   H2008     1.0  0.91043  0.59949  0.86860  1.0000
  N   N63       1.0  0.96692  0.73536  0.56999  1.0000
  C   C1125     1.0  0.91801  0.51682  0.95574  1.0000
  H   H2009     1.0  0.93465  0.69804  0.57537  1.0000
  H   H2010     1.0  0.91078  0.55755  0.75824  1.0000
  H   H2011     1.0  0.87772  0.95083  0.78352  1.0000
  S   S249      1.0  0.82463  0.95974  0.95448  1.0000
  H   H2012     1.0  0.90045  0.52776  0.88055  1.0000
  H   H2013     1.0  0.98540  0.65608  0.88127  1.0000
  C   C1126     1.0  0.68978  0.85703  0.84854  1.0000
  C   C1127     1.0  0.91596  0.68201  0.52131  1.0000
  C   C1128     1.0  0.67321  0.71143  0.48177  1.0000
  H   H2014     1.0  0.69379  0.77441  0.67254  1.0000
  H   H2015     1.0  0.70313  0.94647  0.85425  1.0000
  H   H2016     1.0  0.72291  0.88686  0.86931  1.0000
  H   H2017     1.0  0.68833  0.86430  0.60496  1.0000
  H   H2018     1.0  0.89086  0.79493  0.57218  1.0000
  H   H2019     1.0  0.78004  0.94142  0.69203  1.0000
  H   H2020     1.0  0.95110  0.56118  0.76007  1.0000
  H   H2021     1.0  0.86518  0.49095  0.86500  1.0000
  H   H2022     1.0  0.72450  0.81825  0.74531  1.0000
  C   C1129     1.0  0.91698  0.48431  0.95655  1.0000
  S   S250      1.0  0.71560  0.75869  0.48027  1.0000
  C   C1130     1.0  0.84448  0.94227  0.81622  1.0000
  H   H2023     1.0  0.67420  0.73470  0.62847  1.0000
  C   C1131     1.0  0.88796  0.58936  0.87348  1.0000
  H   H2024     1.0  0.87065  0.60780  0.87103  1.0000
  H   H2025     1.0  0.73708  0.84906  0.85949  1.0000
  H   H2026     1.0  0.69872  0.85031  0.74994  1.0000
  S   S251      1.0  0.96019  0.72303  0.75756  1.0000
  H   H2027     1.0  0.98846  0.54755  0.69505  1.0000
  H   H2028     1.0  0.97735  0.78632  0.76912  1.0000
  H   H2029     1.0  0.67342  0.81595  0.86963  1.0000
  C   C1132     1.0  0.91666  0.68426  0.82571  1.0000
  H   H2030     1.0  0.68165  0.52947  0.82379  1.0000
  S   S252      1.0  0.75664  0.93725  0.81982  1.0000
  H   H2031     1.0  0.96162  0.71764  0.61397  1.0000
  H   H2032     1.0  0.93227  0.66281  0.51737  1.0000
  S   S253      1.0  0.98389  0.65450  0.70414  1.0000
  H   H2033     1.0  0.85443  0.91890  0.85714  1.0000
  C   C1133     1.0  0.97346  0.67610  0.82614  1.0000
  C   C1134     1.0  0.67096  0.84405  0.64462  1.0000
  C   C1135     1.0  0.95041  0.70720  0.55859  1.0000
  C   C1136     1.0  0.86552  0.93547  0.84191  1.0000
  C   C1137     1.0  0.99148  0.74365  0.54854  1.0000
  C   C1138     1.0  0.87069  0.49326  0.84136  1.0000
  H   H2034     1.0  0.78442  0.97365  0.73615  1.0000
  N   N64       1.0  0.90122  0.50810  0.83717  1.0000
  C   C1139     1.0  0.67914  0.74281  0.47621  1.0000
  C   C1140     1.0  0.89641  0.84014  0.52075  1.0000
  H   H2035     1.0  0.81684  0.97837  0.71242  1.0000
  C   C1141     1.0  0.70918  0.91834  0.78501  1.0000
  C   C1142     1.0  0.86746  0.48517  0.93288  1.0000
  H   H2036     1.0  0.71236  0.85351  0.89084  1.0000
  C   C1143     1.0  0.71719  0.86172  0.86831  1.0000
  H   H2037     1.0  0.81174  0.93726  0.76740  1.0000
  C   C1144     1.0  0.67841  0.91265  0.77929  1.0000
  C   C1145     1.0  0.94252  0.66466  0.83804  1.0000
  H   H2038     1.0  0.67150  0.90322  0.75842  1.0000
  H   H2039     1.0  0.85280  0.50875  0.83244  1.0000
  C   C1146     1.0  0.89367  0.53331  0.94373  1.0000
  C   C1147     1.0  0.88116  0.56233  0.85278  1.0000
  H   H2040     1.0  0.69110  0.81885  0.50039  1.0000
  H   H2041     1.0  0.89441  0.55844  0.94307  1.0000
  H   H2042     1.0  0.99653  0.94071  0.64926  1.0000
  H   H2043     1.0  0.69568  0.86627  0.82671  1.0000
  S   S254      1.0  0.75218  0.94897  0.90584  1.0000
  H   H2044     1.0  0.98277  0.61390  0.84975  1.0000
  H   H2045     1.0  0.93812  0.64012  0.83188  1.0000
  S   S255      1.0  0.72891  0.48381  0.81225  1.0000
  C   C1148     1.0  0.97961  0.72747  0.59971  1.0000
  H   H2046     1.0  0.96649  0.68778  0.55451  1.0000
  H   H2047     1.0  0.97227  0.67548  0.80184  1.0000
  C   C1149     1.0  0.66601  0.93112  0.82769  1.0000
  C   C1150     1.0  0.99413  0.74345  0.75078  1.0000
  Fe  Fe128     1.0  0.79157  0.97785  0.92065  1.0000
  S   S256      1.0  0.67743  0.97872  0.92618  1.0000
  C   C1151     1.0  0.99595  0.62415  0.83138  1.0000
  H   H2048     1.0  0.67106  0.87125  0.85760  1.0000
  C   C1152     1.0  0.66845  0.71978  0.60948  1.0000
