data_image0
_chemical_formula_structural       SCFeSCSFeSFeS2FeSFeS3FeS2FeS2FeSFeS3H2SH2SFeS2FeS2FeHFeS3FeSHFeS2FeSFeCSCH2CNC2HCH7C4H3C3H5CH2C3NHCHCH2CH4SCHCH2C6H6C6H4C6H4C6H4C6H4CH3C3H3CNC11H13CH8CHC2H2SH4CHNH7CHC2H8CHCNC12H31C2HC5HC2H2CFeH3CH8CHCH6C3HC2HFeH3C4HCH5CH2CSCH4CHC3HC3FeCSCHNH3CHCH3CNC10HCH32CFeCNC2NHSH4CH4CHCH2CH6CH2SC6H9CH4CSHCH3CH4CNH5CH11SH5CH5C2H4C2HCHC3H3CH2CH2CHCH9CFeHCHC2H3NCSC2H2C3HC2H2CHCH8C2H3C2H2NCHSHCFeH2CH3SCH2CH4CNCHSC2H3C2HCHCHC2H6CH2CNCH4CH2CH5C2HCHC2H2FeHC2HCSHC2H2SHCHCSH3CH2C2H7CH3CHC2H3SCHCH3S2H2CHFeSCFeS2FeSFeHS2FeS2FeS2FeSFeCS2FeS2FeS2FeSFeS3FeS2FeHFeSCS2HSCS2FeH2NH2CH2CH3C4H7CH2CH3C2HFeH2C6H4C6H4CHCH6CHCHC7H5CH3NHC6H4CH4CH2C4HCH4CH12SHCSH2CH2CH4CH4NHCHNC9HC2H17CHSH8CH2CH2CH2C3H15FeNHFeC3H4C4H3C2H4C2H5CHCH12FeSCHCNHC3HC4H2CHCH6CHCH10C2H5C2NHCH2NC2SHCH3C2HC2H3C3H3C3H9CFeNC2HC2HSC4H14CH4CH3C3HCHC2H2C2H3CH8C2HC3HCHC2H6CNCH2SCH6NFeHC2H2C3HCSHCH2C4H5C2SH4CHCSHCH4CH2CHCS2C4HSC3H3CH6CHSH4CSH3SHCHSCHCH2CHC2HC2H3SHC2NC2H2CHCHCHSCHCFeC5HFeHCHCH2NSHFeHCSH3C2HCFeHC2H2C3HCHSCHSH3CNHFeH5CHCH2SH3CHC6H5CH10FeCHCHCFeSCFeS2Fe2HS2CSCFeSHFeSFeCSH2FeSHCHSH2SHFeS2FeS2FeSFeS3CH3CHCHC6H4C6H5SHC6H5NH2CSH2C3H2C2H5NH2CHC6H7C2H3SH3SH10C2HC2HC2SNC10H13CHFeH7SHCNC9HCH13C2HCS2H2NH6CH4SH2CH5CHCHSCHCH6CSHSH4C4HCHNC5HC4HC2H15SCH4CH5CHFeH2CHCHCH3CH2CHCH6NC7H2CH7CH2CHCFeCHC5H2CHCHCHCHCH3C2H8CHCH4CH2CHSH2CH4CH8CH2CHSFeHC2H9CH5C2HCHCH2CH2CSH3FeSFeSHFeS4H6CSC2FeS2FeS2FeSFeS3H2CHC2H3NH2SCHFeS2FeS2FeSFeS3H2CHC4H7C3H2C5H4CH2FeH4CHCHC2H2C6H4C6H4C5H2CHC8H3CHC2H2C2HC6H7NH2CH2C2H2CHC2HC2H2C3H4CH5FeH2CH4C2HCH5CFeH2CHC2H3C2H2NC10H14C2H3C2H2C3H4C2H2CH6CH3C2HCH4CH13C2H3SCH2CHNH2CH6CHSH3CH2CNC9HC2H20CH9CSH5SCH2FeC3H3NSC2HCH2CSH2CHSH5CH2FeH2SCHC2H2NHCH2CH2CHCH2CHC2H4CH2CH4CHFeH3CHCHCS2C3H2CSCHCH2FeH2C3H3CH3C3HCHCH4CH3CHCH2NH2CH2CHCH3NHCH7NHC3H6CHC2H4CHC2H2SH4SH2CFeSCFeS2CHFeSCSCH2FeSHFeSFeHSH2SCSCH3SHC2HCFeHFeCSHFeSCSC3H7CFeS2FeS2FeSFeHS2C2H2SNH2SCHFeS2HCH2FeSHSHC6H4C6H3CHC2HSH7C3H2CH3CHC7NH2SCH2CFeHFeH2CHCHC2H5CH2CH2CH2C2SCSHC2H8CHCH2C6H4C6H5NHCHNCH2C6HCH3CH6CH4C2HCH8CHFeCH4CFeCH13CHC4SHSH3CH3FeCHC2HCH6C2HCH4CH3CHCH2NHC4HCFeCHSC3HCHCHFeSHCH3CFeCH3CHC2H2CH2CHC2H2C2HNHCH2C2H4C2HCSC3H4C3HSH3SH3CH7CH3CHC5H2C2H2CH3CH2FeH2CH3CNHCSH9CH3SHCH6NHSHC2H4CSHCSCH3CHCH4CHC2H4CH4C3H4SHC2H4C2H2NH2CH2SCH3CHSH5CHFeH2CH3CFeH6CH2SCH2CH2CHCHFeHSFeH2FeSHS2HSFeS2CHC2HC2H2CSHS2FeSFeSHFeS2FeS2Fe2S4FeSFeS2FeS2FeSFeS3C5H2C6H4C6H5NSFeHCH2CFeHC6H6CH3C3H2C3HSH2CSCH2C9H4C5H4CHC2HC6HCNC3NH3C3H6C2HSHS2H6CHCH2NC2SCH3CSH4FeHCHC2H8CH6C2SC4H3CH4CHCH10CSHCH4FeCH3SH3CHFeCHCHC3H3SHC3H2CH7SH2CSHC2FeCH2C2H4CH3CSHCNC12H28NC8H2C2H21CH5CNC12H28NC4HCH3C3H12CHSFeH2FeHC2H5NH5C2HC3H2CHCH6C2H3CH2CHNCSH2CHSH2C2HC2HCH5Fe2C4H3CHCHCH3SHC2HSCH2SH3CH2FeH2SH3C2H2CH2CH6CH2C2H2C4H2C2HFeH5C2H6FeH6CH5CH2SH7CH3SCH2CHCHCHCH5CSC2SH3FeS2FeS2FeSFeS3H2SHFeS2FeS2FeSHS2HS2HSCFeSCH3C6H4C6H2SHC2H2C2H2CHC7H2C2HCH2C6H4C6H2CH3FeHCHC6H4NC12H28C4H6CNHC2H2C2H3FeCH2NC2H2C2H7CH4C3SC3H2C2HC2HSFeCHCH7C2HSH9C2H2CHCHCHCH10CHCH5C2SH2SC2H2CHCHC2H2SHSC2HNH2CHCSCH2CH5NSCH2SH4C4NH3CH4CHFeH7CH3CHCHCH3CH3CSHFeCNCHC2H3FeC3H2NCSCHFeH2FeCH2FeC2SCFeCHC2HSCHC4HCH3SH2C2H3CH2FeHCH4CH7CSH2SH2CS2H10SHCH4FeSH3CH3FeH3SCH2CHFeHSH6CSFeH2FeHFeH2CHC3FeSH4C2H4SHCH5CH2CH3CH2SHNH3C2H5CH2C2NCH4CH3CH3C2H3CH3NH2CH5C3H2NH4C2H5CHCH4C2H2C3HCH2SHC3H2CH6C4SH4C3H3C2H3CHCH5CH3CH4SCHC5NHC2H3CH3SHCHCH3C2H7CH5SH3CH3CH3CH2C7HCHFeCH2CHC4FeH5CH5CH2SHCHS2HFeCSFeHSCSHS2FeSCFeSFeSFeS4FeS2FeSFeS3FeS2FeS3FeCHFeS2CFeSHSH2SFeH4FeS2FeS2FeHFeS3CH2C7H5C3HCH4C6H4C6H4C6H5C6H7SHFeHCH2C6H6NC7H4FeC4H6CH2C2HCH2C3HCH2C2HSHCH3C2HCH4CHC2H2C2HCH3CNCHC5HC2H21CH5CHCHCFeCNH3CH2CHCH2CH2CH2CHCH5CHCHCH5C3NC12H22CH4NHCHNC10HCH20CHCH5NC8HC3H2NH10CH3C2H7SHCHCH2CHCH2CH3CH2CH7CHCH3C2H6C2H3NHCH2CHCH2C2H7CHCHCNHCS2HCH3FeH4CH6FeHCSHCH6SCH2C2H2CH3C3H3CH2CH3NH2FeC2H2CHCSCSHCH3CH4CHCH3CH4CH2CH8CH2CHC2H13CH4SCH3CH4CH2C3H2SHCH2CHC2H2CH6C4NC4H3CHCH4C4H4SH2C2H2C2SH6CH2C4NC2HCH5C3H3CHCHCH4CH3SH5SHSCH4CNH2FeH3C2H3SCHFeHC2FeS2FeS2FeSHS2FeS2FeH3FeSHS2HNHSCHFeSHFeS2H2CHS3HC6H2CH2FeCH2C2H2C2HCH4CH2C6H4C6H6C7H6C7H3C2H3NH2C2H2CH2NH6CH6CH3CH2SCHCH6CHC3H3CH3NCHC2H2SCSHCH3CHNSH2CH3C2HCSHC2HC2H4CFeHCHSH2FeH2CHNC8HC3H17C2H17CHCH2CH7CSCH2CH4CHCH2CH4CHC2H2CHC2H3C2HCH5FeHCH14CHSH5CHSHCHCNHCH3C2HC2HCHNH3CHFeC2H4CH3SH5CHC2H3C2HCH2C2HSH2CHC2H2CH2CH6CHCH3CHCH4SH2FeSHCHFeS2FeS2FeSFeS3FeS2FeS2FeSFeS3H2S2CHSH3CHSFeS2C3H3CSCSH3CH3CH2C2H16CSFe2HC7H4C6H8C7H4CHC4HFeH3C3SCH2C7H3C2H6CH2FeCH5CHC4H2CSHC2SC2H5SH2CH2CH8CH5FeH2NCHC3H10NC10HCH10CH11CHSH6CH2C3SCH4CSNCH2CFeH2CNCNH4FeH6CNCHC2H2CH2CHCH3CH2CH4CHCHCHFeH7SHC4H11CHC3HSHC3H2CHCH4C3HC2H8CH7CH6CHC3H3CHC2H6C4HCNHNC10H8CH12C2HCH5SH2C2H3NCH3CH4SH2CHCH2CH6CH3CHCH5C2H2C2NC2H2CHCH2C3SCHFeS2FeS2FeSFeS3H2C2HNHFeS2FeS2FeSFeHS2NSC6H6CHCH2CH4C8H4C4HCH5CHCH4NH4CNH3CH3CH3C3H4CH2CHCFeH3NCH2CSCHC2HSC2HSCH2NCH5CH5CH2NHC3HCHCH2C4H6C3H5CH3CH2C2H5CH3CSH4C3HC4HCH4CH3CHCHC2H5C2H2CHCHC3H2CHCH2C2H3CFeH10C2H2CHCHCFeH2CHCH7CH2CH6CHCH3C2H9FeSHFeS2FeCFeS3FeS2FeS2FeSFeCS2FeS2H3NCHCHCHCHC2H2CH2C2H3C6H4CH3CHCH3C4HCH3C6H6SC2HCHCH2NC12H20CH10CHFeCHSCHCH4CHCH2CHSHCH3CH3CH4CH7CHSCH2CH4CHCHCHC2FeCHCH2C2HCH2C2H5NHNH13CHC3H3FeS2FeS2FeCFeCS2FeS2FeS2FeSFeHS3HCHSHSHFeH2CH2NHCHCH5CH4C2HC6H4C4HCH5C6H11C2H2C3H3NH2CH6NHCH2CH2CH3CHCHCH3CHCH2CHCH3C3HCHCH2CSH2CH2CHCH5CNH4C3HC2H2SC3HCHC3H10CH2C3HCH3CH2C4NCHC2H2CH9CSH4CH2CH5CH3CH4C2H2C3HC3HC2H4CH2CHCH2CHCH2CNH5CNC2H4NCH3CHSHFeHFeSHSCFeS2FeS2FeSFeS3H5NHFeHSH2CHCH2CH3CHSHCH3C6H4SCHCH2CHCHC2HC4H3NC2H3C6H4SCH2CHCNHC2HC2H2FeC3HSH4CHCH3CH2NH2C2HCH3CSCH3CFeCH4CH2CHCH6C3H4C2HCHC4H3CHCH5SCHCH6CH13CHCHCH16CH2C2H2SHFeS2FeS2FeSFeS3FeS2FeS2FeSFeS3C2H4Fe2NHFeH2FeSCFeSHFeSFeS3H3CH2SCH2SH3CH4CH2C4H3CH4NC2H3CH2C3H7C6H4C6HCHC3HFeCH3C3H2C2H4C2H2C2HSH2C6H4C6H6CH2C2H4CH2CSH3CH2CH4CH4CH2CH4CHC3HCH3CHCHCNH7C2H3CH3CH4SHCH2CH2CHSHC2H4C2HNHCH5SH4CHSCH5CH2CH2CNC2H2CH2CH2C3SH3CH4CH2CH2C5HC2H3FeHCH5CH6CH5C2HCHNC9SC2H19SCHCH5NC12H27CH7C3H3CH2FeH3CH2CSCH6C2SHCHC2H3CHCHCSH4CHCH5NCHCHCNHC3H3CHC2HC2H2C2HCH2NH2C3H2CH3CH7SCH4CHC2NCHC4SNCH2C2HCHC2HCH2CH2CH3FeH3C3HSH2CHCHFeSC3SH2CHFeSH2FeS2FeS2FeHFeS2FeS2FeS2Fe2S3C2SH2CHC4HCHNC2HFeS2CSHFeHFeSHSHCHNHC3HCH2NCH8SH3C2H2CHCHCH4CH2CHNH2C6H4C6H4CSH3C2H3C6H5C6H5C3H2CH2CH4C2H6CH2C2HCH3CH2C2H3C7H15C2NCH6C2H2CH7C2H3CH4CH2FeSCH2CH3SCH2CH2CSHCH3CSH2CFeH2C3HCH4CHCH5C2H2CH4CHCSHCH7C2H8CH15SH2CH3CH2FeH2CH2C2H2C2H4NC3H2CH7CHSCHCHFeHSFeS3FeSHSH2CHCFeSCHCHC2H4CHCH4FeSCFeS2FeSFeS3C2SFeSHFeS2FeSFeHS2CH3FeS2FeS2FeSFeS3FeS2FeS2FeSFeS3C6H5CHC2H3CHC6H8C2HSH2C6H4C7H3C3HC2H5C4H3SHCHC5H2NHCHC6H4CHCHSC6H4C6H4CH2SC2SHCHC5H8C2H2C2H19SH4CH2NHCH2SCH2CNC12H29CH3CH3CHC2HCH7SHNC12H26C2H2CH2CSCHCH4NC12H28CHCHCH8NHC2NC7H16CHFeSH3C2HC3S2CHCH8CHCH2NHCH3CH7C4H2C2H2CHCHCH3CH2CH2CHCH2CNH2C2H3CHNH6C3H2CHCH4NH2FeHCH2CH2CH5CHCHCFeCH2CHCHCHCH4NCH5FeCHCH3C2HCH2CH2CH5C3H4SHCH3CH6CH11FeH4CHC4NH2CHC2HC5H5CHSCFeS2FeS2FeSFeS3CHFeSFeSFeS2FeS2FeS2FeSFeS3HC2H2CSHCHCFeSHSFeSFeSFeS2FeS2FeSFeS3C6H4C6H4C6H4C2H2C2H4CHC7H3C6H3CH7C2HCH5CHC3HC6H5C2H2CHC2H6C3HCH2CH5C2HCNC7H20CHCH8CNH4NH3CH3CH4C3H2CHC2HC3HSH2CHCH2CH2CH3CH2CH9C2HSCHCSH4CH2NC11H28FeC3H4C2SCH4CHCHCHCSH3C2H2SHFeCH4CH4CH3CH6CHCHCHCHSC3H8CH2CH3CH11CHSCHNC2H2FeCHCH4CH2NC5HC4SH11CH7CHCH4NHC3H2C2H3C3H4CH3FeH3SCH6CFeCH2CSH2SH10CHCHCH3CH3CHCHCHC2HFeH3C2H3C2NCHCHCHFeCHC3SC2S2CHCH6CHC3H2FeH5CH4FeHCSHNH5SC2HNHCH2SH6S2C3H3NH3CHFeCHCHCH2C2HC2H3C2HC2HCHCHFeCH2CHCH4C3HC2HC2FeCHSCSHCNHNHCHC2NCH4CHCHCH4CH2CH2C2S2FeCHCSFeS2FeSFeS2FeS2FeSFeS3HCNH5CH2CH4FeS2HCH3FeSHSCFeS2FeSHSHC6H9CH5CH2CH7C2HCH2C7H4C2H8CHNC3H3C6H4C6H4C6H7C3HCH2CH4CH4CH4FeNCHFeHCSC2H2CH8CH2C4SHCHCH7C2H2NC7H2C3H2CH12CNH7NC2H4CH9CH2C2SH4CH3SC4H6C3H2CH4CH4CH2CHSCHCNC5H13C2HC2HCH2C2HC3H9CH5C2SH5CH5CH2CH7C2H3C2H2CHCHC3H2SH6CHC3H2CH4CFeS2FeN2FeS2HFeS2H3C2SC2HCH2CHCHC3H2CHSH5CH2C3FeS2FeS2FeHFeHS2H2SH2CH4CH4C2HC6H4CHSHC3H2CH2FeHC3H6FeCH4NH5C2HFeCSCHC7H4C2H3CHC2HC6H4CH2NC2H3C2H3C2H7CHSHC3HCH2CSHC2HSCH3SCH3NH3CH7CH2CH2CH2CHC3H10CH3C3HC3H7C2H4CHSH7SHCSHCH5SH3CH2C4HCHCHC2H2C2H2C2HFeH4CH6CHCHCHFeH4FeSFeSHFeS2FeSFeS3FeS2FeSFeSH3FeS2FeS2CSHFeSFeS3C6H9C3H12C2H2C2HCH2C5H3C6H4C6H4C4H2C6H4C2HC2H2C2HC3H4CHC2SH3CHCH9C3HCHNC12H28FeCHCH2CHC2HCH5NH4CHC2H7CH5CH2C2H3CNC4H3C2H8SH2FeHCHC2HNCH8C2HCH3S2NCSHCH6CH8CH3CH3C2FeH2CHCH7CH2NHNC4H2C2H7CHCHNHCH2CH3CFeH4CHSCH2C2H7CH3SFeC2H4CHSH3SCHC2HCHC4H5SC2NHC3HSCH5CH2SCH2CH2NFeH2SH6CH5CH3CHFeSCFeH2CFeSHSHCHCS2FeHSH2C2HS3C6H5C6H4C6H2CHCHSCHCH6NCH5C2NH4C2HCFeCHCH3C2HC2H2C3HC2SCH2CH2FeH2SH2CHCH3C2H5SHSH4S2H2CH2SH2C3FeH2CH2CHFeHSH6NH2C2H4CHCH4CHFeH3C2H3CSHFeCH11SCFeS2FeSFeSFeS3HCHS2CHCSC3HCHCFeSCFeS2FeSFeS3H2SH2FeS2FeSCHSHFeSFeS2FeH2S2FeS2FeSHFeSFeCS2H3CSCFeH2C2H2C3SCH2C6H4C6H4C6H9CH3C8H3C6H5C3HCH3SC6H4C3H2CH2CHC6H5NC5H2CH6CH2CH13CHCH3C2H3NC5HC3HC2H10CH10CH2CH4C5H3FeCH3C2HCHC2H3C2NH2CHCHCH2CH2CH3CH3C2H2CH2C3H5CH3SCH7CH3SCH3NC10H28C2H2CHC4H2CH7CH3CHSHCSH8CH3C3H2C2HCHCH3C4HCH2CH2C2H2CHCNCH2SH10CH4SH8CNH4CHCHCHSCHSHNC4HC6H5C2H3CSCH8CHCHNC11H26CHFeH2CH2CH9SC2H5CH2C5NH2CHS2CH2CH2SHCFeCHCH3SCNHCH2CHCH2C2HCH7CHCH2CH5CH5FeHCH3C2H3C2NH4NH2CNCHNC3H3C3H3CSH4CH3CHC2H2CH8CH2CFeS2HC2HFeSFeS2FeSFeS3CFe2HSFeSHS2FeS2FeS2FeHFeS3H2CFeSCFeS2FeS2FeSFeS3FeS2FeS2FeCFeS3H9C6H4CHC3H4FeH2CHC6H4C6H4C6H4C6H4C6H3C5HCHC6H4C6H3C6H4CH2CHCH2NH6CH2C2H3CH3CH4CHCHCH3C2SC2H3NC12H35C2SNCHCFeH4CH5CH7CH4CHC2HCH2CH2CH3CHCSH2CH2CH2CH3C2H2SCH3NSH3C3H8NC6HCH12SH5SHNC12H28CH2CH4CH3C3H4C2H2CH3CHSCHC2H2CHCHCH2C2H2CH3CH2NH3C2HCSCH4C2HCH2C2HSH2CH9C2H4CH6CNC7H9CHCHCHCH3CH2CSCHCHCHSCHCNH2FeCHCH7CH4CNC3NH4FeC2FeH3SHC2HSCHCH3C2H3FeSCH5CHCH2FeH2C3NCHCNCH4CHCHC2HCH4CH6CH3CH10CH7C2H2CH8CH3SC3SH6CHFeCH2CH4SCHCHCHC2SHFeSC3FeH2CHC2HFeS2FeS2FeSFeS3HSFeHC2SCH2SCFeSCHS2HFeS2HSH2C4H4CH2C7H4C6H4C6H7SH5C6H8CH4SH4CH2SH3CH3CH2SH3SCFeHCH3CHSCH2SH13CS2CS2HCH6C5H2CH3CH7FeHCHFeHC2H2CHCHSCHNH8SH3CNCHCHNC3H2C5HCH15CHC2H3CHSH3FeCHCH3SHCHCH6CH2FeCH9CH2C3H2CHNC4HC2H2CFeH2CH7C2H4CHC2HCH5CH2C2H3CNC7HC3H3SCH5FeH11CH3C3NC9H2CSHC2H4NCHCHCFeHCH2CHCH4SFeHC2H2CH3FeH2NCHCHC2H2CHC3FeCHCSCH4CH3NCHSCH3CHC2NHC3HCHCH4CHFeC2HNHSH2CH2FeHSH3SHFeHC2H2C2H5CH8CH3CHSH2CH2C2H8CH3SH5CHSH3CH6CHCHC2H4CHCHSCHCH4C2HSHS2FeSFeSFeS2FeS2FeSFeS3HC2H6SH3FeCHSHCHCHSCHSCHCSH3FeH3C9H4C5H5C3HC2H2CH3FeC7H6C2SHCH4C2H3C2H3C2S2C2HCH2FeSCH2S2C2HFeCFeHC2HFeH4SHCHCH3NH4CSH2CH4CH2SC2H3CHSH5NC11H25C3H3CH6CH3FeHCHCHCH3CHSH2CH3SCH2SHCFeHCHC2HCH2NC12H28CSC2SH2SHC2S2H4CH2CHCHNH6FeCH3C3SC2H2NC11H11CH10C2NC11NH5CH4CH8SC2HC2H9CH3CSHCHNHFeH3FeH2C2H2Fe2H3CFeHNSCH4CSHSH5CH9SFeH2C3H5CH2C2H5CH3CH2CH2CHCHC2HC2H2CH2C2H3CHCH2FeS2HFeSH5CS2FeS2CHCHSC2FeS2FeS2FeSFeS3HSHCHSHFe2S3H2SC3HCHC7H4C6H5C5H3CHCHC6HSH4CSFeCHC3NH2CHCFeHCH3SCHFeC6H4C4HC2H5C2H9SH2CFeCHC2H3CH2CH2CFe2HFeSH7C2HCH2SH8CHCH4C3H3FeHSCHC3HCH11CHCHSC2H3CHCH3CH2CNCH3FeH2CH2NCHC4H3C3H2CHC2H2SH3NSC6H8CH4CNC10H25CH2C5H4CHSH9SFeH3NC2SC4H4CH9CH2NC12H20SH4CH3NC10HCH11CH7C2HCH2CH2FeHCHNH3CHSH5CSHFeC2H6SHSCH5SH3C2H4CH9C2H4C2SCH2FeHCHC2H2C2H2NSHC4HC3H3C2H2CH5NHSHSCH4SHSCHCHC2H2CHSCHFeH2CSCHCSH3Fe2CH5FeCH3C2H5C2HCHCHCH2CH2C2H4C3FeCFeH8SHC3H9CHCH4CH4CH4NH3SH5CHC2H3C2H3CNH3CH4CHCH3FeS2FeS2FeSFeS3HSH2SHFeSFeSC3SCH3FeSHCH2FeSHCFeHSH3C2SH5CHC5HC6H4C6H7CSHCHCHCH3CH5CH4CH2FeHC3HC2HCHCHCHCH2CFeHCH2CSH3C2HCSH2NH3C2SHCHCHCHC3H3C2H6CSCH3CSCH6SCH3SH7FeCSC2HSC2H3C2H3CFeCH7SH2C2H6CH3CH4C3H3CH2CH3C3H10C4HNH2CFe2CHSH3NCHCSH2CH3C3NH9CFeHC2H2CHC2HNHCH3CH5C2FeCH2CH2CSH7CHCH2NHC4HC4HC2H10CH10C3H3NC8HCH16CH3NC6H15CH4CH3CHC2H3SHCH3CH3CHCH2CH2CHC2H2SHCHSCHFeS2H4SH6C2H2CHNC2HCH2CHSH2C2NC2HCH4CH2NC2HSHC4H2CFeH4CH5CH3CHC5H8CS2FeS2FeS2FeSFeS3FeS2FeSFe2S3HCSCHSHCHFeSCS2HSH2C2H2SFeS2FeS2FeSFeS3FeH2FeS2H2FeSHSHCH4CSHC6H3CH10CH3C3HCHC6H3C2HC4HSH2C6H6C3HC3HCH4C2H4C3H3CHCHC2NH3C6H4C2HC2H2C6H4CHC6H4NC12H28NC6HCSCH9CH3FeH5CFeH3C4HCH2CH5CH4C4HCH2CNC12H28C2H5C3H4NC4HC2H3C2HC2H4CHCHCH7CH2C2H5C2HCH7CH10CHC5H7SH6CNCH3SCHCH3C2HCHCHCHFeNC2H3CH3CH2C3SH8C2H4CH5C2HC2H2CH5C2SHC3HCHSCH2SCH6CH3CH2NH7CH5CHCHCHCHC3SH2CH2C2HFeH2NCH3SCH8CHCH5CHCH3CH3CH2NCHCHC2HCH3CH2CH5C2H2CH2C2H2SH4CH3NCNH3CHCH2CHC2H6FeHC2H4C2H5C2H2CFeH3SH3CH2CH2C2HNH3CH3FeH3SH8C2H2CSHCHCH2CFeS2FeS2FeSFeS3CH3FeSHFeSHSHFeH4SNCH3SHSFeS2FeS2FeHFeS3HC6H3C7H4C5H3CH2C2H3CHCHC3H2C7H4C2NC2H3C6H5CH2SC2H5C2HSH3C7H7SHCHCHSHCFeH4C7HC2FeH7SH6CH2NC10HCH8CH2FeH7CHSHCH5CH2SH4FeHNC2H2Fe2C3HCH7CH3CH8C2H7NC4H2CH2C2H9NHCHC3H5NC10H12CH7CH3SHCS2C2HCH2CHCHCH7C2H5NC12H29NH5SH3CH2C2SHCH3CH3SCNC9H22CHCHFeHC2H2C2SH2C3HCSH4CH2SHSH6FeH2CSHSCHCHCFeH2C2HCH3FeC2HNC2HCH3C3HC3HCSHCNC4SCH6CSH2CH2CHSFeCHCHCH7C2HCHFeC2HCHCHCHCH4C2H3CH4FeH2CH4CHCH5CH2C2HCH2CFeHCH4FeHS2CHS2FeS2FeS2FeSFeS3H4C6H3C2HCHCH3FeCH5CHC6H4C6H4C2HCFeHC2NC12H28NC12H28NC7H2CHCH10CH11CH8CH2CH2CH3CHFeCSCHCS2CH3S2HNC12H29C2S2H2SCFe2H3FeH2C2HCHCH6C3HCH2C3H4CHCHCSH2CHNH4CH3C3H3CSH2CHCH2SHC3H4CH5CHCH3CHSCH2SCH2NHC2H3CH3C3H6CH3CH3CHCH4CH2CHFeSHFeS2FeS2FeSFeS3H3CH2S2Fe2SHFeS2FeSFeS3H3CHCHSH2C6H4C6H5C6H4SHSH2C2H2CH2C7H5C2HSH8CH3NHC2H5NC6FeC4H22CH2NC8HC2H16CH12CH2C2HSH5CH3NC4HC3HNHCH7CH7NHC2HFeH3CH3C2H3CHC6HCH2CH3C2HC3HC3H2C2H3CH3SHSCSCNC2H6SH4CH2C3HCH3NCH4C2H2CH3CHCH5CH2CH3C2H2C4H5CH7C2H5SH2C
_chemical_formula_sum              "S1248 C5616 Fe624 H9984 N312"
_cell_length_a       90.5836
_cell_length_b       90.7101
_cell_length_c       90.6379
_cell_angle_alpha    73.9563
_cell_angle_beta     73.972
_cell_angle_gamma    73.968

_space_group_name_H-M_alt    "P 1"
_space_group_IT_number       1

loop_
  _space_group_symop_operation_xyz
  'x, y, z'

loop_
  _atom_site_type_symbol
  _atom_site_label
  _atom_site_symmetry_multiplicity
  _atom_site_fract_x
  _atom_site_fract_y
  _atom_site_fract_z
  _atom_site_occupancy
  S   S1        1.0  0.20500  0.00784  0.14125  1.0000
  C   C1        1.0  0.19841  0.99661  0.06675  1.0000
  Fe  Fe1       1.0  0.20834  0.00403  0.16569  1.0000
  S   S2        1.0  0.19261  0.99273  0.18708  1.0000
  C   C2        1.0  0.17382  0.23231  0.11155  1.0000
  S   S3        1.0  0.19685  0.05369  0.12479  1.0000
  Fe  Fe2       1.0  0.11299  0.01585  0.25968  1.0000
  S   S4        1.0  0.10201  0.02626  0.23871  1.0000
  Fe  Fe3       1.0  0.11663  0.04763  0.26199  1.0000
  S   S5        1.0  0.10557  0.06031  0.24132  1.0000
  S   S6        1.0  0.12783  0.06359  0.26863  1.0000
  Fe  Fe4       1.0  0.08806  0.04505  0.25198  1.0000
  S   S7        1.0  0.06300  0.05524  0.24920  1.0000
  Fe  Fe5       1.0  0.12042  0.04057  0.23001  1.0000
  S   S8        1.0  0.13356  0.04591  0.20481  1.0000
  S   S9        1.0  0.09774  0.03375  0.27385  1.0000
  S   S10       1.0  0.13262  0.02884  0.24986  1.0000
  Fe  Fe6       1.0  0.15999  0.11197  0.32472  1.0000
  S   S11       1.0  0.16481  0.09033  0.34366  1.0000
  S   S12       1.0  0.14451  0.13572  0.32798  1.0000
  Fe  Fe7       1.0  0.18263  0.09614  0.29867  1.0000
  S   S13       1.0  0.18954  0.07348  0.31546  1.0000
  S   S14       1.0  0.19032  0.09648  0.27284  1.0000
  Fe  Fe8       1.0  0.16365  0.07723  0.32621  1.0000
  S   S15       1.0  0.14990  0.05857  0.33051  1.0000
  Fe  Fe9       1.0  0.19036  0.08850  0.33115  1.0000
  S   S16       1.0  0.21175  0.08726  0.34048  1.0000
  S   S17       1.0  0.15678  0.09908  0.30856  1.0000
  S   S18       1.0  0.18548  0.11106  0.31316  1.0000
  H   H1        1.0  0.10124  0.17223  0.02807  1.0000
  H   H2        1.0  0.08620  0.19893  0.28098  1.0000
  S   S19       1.0  0.01586  0.09598  0.29629  1.0000
  H   H3        1.0  0.09501  0.08541  0.34275  1.0000
  H   H4        1.0  0.15414  0.06800  0.24232  1.0000
  S   S20       1.0  0.23393  0.09694  0.06728  1.0000
  Fe  Fe10      1.0  0.05302  0.16646  0.34753  1.0000
  S   S21       1.0  0.03787  0.16778  0.33115  1.0000
  S   S22       1.0  0.07049  0.14324  0.35200  1.0000
  Fe  Fe11      1.0  0.03541  0.19881  0.35442  1.0000
  S   S23       1.0  0.01914  0.20249  0.33841  1.0000
  S   S24       1.0  0.03198  0.21959  0.36513  1.0000
  Fe  Fe12      1.0  0.01781  0.17743  0.34913  1.0000
  H   H5        1.0  0.12464  0.16055  0.01433  1.0000
  Fe  Fe13      1.0  0.04071  0.19264  0.32194  1.0000
  S   S25       1.0  0.04575  0.20258  0.29587  1.0000
  S   S26       1.0  0.03254  0.17429  0.36648  1.0000
  S   S27       1.0  0.05737  0.19078  0.33697  1.0000
  Fe  Fe14      1.0  0.22598  0.15437  0.06431  1.0000
  S   S28       1.0  0.21762  0.13454  0.08280  1.0000
  H   H6        1.0  0.11169  0.16131  0.99338  1.0000
  Fe  Fe15      1.0  0.20750  0.15228  0.04198  1.0000
  S   S29       1.0  0.19743  0.13218  0.05861  1.0000
  S   S30       1.0  0.20022  0.16511  0.01904  1.0000
  Fe  Fe16      1.0  0.19406  0.14572  0.07699  1.0000
  S   S31       1.0  0.17364  0.14603  0.09765  1.0000
  Fe  Fe17      1.0  0.22180  0.12254  0.06314  1.0000
  C   C3        1.0  0.00106  0.20498  0.06967  1.0000
  S   S32       1.0  0.20194  0.16675  0.06019  1.0000
  C   C4        1.0  0.23136  0.09657  0.29727  1.0000
  H   H7        1.0  0.17472  0.19148  0.07010  1.0000
  H   H8        1.0  0.21175  0.06717  0.14457  1.0000
  C   C5        1.0  0.22230  0.05472  0.45820  1.0000
  N   N1        1.0  0.09461  0.21481  0.30156  1.0000
  C   C6        1.0  0.17258  0.00863  0.12629  1.0000
  C   C7        1.0  0.00864  0.21209  0.25892  1.0000
  H   H9        1.0  0.14583  0.98671  0.20233  1.0000
  C   C8        1.0  0.22437  0.21089  0.06677  1.0000
  H   H10       1.0  0.23590  0.02590  0.34025  1.0000
  H   H11       1.0  0.99572  0.22980  0.28369  1.0000
  H   H12       1.0  0.03490  0.11171  0.36142  1.0000
  H   H13       1.0  0.22172  0.19237  0.05757  1.0000
  H   H14       1.0  0.21621  0.21996  0.06064  1.0000
  H   H15       1.0  0.21280  0.12387  0.34279  1.0000
  H   H16       1.0  0.21102  0.21832  0.17496  1.0000
  C   C9        1.0  0.13963  0.17525  0.07561  1.0000
  C   C10       1.0  0.15444  0.16669  0.07857  1.0000
  C   C11       1.0  0.15546  0.15615  0.09302  1.0000
  C   C12       1.0  0.14175  0.15387  0.10428  1.0000
  H   H17       1.0  0.18759  0.05115  0.09540  1.0000
  H   H18       1.0  0.16502  0.16835  0.06977  1.0000
  H   H19       1.0  0.14252  0.14572  0.11543  1.0000
  C   C13       1.0  0.02216  0.21932  0.38493  1.0000
  C   C14       1.0  0.02366  0.20549  0.39656  1.0000
  C   C15       1.0  0.20313  0.17017  0.10654  1.0000
  H   H20       1.0  0.20979  0.21512  0.12879  1.0000
  H   H21       1.0  0.22123  0.11831  0.99601  1.0000
  H   H22       1.0  0.00418  0.20607  0.25237  1.0000
  H   H23       1.0  0.03070  0.19462  0.39340  1.0000
  H   H24       1.0  0.11644  0.16008  0.10987  1.0000
  C   C16       1.0  0.15803  0.15923  0.02363  1.0000
  H   H25       1.0  0.00995  0.13556  0.31972  1.0000
  H   H26       1.0  0.02057  0.11983  0.31052  1.0000
  C   C17       1.0  0.00506  0.21551  0.07791  1.0000
  C   C18       1.0  0.15891  0.06789  0.22971  1.0000
  C   C19       1.0  0.09271  0.19215  0.29038  1.0000
  N   N2        1.0  0.16955  0.11868  0.37224  1.0000
  H   H27       1.0  0.22244  0.21838  0.14890  1.0000
  C   C20       1.0  0.11564  0.99844  0.21323  1.0000
  H   H28       1.0  0.11417  0.08144  0.34712  1.0000
  C   C21       1.0  0.22030  0.07327  0.35543  1.0000
  H   H29       1.0  0.15007  0.22036  0.99947  1.0000
  H   H30       1.0  0.15528  0.22080  0.11425  1.0000
  C   C22       1.0  0.22989  0.06458  0.42919  1.0000
  H   H31       1.0  0.02111  0.14840  0.39570  1.0000
  H   H32       1.0  0.18589  0.17111  0.99297  1.0000
  H   H33       1.0  0.17284  0.01573  0.13438  1.0000
  H   H34       1.0  0.14099  0.16633  0.00020  1.0000
  S   S33       1.0  0.10722  0.18306  0.08374  1.0000
  C   C23       1.0  0.00283  0.16008  0.41267  1.0000
  H   H35       1.0  0.22830  0.17699  0.17386  1.0000
  C   C24       1.0  0.01983  0.22163  0.10243  1.0000
  H   H36       1.0  0.16785  0.20512  0.00056  1.0000
  H   H37       1.0  0.12331  0.00443  0.21612  1.0000
  C   C25       1.0  0.12390  0.13767  0.33384  1.0000
  C   C26       1.0  0.11412  0.15272  0.33339  1.0000
  C   C27       1.0  0.09769  0.15465  0.33861  1.0000
  C   C28       1.0  0.09097  0.14147  0.34464  1.0000
  C   C29       1.0  0.10077  0.12642  0.34514  1.0000
  C   C30       1.0  0.11717  0.12451  0.33965  1.0000
  H   H38       1.0  0.11933  0.16287  0.32924  1.0000
  H   H39       1.0  0.09027  0.16628  0.33835  1.0000
  H   H40       1.0  0.09566  0.11617  0.34994  1.0000
  H   H41       1.0  0.12464  0.11286  0.34032  1.0000
  H   H42       1.0  0.18832  0.20298  0.06879  1.0000
  H   H43       1.0  0.24076  0.02431  0.46444  1.0000
  C   C31       1.0  0.04995  0.06614  0.26264  1.0000
  C   C32       1.0  0.05469  0.06834  0.27514  1.0000
  C   C33       1.0  0.04405  0.07739  0.28549  1.0000
  C   C34       1.0  0.02875  0.08447  0.28326  1.0000
  C   C35       1.0  0.02402  0.08230  0.27072  1.0000
  C   C36       1.0  0.03458  0.07301  0.26053  1.0000
  H   H44       1.0  0.06651  0.06297  0.27687  1.0000
  H   H45       1.0  0.04774  0.07901  0.29513  1.0000
  H   H46       1.0  0.01216  0.08748  0.26907  1.0000
  H   H47       1.0  0.03083  0.07106  0.25102  1.0000
  C   C37       1.0  0.13539  0.05946  0.28563  1.0000
  C   C38       1.0  0.14762  0.06648  0.28487  1.0000
  C   C39       1.0  0.15263  0.06549  0.29849  1.0000
  C   C40       1.0  0.14528  0.05767  0.31310  1.0000
  C   C41       1.0  0.13355  0.04994  0.31379  1.0000
  C   C42       1.0  0.12862  0.05079  0.30005  1.0000
  H   H48       1.0  0.15298  0.07314  0.27375  1.0000
  H   H49       1.0  0.16206  0.07101  0.29768  1.0000
  H   H50       1.0  0.12793  0.04371  0.32503  1.0000
  H   H51       1.0  0.11918  0.04530  0.30074  1.0000
  C   C43       1.0  0.20741  0.06570  0.10901  1.0000
  C   C44       1.0  0.22304  0.06002  0.10200  1.0000
  C   C45       1.0  0.23107  0.06962  0.08911  1.0000
  C   C46       1.0  0.22363  0.08510  0.08338  1.0000
  C   C47       1.0  0.20805  0.09086  0.09049  1.0000
  C   C48       1.0  0.19991  0.08110  0.10312  1.0000
  H   H52       1.0  0.22882  0.04812  0.10620  1.0000
  H   H53       1.0  0.05840  0.21585  0.13302  1.0000
  H   H54       1.0  0.20218  0.10277  0.08608  1.0000
  H   H55       1.0  0.18777  0.08553  0.10823  1.0000
  C   C49       1.0  0.17561  0.00689  0.19194  1.0000
  C   C50       1.0  0.17119  0.02009  0.18047  1.0000
  C   C51       1.0  0.15789  0.03169  0.18446  1.0000
  C   C52       1.0  0.14920  0.03038  0.19995  1.0000
  C   C53       1.0  0.15340  0.01698  0.21135  1.0000
  C   C54       1.0  0.16661  0.00523  0.20733  1.0000
  H   H56       1.0  0.17792  0.02129  0.16849  1.0000
  H   H57       1.0  0.15424  0.04160  0.17553  1.0000
  H   H58       1.0  0.14653  0.01562  0.22324  1.0000
  H   H59       1.0  0.17007  0.99508  0.21625  1.0000
  C   C55       1.0  0.12702  0.16198  0.10114  1.0000
  H   H60       1.0  0.16737  0.07577  0.22498  1.0000
  H   H61       1.0  0.19940  0.19516  0.09819  1.0000
  H   H62       1.0  0.21822  0.13365  0.01598  1.0000
  C   C56       1.0  0.10783  0.08145  0.33823  1.0000
  C   C57       1.0  0.02536  0.13438  0.36675  1.0000
  C   C58       1.0  0.13984  0.13150  0.37926  1.0000
  H   H63       1.0  0.18500  0.21781  0.08757  1.0000
  H   H64       1.0  0.20214  0.06001  0.36385  1.0000
  H   H65       1.0  0.21143  0.06378  0.24281  1.0000
  C   C59       1.0  0.23227  0.21482  0.07596  1.0000
  N   N3        1.0  0.10701  0.10569  0.29547  1.0000
  C   C60       1.0  0.10578  0.09218  0.30958  1.0000
  C   C61       1.0  0.10219  0.10204  0.28242  1.0000
  C   C62       1.0  0.12414  0.10660  0.28987  1.0000
  C   C63       1.0  0.09758  0.12136  0.29909  1.0000
  C   C64       1.0  0.08223  0.12128  0.31201  1.0000
  C   C65       1.0  0.11348  0.09243  0.32278  1.0000
  C   C66       1.0  0.12863  0.11789  0.27384  1.0000
  C   C67       1.0  0.08538  0.09916  0.28586  1.0000
  C   C68       1.0  0.08329  0.09309  0.27257  1.0000
  C   C69       1.0  0.07332  0.13804  0.31309  1.0000
  C   C70       1.0  0.14548  0.11993  0.27092  1.0000
  H   H66       1.0  0.11145  0.08080  0.30591  1.0000
  H   H67       1.0  0.10288  0.11179  0.27183  1.0000
  H   H68       1.0  0.11064  0.09151  0.27872  1.0000
  H   H69       1.0  0.13167  0.09479  0.28898  1.0000
  H   H70       1.0  0.12794  0.11041  0.29862  1.0000
  H   H71       1.0  0.10476  0.12712  0.30304  1.0000
  H   H72       1.0  0.09455  0.12963  0.28819  1.0000
  H   H73       1.0  0.00219  0.16299  0.42397  1.0000
  H   H74       1.0  0.07434  0.11517  0.30978  1.0000
  H   H75       1.0  0.12643  0.08848  0.31932  1.0000
  H   H76       1.0  0.11090  0.10443  0.32482  1.0000
  H   H77       1.0  0.12061  0.12965  0.27337  1.0000
  H   H78       1.0  0.12810  0.11300  0.26407  1.0000
  C   C71       1.0  0.15507  0.12860  0.36636  1.0000
  H   H79       1.0  0.07096  0.09193  0.27477  1.0000
  H   H80       1.0  0.08599  0.10129  0.26106  1.0000
  H   H81       1.0  0.06279  0.13773  0.32288  1.0000
  H   H82       1.0  0.08083  0.14448  0.31559  1.0000
  H   H83       1.0  0.06951  0.14451  0.30198  1.0000
  H   H84       1.0  0.15391  0.10836  0.27135  1.0000
  H   H85       1.0  0.14866  0.12751  0.25912  1.0000
  H   H86       1.0  0.14666  0.12554  0.27987  1.0000
  C   C72       1.0  0.20326  0.12991  0.33629  1.0000
  H   H87       1.0  0.20329  0.20211  0.15702  1.0000
  C   C73       1.0  0.16719  0.05109  0.22709  1.0000
  C   C74       1.0  0.02586  0.18715  0.27165  1.0000
  H   H88       1.0  0.14519  0.21554  0.09126  1.0000
  H   H89       1.0  0.20439  0.06673  0.43408  1.0000
  S   S34       1.0  0.02897  0.22603  0.15322  1.0000
  H   H90       1.0  0.12308  0.13011  0.36681  1.0000
  H   H91       1.0  0.07620  0.17665  0.30110  1.0000
  H   H92       1.0  0.03210  0.20976  0.26338  1.0000
  H   H93       1.0  0.19016  0.05351  0.06006  1.0000
  C   C75       1.0  0.14532  0.07485  0.22121  1.0000
  H   H94       1.0  0.19384  0.10953  0.36148  1.0000
  N   N4        1.0  0.23172  0.20095  0.16780  1.0000
  H   H95       1.0  0.13976  0.08695  0.22301  1.0000
  H   H96       1.0  0.16913  0.04962  0.25968  1.0000
  H   H97       1.0  0.23813  0.20300  0.14272  1.0000
  H   H98       1.0  0.21685  0.08546  0.14309  1.0000
  H   H99       1.0  0.23757  0.04019  0.31274  1.0000
  H   H100      1.0  0.23156  0.10613  0.22636  1.0000
  H   H101      1.0  0.15830  0.15270  0.01482  1.0000
  C   C76       1.0  0.17798  0.18755  0.09877  1.0000
  H   H102      1.0  0.03226  0.20046  0.24820  1.0000
  C   C77       1.0  0.08976  0.18607  0.04530  1.0000
  C   C78       1.0  0.20546  0.10600  0.26140  1.0000
  H   H103      1.0  0.18450  0.08194  0.05883  1.0000
  H   H104      1.0  0.14623  0.23353  0.18883  1.0000
  H   H105      1.0  0.02991  0.20769  0.06827  1.0000
  H   H106      1.0  0.21072  0.03081  0.24040  1.0000
  H   H107      1.0  0.02001  0.18900  0.28371  1.0000
  H   H108      1.0  0.01977  0.17983  0.26836  1.0000
  H   H109      1.0  0.00123  0.21019  0.27096  1.0000
  H   H110      1.0  0.07331  0.22742  0.31436  1.0000
  C   C79       1.0  0.21308  0.06129  0.36546  1.0000
  H   H111      1.0  0.13629  0.06763  0.22601  1.0000
  C   C80       1.0  0.21307  0.10246  0.24673  1.0000
  N   N5        1.0  0.15853  0.08224  0.15494  1.0000
  C   C81       1.0  0.15733  0.07769  0.14058  1.0000
  C   C82       1.0  0.16005  0.09914  0.15052  1.0000
  C   C83       1.0  0.17268  0.07144  0.16079  1.0000
  C   C84       1.0  0.14410  0.08063  0.16799  1.0000
  C   C85       1.0  0.12796  0.08871  0.16352  1.0000
  C   C86       1.0  0.15434  0.06101  0.14326  1.0000
  C   C87       1.0  0.17775  0.07634  0.17344  1.0000
  C   C88       1.0  0.17464  0.10287  0.13753  1.0000
  C   C89       1.0  0.17664  0.11943  0.13609  1.0000
  C   C90       1.0  0.11446  0.08565  0.17767  1.0000
  C   C91       1.0  0.15278  0.05797  0.12805  1.0000
  C   C92       1.0  0.18913  0.06279  0.18154  1.0000
  H   H112      1.0  0.16845  0.07803  0.13153  1.0000
  H   H113      1.0  0.14814  0.08646  0.13486  1.0000
  H   H114      1.0  0.14967  0.10695  0.14602  1.0000
  H   H115      1.0  0.15996  0.10318  0.16109  1.0000
  H   H116      1.0  0.18307  0.06992  0.15093  1.0000
  H   H117      1.0  0.17052  0.05941  0.16582  1.0000
  H   H118      1.0  0.14394  0.06806  0.17334  1.0000
  H   H119      1.0  0.14437  0.08556  0.17783  1.0000
  H   H120      1.0  0.12633  0.08418  0.15403  1.0000
  H   H121      1.0  0.12680  0.10161  0.15958  1.0000
  H   H122      1.0  0.16431  0.05190  0.14723  1.0000
  H   H123      1.0  0.14340  0.05941  0.15218  1.0000
  H   H124      1.0  0.16758  0.07997  0.18273  1.0000
  H   H125      1.0  0.18372  0.08634  0.16797  1.0000
  H   H126      1.0  0.18569  0.09455  0.13984  1.0000
  H   H127      1.0  0.17313  0.10235  0.12595  1.0000
  H   H128      1.0  0.18684  0.12193  0.12638  1.0000
  H   H129      1.0  0.16600  0.12831  0.13331  1.0000
  H   H130      1.0  0.17886  0.12052  0.14716  1.0000
  H   H131      1.0  0.11528  0.09017  0.18757  1.0000
  H   H132      1.0  0.10301  0.09164  0.17434  1.0000
  H   H133      1.0  0.11476  0.07285  0.18173  1.0000
  H   H134      1.0  0.15090  0.04588  0.13026  1.0000
  H   H135      1.0  0.14260  0.06645  0.12377  1.0000
  H   H136      1.0  0.16368  0.05900  0.11882  1.0000
  H   H137      1.0  0.20006  0.05921  0.17299  1.0000
  H   H138      1.0  0.19222  0.06652  0.19078  1.0000
  H   H139      1.0  0.18363  0.05249  0.18708  1.0000
  H   H140      1.0  0.22714  0.03510  0.18100  1.0000
  H   H141      1.0  0.11487  0.14189  0.38134  1.0000
  H   H142      1.0  0.22169  0.17685  0.98359  1.0000
  C   C93       1.0  0.03392  0.10178  0.33649  1.0000
  C   C94       1.0  0.11666  0.17154  0.98597  1.0000
  H   H143      1.0  0.12198  0.21152  0.11276  1.0000
  C   C95       1.0  0.02053  0.12582  0.31973  1.0000
  C   C96       1.0  0.03471  0.13375  0.31410  1.0000
  C   C97       1.0  0.03898  0.09143  0.32415  1.0000
  C   C98       1.0  0.17271  0.12661  0.38331  1.0000
  C   C99       1.0  0.20403  0.00402  0.07685  1.0000
  H   H144      1.0  0.07014  0.22620  0.10526  1.0000
  C   C100      1.0  0.03397  0.14545  0.29838  1.0000
  C   C101      1.0  0.05455  0.07974  0.32601  1.0000
  H   H145      1.0  0.20290  0.19078  0.18154  1.0000
  H   H146      1.0  0.04427  0.10667  0.33524  1.0000
  C   C102      1.0  0.20524  0.13603  0.98319  1.0000
  Fe  Fe18      1.0  0.99418  0.14614  0.26317  1.0000
  H   H147      1.0  0.09238  0.18926  0.05512  1.0000
  H   H148      1.0  0.17754  0.14147  0.03144  1.0000
  H   H149      1.0  0.21655  0.06739  0.45741  1.0000
  C   C103      1.0  0.00724  0.23313  0.27885  1.0000
  H   H150      1.0  0.04590  0.12490  0.31249  1.0000
  H   H151      1.0  0.03458  0.14042  0.32265  1.0000
  H   H152      1.0  0.03239  0.09373  0.34832  1.0000
  H   H153      1.0  0.04071  0.09871  0.31202  1.0000
  H   H154      1.0  0.12426  0.19103  0.98813  1.0000
  H   H155      1.0  0.19408  0.02734  0.11249  1.0000
  H   H156      1.0  0.01660  0.21026  0.10916  1.0000
  H   H157      1.0  0.03977  0.12779  0.34559  1.0000
  C   C104      1.0  0.21345  0.12980  0.99538  1.0000
  H   H158      1.0  0.02785  0.16020  0.40461  1.0000
  C   C105      1.0  0.99565  0.23277  0.12160  1.0000
  H   H159      1.0  0.04423  0.15109  0.29450  1.0000
  H   H160      1.0  0.03410  0.13939  0.28925  1.0000
  H   H161      1.0  0.02310  0.15485  0.29956  1.0000
  H   H162      1.0  0.06410  0.08603  0.32390  1.0000
  H   H163      1.0  0.05336  0.07209  0.33800  1.0000
  H   H164      1.0  0.05794  0.07206  0.31744  1.0000
  C   C106      1.0  0.06624  0.23046  0.01172  1.0000
  C   C107      1.0  0.23059  0.11983  0.24273  1.0000
  C   C108      1.0  0.15707  0.21145  0.00754  1.0000
  H   H165      1.0  0.22618  0.00599  0.09092  1.0000
  C   C109      1.0  0.11686  0.18731  0.02779  1.0000
  C   C110      1.0  0.22272  0.12374  0.25725  1.0000
  H   H166      1.0  0.23688  0.16958  0.00418  1.0000
  Fe  Fe19      1.0  0.23715  0.01795  0.15522  1.0000
  H   H167      1.0  0.01535  0.13123  0.37637  1.0000
  H   H168      1.0  0.16775  0.22433  0.03597  1.0000
  H   H169      1.0  0.24039  0.08377  0.34973  1.0000
  C   C111      1.0  0.20918  0.04521  0.46304  1.0000
  C   C112      1.0  0.17344  0.21405  0.04401  1.0000
  C   C113      1.0  0.12957  0.17105  0.00768  1.0000
  C   C114      1.0  0.03013  0.12371  0.35507  1.0000
  H   H170      1.0  0.22704  0.03347  0.43944  1.0000
  C   C115      1.0  0.19612  0.05070  0.47643  1.0000
  H   H171      1.0  0.16654  0.15366  0.04523  1.0000
  H   H172      1.0  0.15852  0.13843  0.04287  1.0000
  H   H173      1.0  0.08085  0.17870  0.05036  1.0000
  H   H174      1.0  0.21978  0.03310  0.07113  1.0000
  H   H175      1.0  0.01435  0.18286  0.21411  1.0000
  C   C116      1.0  0.22568  0.10922  0.23751  1.0000
  H   H176      1.0  0.22639  0.13205  0.26127  1.0000
  H   H177      1.0  0.10413  0.99981  0.22171  1.0000
  C   C117      1.0  0.02233  0.20991  0.07975  1.0000
  S   S35       1.0  0.99889  0.13882  0.28737  1.0000
  C   C118      1.0  0.00775  0.22002  0.41669  1.0000
  H   H178      1.0  0.15468  0.19147  0.02655  1.0000
  H   H179      1.0  0.99157  0.13758  0.22041  1.0000
  H   H180      1.0  0.17227  0.13931  0.37800  1.0000
  H   H181      1.0  0.12158  0.19211  0.12489  1.0000
  C   C119      1.0  0.24040  0.18784  0.98278  1.0000
  H   H182      1.0  0.08473  0.19689  0.03731  1.0000
  C   C120      1.0  0.19178  0.05743  0.06996  1.0000
  C   C121      1.0  0.17608  0.01764  0.10922  1.0000
  C   C122      1.0  0.19365  0.15962  0.99364  1.0000
  H   H183      1.0  0.21407  0.03255  0.46727  1.0000
  C   C123      1.0  0.20204  0.15352  0.00566  1.0000
  C   C124      1.0  0.23072  0.05323  0.18981  1.0000
  C   C125      1.0  0.22743  0.19530  0.06507  1.0000
  Fe  Fe20      1.0  0.99678  0.11499  0.28666  1.0000
  C   C126      1.0  0.00878  0.09693  0.22507  1.0000
  S   S36       1.0  0.23236  0.14144  0.04480  1.0000
  C   C127      1.0  0.99869  0.17909  0.23683  1.0000
  H   H184      1.0  0.11897  0.19214  0.03688  1.0000
  N   N6        1.0  0.01930  0.11471  0.33560  1.0000
  H   H185      1.0  0.22315  0.06825  0.15761  1.0000
  H   H186      1.0  0.19150  0.14123  0.39208  1.0000
  H   H187      1.0  0.13433  0.20102  0.00169  1.0000
  C   C128      1.0  0.08487  0.22448  0.98814  1.0000
  H   H188      1.0  0.15802  0.04452  0.22827  1.0000
  C   C129      1.0  0.17522  0.07351  0.39171  1.0000
  H   H189      1.0  0.05159  0.22158  0.08745  1.0000
  H   H190      1.0  0.03550  0.13327  0.37193  1.0000
  H   H191      1.0  0.06367  0.22475  0.34278  1.0000
  C   C130      1.0  0.00587  0.23376  0.40500  1.0000
  N   N7        1.0  0.04060  0.12009  0.22206  1.0000
  C   C131      1.0  0.02738  0.11141  0.22863  1.0000
  C   C132      1.0  0.04410  0.12537  0.23498  1.0000
  C   C133      1.0  0.03500  0.13462  0.21024  1.0000
  C   C134      1.0  0.05520  0.11041  0.21363  1.0000
  C   C135      1.0  0.06196  0.09413  0.22318  1.0000
  C   C136      1.0  0.02232  0.10532  0.21679  1.0000
  C   C137      1.0  0.04563  0.14684  0.20387  1.0000
  C   C138      1.0  0.04177  0.11480  0.25179  1.0000
  C   C139      1.0  0.04687  0.12122  0.26306  1.0000
  C   C140      1.0  0.07558  0.08494  0.21271  1.0000
  H   H192      1.0  0.21827  0.18478  0.15320  1.0000
  C   C141      1.0  0.03922  0.16029  0.19124  1.0000
  H   H193      1.0  0.01680  0.11918  0.23431  1.0000
  H   H194      1.0  0.03027  0.10104  0.23805  1.0000
  H   H195      1.0  0.05627  0.12744  0.23159  1.0000
  H   H196      1.0  0.03623  0.13689  0.23658  1.0000
  H   H197      1.0  0.02307  0.14098  0.21547  1.0000
  H   H198      1.0  0.03372  0.13137  0.19977  1.0000
  H   H199      1.0  0.05311  0.10864  0.20276  1.0000
  H   H200      1.0  0.06493  0.11680  0.20950  1.0000
  H   H201      1.0  0.05297  0.08690  0.22837  1.0000
  H   H202      1.0  0.06672  0.09548  0.23264  1.0000
  H   H203      1.0  0.01809  0.11509  0.20743  1.0000
  H   H204      1.0  0.03224  0.09682  0.21129  1.0000
  H   H205      1.0  0.05779  0.14147  0.19849  1.0000
  H   H206      1.0  0.04611  0.15208  0.21339  1.0000
  H   H207      1.0  0.02913  0.11464  0.25658  1.0000
  H   H208      1.0  0.04840  0.10255  0.25205  1.0000
  H   H209      1.0  0.05958  0.12135  0.25922  1.0000
  H   H210      1.0  0.03994  0.13334  0.26354  1.0000
  H   H211      1.0  0.04467  0.11369  0.27507  1.0000
  H   H212      1.0  0.08037  0.07338  0.21984  1.0000
  H   H213      1.0  0.07148  0.08271  0.20321  1.0000
  H   H214      1.0  0.08522  0.09141  0.20746  1.0000
  H   H215      1.0  0.21243  0.18574  0.19760  1.0000
  H   H216      1.0  0.20182  0.99692  0.08901  1.0000
  H   H217      1.0  0.20173  0.07480  0.40635  1.0000
  H   H218      1.0  0.02688  0.16596  0.19589  1.0000
  H   H219      1.0  0.04646  0.16931  0.18742  1.0000
  H   H220      1.0  0.03962  0.15589  0.18082  1.0000
  H   H221      1.0  0.15732  0.09991  0.37602  1.0000
  H   H222      1.0  0.15264  0.12312  0.35792  1.0000
  H   H223      1.0  0.13774  0.12048  0.38778  1.0000
  H   H224      1.0  0.20062  0.00297  0.05425  1.0000
  C   C142      1.0  0.20458  0.04217  0.24375  1.0000
  Fe  Fe21      1.0  0.23107  0.99896  0.13550  1.0000
  C   C143      1.0  0.04705  0.22228  0.29190  1.0000
  N   N8        1.0  0.00683  0.22936  0.25132  1.0000
  C   C144      1.0  0.19099  0.05064  0.23514  1.0000
  C   C145      1.0  0.16911  0.03980  0.25455  1.0000
  N   N9        1.0  0.17841  0.04167  0.23762  1.0000
  H   H225      1.0  0.17154  0.07519  0.40398  1.0000
  S   S37       1.0  0.12059  0.98961  0.26858  1.0000
  H   H226      1.0  0.05426  0.23240  0.01849  1.0000
  H   H227      1.0  0.16037  0.10266  0.39341  1.0000
  H   H228      1.0  0.18574  0.06183  0.23925  1.0000
  H   H229      1.0  0.19038  0.08994  0.38327  1.0000
  C   C146      1.0  0.21476  0.03107  0.08403  1.0000
  H   H230      1.0  0.19994  0.02771  0.06361  1.0000
  H   H231      1.0  0.15199  0.02679  0.28373  1.0000
  H   H232      1.0  0.09112  0.08133  0.27198  1.0000
  H   H233      1.0  0.07888  0.22771  0.28593  1.0000
  C   C147      1.0  0.14728  0.19988  0.01861  1.0000
  H   H234      1.0  0.17506  0.04527  0.08708  1.0000
  C   C148      1.0  0.17564  0.20260  0.07242  1.0000
  H   H235      1.0  0.16724  0.03407  0.28712  1.0000
  H   H236      1.0  0.17545  0.01959  0.23544  1.0000
  C   C149      1.0  0.16745  0.21644  0.06086  1.0000
  H   H237      1.0  0.18566  0.99671  0.07110  1.0000
  H   H238      1.0  0.01816  0.19524  0.42141  1.0000
  H   H239      1.0  0.22993  0.06990  0.28994  1.0000
  H   H240      1.0  0.20439  0.19670  0.13154  1.0000
  H   H241      1.0  0.19858  0.17081  0.11910  1.0000
  H   H242      1.0  0.21417  0.04196  0.38568  1.0000
  C   C150      1.0  0.23827  0.18365  0.07271  1.0000
  H   H243      1.0  0.15645  0.04078  0.25516  1.0000
  H   H244      1.0  0.09587  0.16822  0.30455  1.0000
  S   S38       1.0  0.21147  0.02848  0.16252  1.0000
  C   C151      1.0  0.09391  0.22938  0.00899  1.0000
  C   C152      1.0  0.11216  0.21045  0.30065  1.0000
  C   C153      1.0  0.11878  0.19425  0.31062  1.0000
  C   C154      1.0  0.08761  0.21483  0.33147  1.0000
  C   C155      1.0  0.00563  0.10714  0.33811  1.0000
  C   C156      1.0  0.13612  0.19236  0.31042  1.0000
  H   H245      1.0  0.08993  0.19203  0.31493  1.0000
  H   H246      1.0  0.17050  0.20332  0.04297  1.0000
  H   H247      1.0  0.99984  0.17185  0.38893  1.0000
  H   H248      1.0  0.11584  0.21963  0.30397  1.0000
  H   H249      1.0  0.11795  0.18459  0.30579  1.0000
  H   H250      1.0  0.11231  0.19253  0.32302  1.0000
  H   H251      1.0  0.08524  0.20291  0.33452  1.0000
  H   H252      1.0  0.09963  0.21392  0.33292  1.0000
  H   H253      1.0  0.16064  0.21767  0.01449  1.0000
  C   C157      1.0  0.09712  0.22563  0.99423  1.0000
  H   H254      1.0  0.03350  0.23047  0.05197  1.0000
  H   H255      1.0  0.14324  0.19352  0.29819  1.0000
  H   H256      1.0  0.13762  0.20130  0.31583  1.0000
  H   H257      1.0  0.14060  0.18050  0.31728  1.0000
  C   C158      1.0  0.16554  0.14749  0.03664  1.0000
  S   S39       1.0  0.10006  0.22700  0.08656  1.0000
  H   H258      1.0  0.02354  0.14150  0.41571  1.0000
  C   C159      1.0  0.04568  0.21300  0.08596  1.0000
  H   H259      1.0  0.00571  0.18280  0.39878  1.0000
  H   H260      1.0  0.01239  0.08662  0.23432  1.0000
  H   H261      1.0  0.21606  0.19725  0.98367  1.0000
  C   C160      1.0  0.04908  0.19782  0.09877  1.0000
  H   H262      1.0  0.16540  0.07078  0.38854  1.0000
  H   H263      1.0  0.00527  0.09270  0.21642  1.0000
  H   H264      1.0  0.17459  0.01046  0.10183  1.0000
  H   H265      1.0  0.23916  0.11863  0.28686  1.0000
  C   C161      1.0  0.06677  0.19118  0.09696  1.0000
  N   N10       1.0  0.02855  0.22040  0.08579  1.0000
  H   H266      1.0  0.16991  0.22770  0.06105  1.0000
  H   H267      1.0  0.07736  0.21741  0.35556  1.0000
  H   H268      1.0  0.02204  0.14676  0.36061  1.0000
  H   H269      1.0  0.22240  0.20953  0.18938  1.0000
  H   H270      1.0  0.05210  0.20990  0.07446  1.0000
  C   C162      1.0  0.22653  0.01760  0.09226  1.0000
  H   H271      1.0  0.02305  0.19811  0.08775  1.0000
  H   H272      1.0  0.21561  0.05219  0.42260  1.0000
  H   H273      1.0  0.19029  0.06318  0.47263  1.0000
  H   H274      1.0  0.10706  0.18649  0.00244  1.0000
  H   H275      1.0  0.03025  0.22666  0.23645  1.0000
  H   H276      1.0  0.04374  0.18855  0.09795  1.0000
  H   H277      1.0  0.04452  0.20019  0.11077  1.0000
  H   H278      1.0  0.13710  0.20664  0.02575  1.0000
  H   H279      1.0  0.03015  0.08445  0.32568  1.0000
  H   H280      1.0  0.99701  0.21480  0.08967  1.0000
  H   H281      1.0  0.14852  0.18191  0.11166  1.0000
  S   S40       1.0  0.99399  0.12196  0.26173  1.0000
  H   H282      1.0  0.16550  0.16794  0.01796  1.0000
  H   H283      1.0  0.14782  0.19828  0.11955  1.0000
  H   H284      1.0  0.18127  0.99728  0.12804  1.0000
  H   H285      1.0  0.15453  0.21759  0.06379  1.0000
  H   H286      1.0  0.21689  0.00301  0.07234  1.0000
  C   C163      1.0  0.20665  0.19576  0.18939  1.0000
  H   H287      1.0  0.07196  0.18792  0.08536  1.0000
  H   H288      1.0  0.07273  0.19992  0.09799  1.0000
  H   H289      1.0  0.06903  0.18049  0.10631  1.0000
  H   H290      1.0  0.22194  0.04448  0.33918  1.0000
  H   H291      1.0  0.09197  0.17023  0.28555  1.0000
  C   C164      1.0  0.05019  0.23069  0.27631  1.0000
  C   C165      1.0  0.21685  0.05215  0.23969  1.0000
  H   H292      1.0  0.15690  0.14045  0.35964  1.0000
  H   H293      1.0  0.10549  0.19090  0.28517  1.0000
  H   H294      1.0  0.16316  0.12649  0.39411  1.0000
  H   H295      1.0  0.21331  0.00606  0.22045  1.0000
  C   C166      1.0  0.07845  0.23167  0.01777  1.0000
  C   C167      1.0  0.01988  0.15210  0.40676  1.0000
  H   H296      1.0  0.08493  0.11531  0.32372  1.0000
  C   C168      1.0  0.18512  0.02588  0.23319  1.0000
  H   H297      1.0  0.22859  0.18940  0.00704  1.0000
  C   C169      1.0  0.14155  0.19151  0.00917  1.0000
  C   C170      1.0  0.21501  0.19778  0.14991  1.0000
  C   C171      1.0  0.08756  0.20080  0.30414  1.0000
  H   H298      1.0  0.07450  0.20451  0.30625  1.0000
  H   H299      1.0  0.11878  0.21032  0.28832  1.0000
  H   H300      1.0  0.21006  0.08813  0.41150  1.0000
  C   C172      1.0  0.21012  0.11682  0.26660  1.0000
  H   H301      1.0  0.09338  0.09139  0.31492  1.0000
  H   H302      1.0  0.08281  0.09026  0.29681  1.0000
  C   C173      1.0  0.11890  0.18131  0.99615  1.0000
  H   H303      1.0  0.20941  0.09422  0.24258  1.0000
  H   H304      1.0  0.14068  0.13982  0.38582  1.0000
  C   C174      1.0  0.08895  0.17581  0.29577  1.0000
  H   H305      1.0  0.20026  0.15981  0.10456  1.0000
  C   C175      1.0  0.16608  0.10268  0.38084  1.0000
  H   H306      1.0  0.18520  0.21408  0.19143  1.0000
  H   H307      1.0  0.19324  0.01818  0.24075  1.0000
  H   H308      1.0  0.11356  0.00419  0.20124  1.0000
  H   H309      1.0  0.12705  0.14949  0.36287  1.0000
  H   H310      1.0  0.18685  0.23039  0.10783  1.0000
  H   H311      1.0  0.21614  0.16855  0.10380  1.0000
  H   H312      1.0  0.07658  0.11034  0.28662  1.0000
  H   H313      1.0  0.11035  0.06924  0.33657  1.0000
  H   H314      1.0  0.18372  0.08580  0.36832  1.0000
  C   C176      1.0  0.12537  0.13872  0.37207  1.0000
  Fe  Fe22      1.0  0.21077  0.03134  0.13735  1.0000
  H   H315      1.0  0.20170  0.18407  0.08367  1.0000
  C   C177      1.0  0.00370  0.18773  0.22171  1.0000
  H   H316      1.0  0.09797  0.23236  0.12060  1.0000
  C   C178      1.0  0.05207  0.22636  0.12638  1.0000
  C   C179      1.0  0.21996  0.05103  0.37776  1.0000
  H   H317      1.0  0.14955  0.07524  0.20842  1.0000
  H   H318      1.0  0.17333  0.05274  0.21454  1.0000
  H   H319      1.0  0.19609  0.05440  0.22241  1.0000
  N   N11       1.0  0.13224  0.17929  0.01877  1.0000
  C   C180      1.0  0.19401  0.02608  0.21584  1.0000
  S   S41       1.0  0.99464  0.17010  0.35880  1.0000
  C   C181      1.0  0.05880  0.23228  0.11065  1.0000
  C   C182      1.0  0.16482  0.02467  0.28304  1.0000
  H   H320      1.0  0.12264  0.19561  0.10412  1.0000
  H   H321      1.0  0.18670  0.02140  0.26621  1.0000
  C   C183      1.0  0.99273  0.16566  0.33036  1.0000
  C   C184      1.0  0.18296  0.11730  0.35805  1.0000
  C   C185      1.0  0.21215  0.07604  0.40969  1.0000
  H   H322      1.0  0.22790  0.05139  0.46852  1.0000
  C   C186      1.0  0.12592  0.17283  0.08693  1.0000
  C   C187      1.0  0.17401  0.02413  0.26623  1.0000
  H   H323      1.0  0.20402  0.11981  0.27779  1.0000
  H   H324      1.0  0.13881  0.18352  0.06456  1.0000
  C   C188      1.0  0.10472  0.17684  0.03643  1.0000
  H   H325      1.0  0.15194  0.18638  0.00075  1.0000
  C   C189      1.0  0.06936  0.22703  0.99684  1.0000
  H   H326      1.0  0.17562  0.17733  0.09596  1.0000
  H   H327      1.0  0.17346  0.18627  0.11162  1.0000
  H   H328      1.0  0.01592  0.22307  0.22856  1.0000
  H   H329      1.0  0.05128  0.22517  0.26679  1.0000
  H   H330      1.0  0.20001  0.04021  0.25665  1.0000
  H   H331      1.0  0.17140  0.01427  0.26305  1.0000
  H   H332      1.0  0.18543  0.02960  0.20813  1.0000
  H   H333      1.0  0.22366  0.01743  0.10503  1.0000
  C   C190      1.0  0.15193  0.20316  0.09352  1.0000
  C   C191      1.0  0.12658  0.19878  0.11316  1.0000
  H   H334      1.0  0.18639  0.21296  0.04034  1.0000
  H   H335      1.0  0.20214  0.03424  0.21159  1.0000
  H   H336      1.0  0.18533  0.06330  0.39111  1.0000
  C   C192      1.0  0.14452  0.19487  0.11028  1.0000
  C   C193      1.0  0.21343  0.20217  0.13276  1.0000
  H   H337      1.0  0.23514  0.15657  0.19692  1.0000
  H   H338      1.0  0.03821  0.18074  0.27175  1.0000
  N   N12       1.0  0.16945  0.20261  0.08971  1.0000
  C   C194      1.0  0.01779  0.23081  0.23526  1.0000
  H   H339      1.0  0.16837  0.01326  0.29106  1.0000
  S   S42       1.0  0.12420  0.21857  0.05419  1.0000
  H   H340      1.0  0.00431  0.16822  0.32557  1.0000
  C   C195      1.0  0.17249  0.21698  0.09262  1.0000
  Fe  Fe23      1.0  0.10527  0.20864  0.07257  1.0000
  H   H341      1.0  0.20928  0.01017  0.20116  1.0000
  H   H342      1.0  0.22234  0.05394  0.22694  1.0000
  C   C196      1.0  0.19187  0.20434  0.19918  1.0000
  H   H343      1.0  0.18078  0.13004  0.40953  1.0000
  H   H344      1.0  0.10956  0.16674  0.04519  1.0000
  H   H345      1.0  0.20307  0.12253  0.32846  1.0000
  S   S43       1.0  0.00922  0.16003  0.24309  1.0000
  C   C197      1.0  0.08606  0.22358  0.31451  1.0000
  H   H346      1.0  0.00845  0.20554  0.05757  1.0000
  H   H347      1.0  0.00975  0.13599  0.34491  1.0000
  C   C198      1.0  0.21178  0.13849  0.00667  1.0000
  H   H348      1.0  0.16708  0.02877  0.10826  1.0000
  H   H349      1.0  0.22247  0.07423  0.39984  1.0000
  H   H350      1.0  0.21859  0.05624  0.19585  1.0000
  H   H351      1.0  0.09539  0.99487  0.25228  1.0000
  C   C199      1.0  0.01661  0.20588  0.41241  1.0000
  N   N13       1.0  0.23460  0.05260  0.44333  1.0000
  C   C200      1.0  0.18736  0.13292  0.34774  1.0000
  H   H352      1.0  0.10908  0.22378  0.98741  1.0000
  S   S44       1.0  0.99935  0.22020  0.43672  1.0000
  C   C201      1.0  0.20379  0.00981  0.21380  1.0000
  C   C202      1.0  0.18002  0.08819  0.38032  1.0000
  H   H353      1.0  0.20376  0.04616  0.45320  1.0000
  H   H354      1.0  0.20176  0.12364  0.40326  1.0000
  H   H355      1.0  0.14120  0.17248  0.04011  1.0000
  C   C203      1.0  0.23468  0.03885  0.33730  1.0000
  C   C204      1.0  0.14095  0.16726  0.03043  1.0000
  H   H356      1.0  0.04320  0.22306  0.31626  1.0000
  C   C205      1.0  0.19609  0.18523  0.09589  1.0000
  H   H357      1.0  0.20097  0.00906  0.10689  1.0000
  C   C206      1.0  0.19563  0.02153  0.07585  1.0000
  H   H358      1.0  0.19504  0.20916  0.20763  1.0000
  C   C207      1.0  0.23469  0.07456  0.35747  1.0000
  C   C208      1.0  0.19299  0.02072  0.10429  1.0000
  H   H359      1.0  0.23163  0.00603  0.45454  1.0000
  H   H360      1.0  0.17842  0.13940  0.34061  1.0000
  H   H361      1.0  0.18823  0.14060  0.35493  1.0000
  H   H362      1.0  0.20593  0.14124  0.32888  1.0000
  H   H363      1.0  0.19863  0.11863  0.37915  1.0000
  H   H364      1.0  0.21524  0.04167  0.08764  1.0000
  C   C209      1.0  0.18750  0.04570  0.08580  1.0000
  H   H365      1.0  0.18789  0.10747  0.39659  1.0000
  H   H366      1.0  0.18288  0.07848  0.07969  1.0000
  C   C210      1.0  0.22104  0.07248  0.14549  1.0000
  N   N14       1.0  0.19790  0.02935  0.08750  1.0000
  C   C211      1.0  0.18127  0.07379  0.07027  1.0000
  H   H367      1.0  0.16870  0.07343  0.07225  1.0000
  H   H368      1.0  0.20412  0.05872  0.06744  1.0000
  H   H369      1.0  0.18287  0.02261  0.07680  1.0000
  H   H370      1.0  0.19626  0.00103  0.21794  1.0000
  C   C212      1.0  0.19504  0.15081  0.98262  1.0000
  H   H371      1.0  0.14901  0.19754  0.08552  1.0000
  H   H372      1.0  0.13459  0.15760  0.03635  1.0000
  C   C213      1.0  0.19065  0.12921  0.39910  1.0000
  H   H373      1.0  0.22477  0.19787  0.12497  1.0000
  H   H374      1.0  0.00758  0.11857  0.35917  1.0000
  H   H375      1.0  0.18018  0.11144  0.35018  1.0000
  H   H376      1.0  0.22242  0.09232  0.30745  1.0000
  H   H377      1.0  0.22870  0.07310  0.26231  1.0000
  C   C214      1.0  0.16825  0.21850  0.10995  1.0000
  C   C215      1.0  0.18825  0.11935  0.38908  1.0000
  H   H378      1.0  0.23327  0.07258  0.12181  1.0000
  C   C216      1.0  0.21807  0.20687  0.18023  1.0000
  H   H379      1.0  0.17379  0.20783  0.11764  1.0000
  C   C217      1.0  0.22734  0.20553  0.15196  1.0000
  C   C218      1.0  0.09150  0.22560  0.28620  1.0000
  H   H380      1.0  0.99838  0.10504  0.23055  1.0000
  H   H381      1.0  0.11108  0.19775  0.01992  1.0000
  Fe  Fe24      1.0  0.10462  0.23199  0.04169  1.0000
  H   H382      1.0  0.22812  0.06715  0.31685  1.0000
  C   C219      1.0  0.99747  0.17509  0.40048  1.0000
  C   C220      1.0  0.23872  0.18182  0.00057  1.0000
  H   H383      1.0  0.24004  0.04194  0.34538  1.0000
  C   C221      1.0  0.23787  0.03637  0.44021  1.0000
  S   S45       1.0  0.08602  0.22078  0.05952  1.0000
  H   H384      1.0  0.18415  0.19602  0.20594  1.0000
  C   C222      1.0  0.02569  0.20293  0.25989  1.0000
  C   C223      1.0  0.01322  0.23343  0.38921  1.0000
  H   H385      1.0  0.22782  0.09657  0.28653  1.0000
  H   H386      1.0  0.16067  0.00604  0.12929  1.0000
  S   S46       1.0  0.05353  0.22615  0.98957  1.0000
  H   H387      1.0  0.22770  0.07670  0.43097  1.0000
  C   C224      1.0  0.04570  0.22944  0.30418  1.0000
  H   H388      1.0  0.01632  0.22268  0.28249  1.0000
  C   C225      1.0  0.23431  0.05240  0.37986  1.0000
  S   S47       1.0  0.23479  0.07705  0.20001  1.0000
  H   H389      1.0  0.16557  0.22785  0.08627  1.0000
  H   H390      1.0  0.99553  0.15135  0.41498  1.0000
  H   H391      1.0  0.00743  0.10066  0.32877  1.0000
  C   C226      1.0  0.01592  0.12357  0.34860  1.0000
  H   H392      1.0  0.00475  0.09823  0.34942  1.0000
  H   H393      1.0  0.09812  0.21992  0.27617  1.0000
  C   C227      1.0  0.07598  0.22379  0.34348  1.0000
  C   C228      1.0  0.21485  0.06387  0.42472  1.0000
  H   H394      1.0  0.99846  0.20911  0.20444  1.0000
  H   H395      1.0  0.00269  0.22766  0.07083  1.0000
  H   H396      1.0  0.21874  0.12076  0.29679  1.0000
  H   H397      1.0  0.00292  0.19260  0.07639  1.0000
  H   H398      1.0  0.02766  0.22378  0.10882  1.0000
  H   H399      1.0  0.99914  0.20439  0.38192  1.0000
  H   H400      1.0  0.23914  0.18291  0.19595  1.0000
  C   C229      1.0  0.99472  0.20257  0.21624  1.0000
  H   H401      1.0  0.23959  0.07587  0.45563  1.0000
  H   H402      1.0  0.00322  0.23173  0.12977  1.0000
  H   H403      1.0  0.23133  0.23240  0.16853  1.0000
  C   C230      1.0  0.23077  0.11358  0.29727  1.0000
  H   H404      1.0  0.23437  0.14022  0.11446  1.0000
  C   C231      1.0  0.23606  0.06773  0.13356  1.0000
  C   C232      1.0  0.24098  0.06226  0.31563  1.0000
  H   H405      1.0  0.23364  0.11421  0.30820  1.0000
  H   H406      1.0  0.23745  0.11914  0.12062  1.0000
  H   H407      1.0  0.22625  0.04608  0.24634  1.0000
  S   S48       1.0  0.23412  0.99319  0.16029  1.0000
  C   C233      1.0  0.23774  0.18337  0.17181  1.0000
  H   H408      1.0  0.23901  0.05469  0.13586  1.0000
  C   C234      1.0  0.23552  0.04136  0.18128  1.0000
  H   H409      1.0  0.23974  0.06365  0.41865  1.0000
  H   H410      1.0  0.05021  0.23273  0.05767  1.0000
  H   H411      1.0  0.24000  0.23065  0.14853  1.0000
  S   S49       1.0  0.10932  0.23183  0.01585  1.0000
  S   S50       1.0  0.23668  0.02268  0.12978  1.0000
  H   H412      1.0  0.19334  0.19757  0.98002  1.0000
  H   H413      1.0  0.17030  0.23347  0.12399  1.0000
  C   C235      1.0  0.03714  0.23388  0.13350  1.0000
  H   H414      1.0  0.20487  0.98417  0.06747  1.0000
  Fe  Fe25      1.0  0.17485  0.16948  0.93806  1.0000
  S   S51       1.0  0.19910  0.16550  0.94172  1.0000
  C   C236      1.0  0.04568  0.17537  0.77294  1.0000
  Fe  Fe26      1.0  0.18369  0.14366  0.91989  1.0000
  S   S52       1.0  0.20889  0.13717  0.92235  1.0000
  S   S53       1.0  0.17276  0.13580  0.90456  1.0000
  Fe  Fe27      1.0  0.19860  0.14008  0.94735  1.0000
  S   S54       1.0  0.99214  0.13904  0.80713  1.0000
  Fe  Fe28      1.0  0.20713  0.16322  0.91674  1.0000
  H   H415      1.0  0.03393  0.03693  0.80001  1.0000
  S   S55       1.0  0.17351  0.14414  0.94543  1.0000
  S   S56       1.0  0.18290  0.16962  0.91238  1.0000
  Fe  Fe29      1.0  0.19117  0.06277  0.86832  1.0000
  S   S57       1.0  0.21303  0.05118  0.85318  1.0000
  S   S58       1.0  0.19419  0.06729  0.89064  1.0000
  Fe  Fe30      1.0  0.17079  0.06451  0.84599  1.0000
  S   S59       1.0  0.19118  0.05343  0.82911  1.0000
  S   S60       1.0  0.14687  0.07403  0.83991  1.0000
  Fe  Fe31      1.0  0.19799  0.03661  0.85055  1.0000
  S   S61       1.0  0.20818  0.01121  0.84902  1.0000
  Fe  Fe32      1.0  0.20438  0.06895  0.83307  1.0000
  C   C237      1.0  0.18999  0.17095  0.65663  1.0000
  S   S62       1.0  0.17662  0.04651  0.86748  1.0000
  S   S63       1.0  0.18343  0.08155  0.84827  1.0000
  Fe  Fe33      1.0  0.08901  0.06738  0.77372  1.0000
  S   S64       1.0  0.08898  0.05503  0.75550  1.0000
  S   S65       1.0  0.06991  0.08801  0.77978  1.0000
  Fe  Fe34      1.0  0.11964  0.04583  0.78099  1.0000
  S   S66       1.0  0.12203  0.03191  0.76318  1.0000
  S   S67       1.0  0.13896  0.03675  0.79423  1.0000
  Fe  Fe35      1.0  0.11458  0.05547  0.74791  1.0000
  S   S68       1.0  0.12600  0.06484  0.72305  1.0000
  Fe  Fe36      1.0  0.09629  0.03303  0.77280  1.0000
  S   S69       1.0  0.08453  0.01261  0.78068  1.0000
  S   S70       1.0  0.11419  0.06936  0.76499  1.0000
  S   S71       1.0  0.09435  0.04526  0.79178  1.0000
  Fe  Fe37      1.0  0.19287  0.10129  0.71810  1.0000
  S   S72       1.0  0.18519  0.11653  0.73559  1.0000
  S   S73       1.0  0.19077  0.07615  0.72581  1.0000
  Fe  Fe38      1.0  0.20561  0.12635  0.69200  1.0000
  H   H416      1.0  0.20133  0.15806  0.87067  1.0000
  Fe  Fe39      1.0  0.20837  0.12362  0.72513  1.0000
  S   S74       1.0  0.99918  0.18804  0.85200  1.0000
  C   C238      1.0  0.99830  0.15602  0.80613  1.0000
  S   S75       1.0  0.21677  0.10665  0.70914  1.0000
  S   S76       1.0  0.18225  0.11953  0.69946  1.0000
  H   H417      1.0  0.10834  0.17887  0.97843  1.0000
  S   S77       1.0  0.01088  0.10193  0.74989  1.0000
  C   C239      1.0  0.00573  0.21032  0.67866  1.0000
  S   S78       1.0  0.21693  0.13183  0.66634  1.0000
  S   S79       1.0  0.05247  0.17077  0.69925  1.0000
  Fe  Fe40      1.0  0.17610  0.13555  0.71625  1.0000
  H   H418      1.0  0.22060  0.05756  0.74249  1.0000
  H   H419      1.0  0.20842  0.17829  0.96356  1.0000
  N   N15       1.0  0.15589  0.15229  0.65624  1.0000
  H   H420      1.0  0.00513  0.07063  0.75164  1.0000
  H   H421      1.0  0.15254  0.00049  0.74826  1.0000
  C   C240      1.0  0.04581  0.18102  0.65272  1.0000
  H   H422      1.0  0.10121  0.09591  0.71354  1.0000
  H   H423      1.0  0.08120  0.22012  0.86496  1.0000
  C   C241      1.0  0.00764  0.17078  0.81890  1.0000
  H   H424      1.0  0.09131  0.10319  0.69733  1.0000
  H   H425      1.0  0.10568  0.14727  0.67607  1.0000
  H   H426      1.0  0.08942  0.22857  0.69793  1.0000
  C   C242      1.0  0.03286  0.17314  0.70977  1.0000
  C   C243      1.0  0.02566  0.16027  0.71483  1.0000
  C   C244      1.0  0.00992  0.16197  0.72300  1.0000
  C   C245      1.0  0.22456  0.06128  0.69248  1.0000
  H   H427      1.0  0.03220  0.14896  0.71238  1.0000
  H   H428      1.0  0.01173  0.17136  0.82877  1.0000
  H   H429      1.0  0.08407  0.07693  0.72603  1.0000
  H   H430      1.0  0.13171  0.15342  0.65573  1.0000
  H   H431      1.0  0.11183  0.15791  0.93186  1.0000
  H   H432      1.0  0.14828  0.19220  0.67658  1.0000
  H   H433      1.0  0.18712  0.04345  0.47991  1.0000
  C   C246      1.0  0.23011  0.11874  0.64085  1.0000
  H   H434      1.0  0.07340  0.08455  0.71033  1.0000
  H   H435      1.0  0.17843  0.18822  0.96686  1.0000
  C   C247      1.0  0.09138  0.99955  0.76801  1.0000
  H   H436      1.0  0.99540  0.21885  0.91933  1.0000
  H   H437      1.0  0.00441  0.15199  0.72677  1.0000
  H   H438      1.0  0.04252  0.99350  0.79812  1.0000
  C   C248      1.0  0.10470  0.99357  0.74252  1.0000
  C   C249      1.0  0.09965  0.00412  0.75261  1.0000
  H   H439      1.0  0.13219  0.98828  0.82277  1.0000
  Fe  Fe41      1.0  0.06380  0.21763  0.65693  1.0000
  H   H440      1.0  0.11089  0.99716  0.73053  1.0000
  H   H441      1.0  0.10195  0.01582  0.74840  1.0000
  C   C250      1.0  0.05365  0.09180  0.77126  1.0000
  C   C251      1.0  0.03908  0.09985  0.77837  1.0000
  C   C252      1.0  0.02590  0.10292  0.77188  1.0000
  C   C253      1.0  0.02725  0.09790  0.75820  1.0000
  C   C254      1.0  0.04181  0.08978  0.75107  1.0000
  C   C255      1.0  0.05500  0.08686  0.75754  1.0000
  H   H442      1.0  0.03789  0.10346  0.78907  1.0000
  H   H443      1.0  0.01465  0.10900  0.77760  1.0000
  H   H444      1.0  0.04294  0.08601  0.74041  1.0000
  H   H445      1.0  0.06624  0.08113  0.75168  1.0000
  C   C256      1.0  0.14405  0.06797  0.72367  1.0000
  C   C257      1.0  0.15179  0.05887  0.73565  1.0000
  C   C258      1.0  0.16616  0.06143  0.73624  1.0000
  C   C259      1.0  0.17255  0.07345  0.72517  1.0000
  C   C260      1.0  0.16470  0.08273  0.71335  1.0000
  C   C261      1.0  0.15059  0.07981  0.71241  1.0000
  H   H446      1.0  0.14681  0.04971  0.74439  1.0000
  H   H447      1.0  0.17220  0.05419  0.74540  1.0000
  H   H448      1.0  0.16975  0.09185  0.70469  1.0000
  H   H449      1.0  0.14462  0.08683  0.70315  1.0000
  C   C262      1.0  0.19544  0.00341  0.84331  1.0000
  H   H450      1.0  0.14243  0.22206  0.70618  1.0000
  C   C263      1.0  0.23038  0.10616  0.89737  1.0000
  H   H451      1.0  0.05815  0.05707  0.78219  1.0000
  H   H452      1.0  0.12566  0.20493  0.89390  1.0000
  H   H453      1.0  0.03728  0.06549  0.78622  1.0000
  H   H454      1.0  0.07191  0.14586  0.92057  1.0000
  H   H455      1.0  0.05011  0.20912  0.87326  1.0000
  H   H456      1.0  0.05220  0.13835  0.84667  1.0000
  C   C264      1.0  0.12657  0.20654  0.72154  1.0000
  H   H457      1.0  0.02323  0.10002  0.82974  1.0000
  C   C265      1.0  0.22332  0.06536  0.74844  1.0000
  H   H458      1.0  0.13992  0.22027  0.72711  1.0000
  C   C266      1.0  0.23137  0.08960  0.86193  1.0000
  C   C267      1.0  0.14368  0.06347  0.82791  1.0000
  C   C268      1.0  0.15283  0.04844  0.82713  1.0000
  C   C269      1.0  0.15092  0.04028  0.81699  1.0000
  C   C270      1.0  0.13993  0.04709  0.80751  1.0000
  C   C271      1.0  0.13043  0.06200  0.80848  1.0000
  C   C272      1.0  0.13231  0.07019  0.81873  1.0000
  H   H459      1.0  0.16141  0.04311  0.83435  1.0000
  H   H460      1.0  0.15805  0.02864  0.81640  1.0000
  H   H461      1.0  0.12187  0.06728  0.80120  1.0000
  H   H462      1.0  0.12517  0.08182  0.81936  1.0000
  H   H463      1.0  0.04044  0.05314  0.74126  1.0000
  C   C273      1.0  0.04004  0.23184  0.62947  1.0000
  H   H464      1.0  0.18124  0.20412  0.94988  1.0000
  H   H465      1.0  0.23374  0.17410  0.72892  1.0000
  H   H466      1.0  0.99307  0.06577  0.77111  1.0000
  N   N16       1.0  0.22559  0.19203  0.96047  1.0000
  H   H467      1.0  0.01967  0.00919  0.78654  1.0000
  C   C274      1.0  0.17893  0.11673  0.90085  1.0000
  C   C275      1.0  0.18650  0.10416  0.91100  1.0000
  C   C276      1.0  0.19102  0.08903  0.90778  1.0000
  C   C277      1.0  0.18814  0.08642  0.89436  1.0000
  C   C278      1.0  0.18066  0.09904  0.88418  1.0000
  C   C279      1.0  0.17598  0.11412  0.88748  1.0000
  H   H468      1.0  0.18871  0.10606  0.92140  1.0000
  H   H469      1.0  0.19677  0.07930  0.91573  1.0000
  H   H470      1.0  0.17839  0.09719  0.87382  1.0000
  H   H471      1.0  0.17029  0.12382  0.87948  1.0000
  C   C280      1.0  0.23784  0.09440  0.92378  1.0000
  H   H472      1.0  0.15080  0.17727  0.92368  1.0000
  H   H473      1.0  0.09626  0.10623  0.77512  1.0000
  H   H474      1.0  0.06888  0.16641  0.91130  1.0000
  H   H475      1.0  0.22196  0.08628  0.88690  1.0000
  C   C281      1.0  0.19513  0.20137  0.96704  1.0000
  H   H476      1.0  0.18127  0.20811  0.89546  1.0000
  H   H477      1.0  0.22636  0.09088  0.92906  1.0000
  C   C282      1.0  0.01681  0.19393  0.65934  1.0000
  C   C283      1.0  0.06735  0.13530  0.72707  1.0000
  C   C284      1.0  0.00300  0.15726  0.81909  1.0000
  C   C285      1.0  0.20988  0.19065  0.95886  1.0000
  H   H478      1.0  0.05411  0.03039  0.79165  1.0000
  C   C286      1.0  0.20412  0.14638  0.86766  1.0000
  H   H479      1.0  0.04349  0.17408  0.64558  1.0000
  H   H480      1.0  0.15662  0.00032  0.72754  1.0000
  H   H481      1.0  0.03692  0.14653  0.74372  1.0000
  H   H482      1.0  0.23283  0.12377  0.76811  1.0000
  C   C287      1.0  0.99167  0.21902  0.68965  1.0000
  H   H483      1.0  0.04719  0.18733  0.89816  1.0000
  H   H484      1.0  0.02001  0.20442  0.65035  1.0000
  H   H485      1.0  0.01481  0.18643  0.65261  1.0000
  H   H486      1.0  0.20999  0.13471  0.88986  1.0000
  H   H487      1.0  0.13881  0.13088  0.94248  1.0000
  H   H488      1.0  0.16631  0.20675  0.71594  1.0000
  H   H489      1.0  0.14999  0.99852  0.79861  1.0000
  H   H490      1.0  0.05685  0.22314  0.72357  1.0000
  H   H491      1.0  0.20189  0.16604  0.65925  1.0000
  H   H492      1.0  0.15671  0.00926  0.84324  1.0000
  H   H493      1.0  0.07974  0.15204  0.89969  1.0000
  H   H494      1.0  0.23233  0.04235  0.71169  1.0000
  S   S80       1.0  0.05523  0.20473  0.95568  1.0000
  H   H495      1.0  0.16989  0.20827  0.96860  1.0000
  C   C288      1.0  0.20628  0.21676  0.91436  1.0000
  S   S81       1.0  0.04468  0.21634  0.67874  1.0000
  H   H496      1.0  0.05024  0.01455  0.77604  1.0000
  H   H497      1.0  0.05131  0.14900  0.75270  1.0000
  C   C289      1.0  0.99778  0.18545  0.68420  1.0000
  H   H498      1.0  0.00181  0.20074  0.72346  1.0000
  H   H499      1.0  0.08592  0.15915  0.67837  1.0000
  C   C290      1.0  0.01956  0.21006  0.92139  1.0000
  H   H500      1.0  0.10814  0.18576  0.73880  1.0000
  H   H501      1.0  0.01460  0.20414  0.68589  1.0000
  H   H502      1.0  0.14400  0.16701  0.62816  1.0000
  H   H503      1.0  0.08457  0.15661  0.70653  1.0000
  C   C291      1.0  0.14196  0.12389  0.69623  1.0000
  H   H504      1.0  0.12929  0.19799  0.71387  1.0000
  H   H505      1.0  0.08285  0.17896  0.75293  1.0000
  H   H506      1.0  0.12686  0.18020  0.91443  1.0000
  H   H507      1.0  0.16226  0.17107  0.69524  1.0000
  N   N17       1.0  0.16276  0.22787  0.88861  1.0000
  H   H508      1.0  0.08924  0.15982  0.92622  1.0000
  C   C292      1.0  0.12139  0.18047  0.63716  1.0000
  H   H509      1.0  0.19299  0.14232  0.87027  1.0000
  N   N18       1.0  0.18369  0.07029  0.77975  1.0000
  C   C293      1.0  0.18713  0.05525  0.79174  1.0000
  C   C294      1.0  0.18510  0.08368  0.78578  1.0000
  C   C295      1.0  0.16736  0.07250  0.77728  1.0000
  C   C296      1.0  0.19523  0.06972  0.76424  1.0000
  C   C297      1.0  0.21288  0.06485  0.76493  1.0000
  C   C298      1.0  0.18762  0.03985  0.78712  1.0000
  C   C299      1.0  0.16138  0.08803  0.76603  1.0000
  C   C300      1.0  0.17211  0.08811  0.80009  1.0000
  C   C301      1.0  0.17564  0.10071  0.80604  1.0000
  H   H510      1.0  0.21892  0.09381  0.86071  1.0000
  C   C302      1.0  0.19338  0.02548  0.79932  1.0000
  C   C303      1.0  0.14452  0.08928  0.76504  1.0000
  H   H511      1.0  0.17797  0.05556  0.80274  1.0000
  H   H512      1.0  0.19836  0.05409  0.79515  1.0000
  H   H513      1.0  0.19654  0.08088  0.78940  1.0000
  H   H514      1.0  0.18540  0.09451  0.77629  1.0000
  H   H515      1.0  0.15871  0.07155  0.78875  1.0000
  H   H516      1.0  0.16670  0.06284  0.77230  1.0000
  H   H517      1.0  0.19287  0.06173  0.75821  1.0000
  H   H518      1.0  0.19363  0.08147  0.75612  1.0000
  H   H519      1.0  0.21583  0.05271  0.77189  1.0000
  H   H520      1.0  0.21598  0.07291  0.77027  1.0000
  H   H521      1.0  0.17566  0.03937  0.78658  1.0000
  H   H522      1.0  0.19558  0.03876  0.77557  1.0000
  H   H523      1.0  0.16870  0.08848  0.75396  1.0000
  H   H524      1.0  0.16161  0.09848  0.76997  1.0000
  H   H525      1.0  0.16042  0.09276  0.79699  1.0000
  H   H526      1.0  0.17123  0.07783  0.80999  1.0000
  H   H527      1.0  0.17615  0.11158  0.79669  1.0000
  C   C304      1.0  0.22499  0.09684  0.81623  1.0000
  H   H528      1.0  0.18701  0.09640  0.80987  1.0000
  S   S82       1.0  0.00061  0.14140  0.76197  1.0000
  H   H529      1.0  0.10145  0.20150  0.71358  1.0000
  H   H530      1.0  0.18613  0.02618  0.81129  1.0000
  H   H531      1.0  0.19247  0.01462  0.79654  1.0000
  H   H532      1.0  0.20584  0.02462  0.79938  1.0000
  H   H533      1.0  0.14047  0.10052  0.75702  1.0000
  H   H534      1.0  0.14398  0.07946  0.76026  1.0000
  H   H535      1.0  0.13653  0.08893  0.77683  1.0000
  H   H536      1.0  0.09956  0.09892  0.79487  1.0000
  C   C305      1.0  0.17943  0.01039  0.84543  1.0000
  H   H537      1.0  0.05243  0.18142  0.77701  1.0000
  H   H538      1.0  0.05218  0.17273  0.76132  1.0000
  C   C306      1.0  0.11211  0.22697  0.70328  1.0000
  H   H539      1.0  0.10902  0.13903  0.94314  1.0000
  H   H540      1.0  0.05697  0.04589  0.81066  1.0000
  C   C307      1.0  0.09472  0.11950  0.72903  1.0000
  H   H541      1.0  0.03509  0.15527  0.78097  1.0000
  H   H542      1.0  0.12001  0.14101  0.96489  1.0000
  C   C308      1.0  0.22827  0.11636  0.65710  1.0000
  C   C309      1.0  0.21894  0.11799  0.87434  1.0000
  C   C310      1.0  0.04664  0.05542  0.79000  1.0000
  H   H543      1.0  0.23463  0.16051  0.69562  1.0000
  H   H544      1.0  0.14316  0.13449  0.64305  1.0000
  H   H545      1.0  0.12087  0.18894  0.62573  1.0000
  H   H546      1.0  0.23670  0.16770  0.96007  1.0000
  H   H547      1.0  0.06711  0.15468  0.78716  1.0000
  H   H548      1.0  0.03487  0.19094  0.67281  1.0000
  H   H549      1.0  0.09872  0.13128  0.92558  1.0000
  H   H550      1.0  0.05614  0.17416  0.65781  1.0000
  H   H551      1.0  0.19674  0.22119  0.92330  1.0000
  H   H552      1.0  0.18803  0.15540  0.97382  1.0000
  H   H553      1.0  0.15527  0.12050  0.65589  1.0000
  H   H554      1.0  0.12363  0.20178  0.96000  1.0000
  H   H555      1.0  0.00376  0.15270  0.69672  1.0000
  H   H556      1.0  0.02985  0.19765  0.70933  1.0000
  H   H557      1.0  0.22065  0.11936  0.86149  1.0000
  Fe  Fe42      1.0  0.99192  0.23315  0.84623  1.0000
  N   N19       1.0  0.03906  0.03913  0.77479  1.0000
  H   H558      1.0  0.06875  0.99104  0.80799  1.0000
  Fe  Fe43      1.0  0.00877  0.20199  0.86271  1.0000
  C   C311      1.0  0.07408  0.21100  0.86958  1.0000
  C   C312      1.0  0.23036  0.05329  0.65979  1.0000
  C   C313      1.0  0.15538  0.12936  0.64464  1.0000
  H   H559      1.0  0.15133  0.11363  0.69339  1.0000
  H   H560      1.0  0.23226  0.03528  0.64715  1.0000
  H   H561      1.0  0.01586  0.12089  0.82744  1.0000
  H   H562      1.0  0.17492  0.02073  0.85039  1.0000
  C   C314      1.0  0.07862  0.98851  0.82809  1.0000
  C   C315      1.0  0.10184  0.00729  0.82837  1.0000
  C   C316      1.0  0.11302  0.01374  0.83399  1.0000
  C   C317      1.0  0.12616  0.99659  0.80005  1.0000
  H   H563      1.0  0.06273  0.15372  0.83566  1.0000
  H   H564      1.0  0.19619  0.21382  0.96346  1.0000
  H   H565      1.0  0.18289  0.17814  0.66534  1.0000
  C   C318      1.0  0.10719  0.03136  0.83336  1.0000
  C   C319      1.0  0.14368  0.99417  0.79232  1.0000
  H   H566      1.0  0.12072  0.16097  0.95431  1.0000
  H   H567      1.0  0.10977  0.22132  0.74300  1.0000
  H   H568      1.0  0.13243  0.20036  0.87472  1.0000
  H   H569      1.0  0.22176  0.21350  0.94259  1.0000
  C   C320      1.0  0.16405  0.12061  0.63145  1.0000
  C   C321      1.0  0.23234  0.09040  0.87851  1.0000
  H   H570      1.0  0.20972  0.12251  0.84049  1.0000
  H   H571      1.0  0.09971  0.01503  0.81693  1.0000
  H   H572      1.0  0.09026  0.00928  0.83669  1.0000
  H   H573      1.0  0.12510  0.01208  0.82656  1.0000
  H   H574      1.0  0.11345  0.00796  0.84638  1.0000
  C   C322      1.0  0.03747  0.22914  0.79155  1.0000
  H   H575      1.0  0.12170  0.00934  0.79962  1.0000
  C   C323      1.0  0.14784  0.99887  0.73884  1.0000
  H   H576      1.0  0.16425  0.12881  0.61977  1.0000
  H   H577      1.0  0.08740  0.22160  0.97677  1.0000
  H   H578      1.0  0.09235  0.19530  0.88129  1.0000
  H   H579      1.0  0.04655  0.16103  0.81564  1.0000
  H   H580      1.0  0.09516  0.03391  0.84075  1.0000
  H   H581      1.0  0.11523  0.03554  0.83779  1.0000
  H   H582      1.0  0.10716  0.03794  0.82106  1.0000
  H   H583      1.0  0.06358  0.03530  0.76299  1.0000
  H   H584      1.0  0.07349  0.19004  0.88845  1.0000
  H   H585      1.0  0.03525  0.02105  0.76562  1.0000
  H   H586      1.0  0.07232  0.19683  0.74238  1.0000
  H   H587      1.0  0.17125  0.21469  0.91838  1.0000
  Fe  Fe44      1.0  0.05904  0.22698  0.68785  1.0000
  S   S83       1.0  0.20807  0.12541  0.96860  1.0000
  C   C324      1.0  0.14181  0.18449  0.68590  1.0000
  H   H588      1.0  0.07683  0.20398  0.86049  1.0000
  C   C325      1.0  0.14973  0.17260  0.69647  1.0000
  N   N20       1.0  0.21329  0.05468  0.68790  1.0000
  H   H589      1.0  0.07310  0.00091  0.82882  1.0000
  C   C326      1.0  0.20035  0.06790  0.68220  1.0000
  C   C327      1.0  0.20593  0.04398  0.70247  1.0000
  C   C328      1.0  0.22160  0.04490  0.67574  1.0000
  H   H590      1.0  0.04640  0.23066  0.60502  1.0000
  C   C329      1.0  0.07739  0.15492  0.91138  1.0000
  C   C330      1.0  0.19118  0.03893  0.70156  1.0000
  C   C331      1.0  0.20475  0.08388  0.67307  1.0000
  C   C332      1.0  0.19130  0.09519  0.66591  1.0000
  H   H591      1.0  0.03610  0.05473  0.81487  1.0000
  H   H592      1.0  0.18482  0.22236  0.85984  1.0000
  C   C333      1.0  0.18582  0.02710  0.71647  1.0000
  H   H593      1.0  0.00712  0.18025  0.69108  1.0000
  C   C334      1.0  0.21662  0.22628  0.90480  1.0000
  H   H594      1.0  0.19465  0.06402  0.67492  1.0000
  H   H595      1.0  0.19094  0.07097  0.69241  1.0000
  H   H596      1.0  0.20237  0.04964  0.71272  1.0000
  H   H597      1.0  0.21469  0.03298  0.70569  1.0000
  H   H598      1.0  0.04554  0.21799  0.78907  1.0000
  H   H599      1.0  0.21309  0.03999  0.67280  1.0000
  C   C335      1.0  0.04342  0.03963  0.78956  1.0000
  H   H600      1.0  0.01109  0.21940  0.66940  1.0000
  C   C336      1.0  0.02633  0.01541  0.79058  1.0000
  H   H601      1.0  0.04099  0.00886  0.80796  1.0000
  H   H602      1.0  0.19357  0.03337  0.69144  1.0000
  H   H603      1.0  0.18113  0.04916  0.70042  1.0000
  H   H604      1.0  0.20719  0.08964  0.68124  1.0000
  H   H605      1.0  0.21529  0.08252  0.66346  1.0000
  H   H606      1.0  0.18883  0.09038  0.65704  1.0000
  H   H607      1.0  0.18049  0.09727  0.67519  1.0000
  H   H608      1.0  0.19470  0.10662  0.65999  1.0000
  H   H609      1.0  0.12722  0.11658  0.93367  1.0000
  H   H610      1.0  0.12606  0.19943  0.73374  1.0000
  C   C337      1.0  0.23997  0.15240  0.68743  1.0000
  C   C338      1.0  0.03433  0.00340  0.80314  1.0000
  H   H611      1.0  0.99513  0.16727  0.78259  1.0000
  H   H612      1.0  0.05249  0.22012  0.88534  1.0000
  H   H613      1.0  0.17488  0.02421  0.71584  1.0000
  H   H614      1.0  0.19501  0.01609  0.71773  1.0000
  H   H615      1.0  0.18325  0.03210  0.72702  1.0000
  C   C339      1.0  0.13219  0.14325  0.94024  1.0000
  C   C340      1.0  0.00759  0.18320  0.80575  1.0000
  N   N21       1.0  0.23277  0.10638  0.88017  1.0000
  H   H616      1.0  0.20942  0.14771  0.85488  1.0000
  C   C341      1.0  0.21556  0.13477  0.87731  1.0000
  H   H617      1.0  0.15928  0.17316  0.66073  1.0000
  H   H618      1.0  0.23055  0.06902  0.68225  1.0000
  N   N22       1.0  0.11095  0.21768  0.72004  1.0000
  C   C342      1.0  0.02342  0.19724  0.89526  1.0000
  C   C343      1.0  0.05039  0.04352  0.74456  1.0000
  S   S84       1.0  0.19878  0.14415  0.70718  1.0000
  H   H619      1.0  0.04399  0.11412  0.82744  1.0000
  C   C344      1.0  0.18596  0.21266  0.87030  1.0000
  H   H620      1.0  0.21855  0.10384  0.90376  1.0000
  H   H621      1.0  0.07831  0.13525  0.69630  1.0000
  H   H622      1.0  0.22179  0.06179  0.65314  1.0000
  C   C345      1.0  0.13631  0.20176  0.88477  1.0000
  C   C346      1.0  0.20343  0.20476  0.86836  1.0000
  H   H623      1.0  0.11761  0.21893  0.69498  1.0000
  C   C347      1.0  0.04753  0.05569  0.80651  1.0000
  C   C348      1.0  0.04572  0.14030  0.75106  1.0000
  H   H624      1.0  0.15615  0.20541  0.89982  1.0000
  H   H625      1.0  0.09582  0.20090  0.74902  1.0000
  H   H626      1.0  0.01945  0.11175  0.81105  1.0000
  C   C349      1.0  0.16914  0.00384  0.84144  1.0000
  C   C350      1.0  0.04232  0.12911  0.80382  1.0000
  C   C351      1.0  0.15619  0.20125  0.71789  1.0000
  H   H627      1.0  0.20931  0.19354  0.94626  1.0000
  H   H628      1.0  0.17978  0.20366  0.87043  1.0000
  H   H629      1.0  0.02607  0.06270  0.76688  1.0000
  C   C352      1.0  0.13855  0.17303  0.63809  1.0000
  C   C353      1.0  0.14566  0.21467  0.87920  1.0000
  C   C354      1.0  0.08490  0.08275  0.71345  1.0000
  H   H630      1.0  0.04196  0.15865  0.84400  1.0000
  H   H631      1.0  0.15550  0.21154  0.86947  1.0000
  H   H632      1.0  0.12809  0.16736  0.97826  1.0000
  H   H633      1.0  0.23565  0.21679  0.84426  1.0000
  H   H634      1.0  0.00370  0.16786  0.66959  1.0000
  H   H635      1.0  0.14019  0.22189  0.90084  1.0000
  H   H636      1.0  0.20520  0.19410  0.87786  1.0000
  H   H637      1.0  0.20783  0.20109  0.85692  1.0000
  H   H638      1.0  0.09935  0.20353  0.95145  1.0000
  C   C355      1.0  0.01296  0.04690  0.76470  1.0000
  Fe  Fe45      1.0  0.06024  0.19350  0.68776  1.0000
  N   N23       1.0  0.12036  0.13942  0.91870  1.0000
  C   C356      1.0  0.10452  0.13986  0.91592  1.0000
  C   C357      1.0  0.13004  0.12273  0.92108  1.0000
  H   H639      1.0  0.13807  0.14775  0.96001  1.0000
  C   C358      1.0  0.12910  0.15020  0.90549  1.0000
  C   C359      1.0  0.13394  0.14607  0.88914  1.0000
  H   H640      1.0  0.99549  0.23330  0.79758  1.0000
  S   S85       1.0  0.05954  0.22463  0.63219  1.0000
  C   C360      1.0  0.12785  0.11157  0.91194  1.0000
  C   C361      1.0  0.14003  0.09606  0.91371  1.0000
  C   C362      1.0  0.14157  0.15861  0.87671  1.0000
  C   C363      1.0  0.22122  0.19540  0.90133  1.0000
  H   H641      1.0  0.11846  0.15804  0.72024  1.0000
  H   H642      1.0  0.15015  0.21844  0.92256  1.0000
  H   H643      1.0  0.10583  0.13600  0.90495  1.0000
  H   H644      1.0  0.14282  0.12280  0.91840  1.0000
  H   H645      1.0  0.99886  0.20760  0.89629  1.0000
  H   H646      1.0  0.01740  0.02462  0.79602  1.0000
  H   H647      1.0  0.09585  0.98476  0.85184  1.0000
  H   H648      1.0  0.12223  0.16248  0.90426  1.0000
  H   H649      1.0  0.14019  0.15051  0.90822  1.0000
  H   H650      1.0  0.12369  0.14512  0.88531  1.0000
  H   H651      1.0  0.14284  0.13486  0.88940  1.0000
  H   H652      1.0  0.03945  0.13462  0.76271  1.0000
  H   H653      1.0  0.09741  0.16523  0.90546  1.0000
  H   H654      1.0  0.14039  0.15044  0.93200  1.0000
  C   C364      1.0  0.21794  0.11682  0.83153  1.0000
  H   H655      1.0  0.11604  0.10870  0.91670  1.0000
  H   H656      1.0  0.12884  0.11677  0.89924  1.0000
  H   H657      1.0  0.05163  0.11978  0.74172  1.0000
  H   H658      1.0  0.15213  0.09817  0.90905  1.0000
  C   C365      1.0  0.07946  0.20005  0.88419  1.0000
  H   H659      1.0  0.13312  0.17015  0.87559  1.0000
  H   H660      1.0  0.15218  0.15973  0.87987  1.0000
  H   H661      1.0  0.14528  0.15520  0.86515  1.0000
  C   C366      1.0  0.02373  0.05084  0.77310  1.0000
  C   C367      1.0  0.16041  0.22409  0.91861  1.0000
  C   C368      1.0  0.23694  0.07286  0.85930  1.0000
  H   H662      1.0  0.08704  0.21544  0.72321  1.0000
  C   C369      1.0  0.02377  0.11154  0.82145  1.0000
  H   H663      1.0  0.11490  0.17137  0.63813  1.0000
  C   C370      1.0  0.22867  0.13671  0.74528  1.0000
  C   C371      1.0  0.00842  0.18949  0.72091  1.0000
  H   H664      1.0  0.15795  0.11133  0.63202  1.0000
  H   H665      1.0  0.09137  0.12605  0.79938  1.0000
  C   C372      1.0  0.09258  0.15597  0.91491  1.0000
  C   C373      1.0  0.23804  0.16107  0.75168  1.0000
  H   H666      1.0  0.10469  0.17838  0.70094  1.0000
  H   H667      1.0  0.06806  0.11719  0.78561  1.0000
  H   H668      1.0  0.15551  0.19262  0.72933  1.0000
  C   C374      1.0  0.06515  0.04660  0.73214  1.0000
  H   H669      1.0  0.04819  0.10341  0.81217  1.0000
  H   H670      1.0  0.03619  0.16364  0.79619  1.0000
  H   H671      1.0  0.06281  0.14447  0.77532  1.0000
  H   H672      1.0  0.06931  0.22678  0.84202  1.0000
  H   H673      1.0  0.06336  0.12613  0.82342  1.0000
  H   H674      1.0  0.05361  0.05536  0.76022  1.0000
  H   H675      1.0  0.23853  0.99957  0.73876  1.0000
  H   H676      1.0  0.22654  0.13914  0.87425  1.0000
  C   C375      1.0  0.09939  0.10923  0.78480  1.0000
  C   C376      1.0  0.07067  0.12063  0.79535  1.0000
  H   H677      1.0  0.17633  0.11492  0.63268  1.0000
  C   C377      1.0  0.03416  0.20107  0.91545  1.0000
  C   C378      1.0  0.05623  0.22959  0.84541  1.0000
  C   C379      1.0  0.04277  0.16033  0.78499  1.0000
  H   H678      1.0  0.00351  0.19131  0.78220  1.0000
  C   C380      1.0  0.21457  0.10429  0.82784  1.0000
  H   H679      1.0  0.01951  0.04295  0.75374  1.0000
  C   C381      1.0  0.06075  0.13728  0.81464  1.0000
  C   C382      1.0  0.23348  0.16314  0.73750  1.0000
  H   H680      1.0  0.06361  0.04669  0.72037  1.0000
  H   H681      1.0  0.06724  0.05819  0.73181  1.0000
  H   H682      1.0  0.07559  0.03727  0.73472  1.0000
  H   H683      1.0  0.01632  0.05256  0.78481  1.0000
  H   H684      1.0  0.16621  0.10356  0.81631  1.0000
  H   H685      1.0  0.03612  0.14559  0.82661  1.0000
  C   C383      1.0  0.15129  0.21714  0.89290  1.0000
  N   N24       1.0  0.05776  0.13408  0.80034  1.0000
  C   C384      1.0  0.11747  0.14517  0.93363  1.0000
  H   H686      1.0  0.23046  0.11786  0.89896  1.0000
  H   H687      1.0  0.07009  0.14605  0.72823  1.0000
  S   S86       1.0  0.01708  0.21911  0.93699  1.0000
  C   C385      1.0  0.09896  0.20781  0.72322  1.0000
  H   H688      1.0  0.18777  0.22568  0.88619  1.0000
  H   H689      1.0  0.99716  0.20628  0.63842  1.0000
  H   H690      1.0  0.05892  0.13971  0.71910  1.0000
  H   H691      1.0  0.13885  0.08986  0.92625  1.0000
  H   H692      1.0  0.14527  0.00091  0.77994  1.0000
  H   H693      1.0  0.09312  0.10876  0.73843  1.0000
  N   N25       1.0  0.00216  0.19906  0.67124  1.0000
  Fe  Fe46      1.0  0.08999  0.20596  0.67582  1.0000
  H   H694      1.0  0.18180  0.15016  0.66974  1.0000
  C   C386      1.0  0.14101  0.21394  0.71787  1.0000
  C   C387      1.0  0.00677  0.21209  0.91463  1.0000
  H   H695      1.0  0.22437  0.12975  0.63435  1.0000
  H   H696      1.0  0.02837  0.22750  0.86447  1.0000
  C   C388      1.0  0.99997  0.06116  0.76050  1.0000
  C   C389      1.0  0.22862  0.15104  0.73439  1.0000
  C   C390      1.0  0.09748  0.19543  0.73897  1.0000
  H   H697      1.0  0.05028  0.06695  0.80630  1.0000
  C   C391      1.0  0.13971  0.18334  0.92954  1.0000
  S   S87       1.0  0.07719  0.22996  0.66535  1.0000
  H   H698      1.0  0.21045  0.21295  0.86860  1.0000
  C   C392      1.0  0.08973  0.09838  0.71020  1.0000
  H   H699      1.0  0.11269  0.13492  0.74926  1.0000
  H   H700      1.0  0.20053  0.19407  0.91996  1.0000
  C   C393      1.0  0.12610  0.18488  0.92436  1.0000
  C   C394      1.0  0.18030  0.20043  0.96280  1.0000
  C   C395      1.0  0.13986  0.13627  0.68123  1.0000
  C   C396      1.0  0.04065  0.11387  0.81666  1.0000
  H   H701      1.0  0.04038  0.12731  0.79288  1.0000
  H   H702      1.0  0.10631  0.11581  0.72124  1.0000
  H   H703      1.0  0.09395  0.07485  0.70639  1.0000
  H   H704      1.0  0.13084  0.11984  0.70201  1.0000
  H   H705      1.0  0.13025  0.14618  0.68462  1.0000
  C   C397      1.0  0.13962  0.16138  0.65410  1.0000
  C   C398      1.0  0.05807  0.12783  0.74328  1.0000
  S   S88       1.0  0.15068  0.14846  0.72276  1.0000
  H   H706      1.0  0.05247  0.21887  0.84537  1.0000
  H   H707      1.0  0.09798  0.12471  0.69712  1.0000
  H   H708      1.0  0.14511  0.12881  0.70460  1.0000
  H   H709      1.0  0.12198  0.12750  0.73169  1.0000
  C   C399      1.0  0.14134  0.16298  0.70883  1.0000
  H   H710      1.0  0.03424  0.18350  0.77151  1.0000
  C   C400      1.0  0.20853  0.20133  0.91257  1.0000
  S   S89       1.0  0.15587  0.18770  0.94867  1.0000
  H   H711      1.0  0.22510  0.15270  0.72349  1.0000
  C   C401      1.0  0.03829  0.02238  0.77613  1.0000
  H   H712      1.0  0.11545  0.18696  0.64672  1.0000
  H   H713      1.0  0.13604  0.13095  0.67369  1.0000
  H   H714      1.0  0.20801  0.11346  0.87964  1.0000
  H   H715      1.0  0.08499  0.18194  0.73200  1.0000
  C   C402      1.0  0.13885  0.18959  0.94227  1.0000
  H   H716      1.0  0.07689  0.20645  0.89376  1.0000
  H   H717      1.0  0.13411  0.16833  0.66340  1.0000
  C   C403      1.0  0.11156  0.19244  0.93200  1.0000
  H   H718      1.0  0.02950  0.17302  0.67369  1.0000
  C   C404      1.0  0.04762  0.14905  0.82319  1.0000
  S   S90       1.0  0.02673  0.19068  0.87779  1.0000
  S   S91       1.0  0.09478  0.19430  0.92511  1.0000
  C   C405      1.0  0.12561  0.18646  0.68728  1.0000
  C   C406      1.0  0.07702  0.11007  0.71932  1.0000
  C   C407      1.0  0.08354  0.18786  0.74169  1.0000
  C   C408      1.0  0.15513  0.14243  0.67284  1.0000
  H   H719      1.0  0.15624  0.14926  0.68082  1.0000
  S   S92       1.0  0.22167  0.08001  0.81280  1.0000
  C   C409      1.0  0.03157  0.18445  0.66598  1.0000
  C   C410      1.0  0.16379  0.14215  0.64438  1.0000
  C   C411      1.0  0.23807  0.17967  0.95309  1.0000
  H   H720      1.0  0.20390  0.10044  0.83404  1.0000
  H   H721      1.0  0.14438  0.18279  0.63654  1.0000
  H   H722      1.0  0.04854  0.03217  0.74391  1.0000
  C   C412      1.0  0.16575  0.16413  0.65373  1.0000
  H   H723      1.0  0.99187  0.05781  0.75541  1.0000
  H   H724      1.0  0.21786  0.06899  0.70089  1.0000
  H   H725      1.0  0.07345  0.10325  0.73145  1.0000
  H   H726      1.0  0.13703  0.00815  0.73754  1.0000
  H   H727      1.0  0.04873  0.19216  0.64499  1.0000
  H   H728      1.0  0.17576  0.13577  0.64625  1.0000
  C   C413      1.0  0.23100  0.20524  0.89136  1.0000
  H   H729      1.0  0.10161  0.16613  0.68103  1.0000
  S   S93       1.0  0.07285  0.20393  0.69909  1.0000
  H   H730      1.0  0.16537  0.13224  0.67314  1.0000
  H   H731      1.0  0.16582  0.14949  0.63226  1.0000
  H   H732      1.0  0.10926  0.22923  0.95255  1.0000
  H   H733      1.0  0.24052  0.14537  0.77391  1.0000
  C   C414      1.0  0.05614  0.21833  0.87311  1.0000
  S   S94       1.0  0.11639  0.20098  0.67325  1.0000
  H   H734      1.0  0.07121  0.11003  0.80512  1.0000
  H   H735      1.0  0.09591  0.99515  0.80741  1.0000
  H   H736      1.0  0.16785  0.17062  0.64124  1.0000
  S   S95       1.0  0.01618  0.21864  0.83991  1.0000
  H   H737      1.0  0.06644  0.11343  0.71408  1.0000
  C   C415      1.0  0.08837  0.98443  0.77337  1.0000
  H   H738      1.0  0.19126  0.17857  0.64463  1.0000
  S   S96       1.0  0.22490  0.12049  0.74094  1.0000
  C   C416      1.0  0.00873  0.20580  0.90151  1.0000
  H   H739      1.0  0.14372  0.19039  0.88955  1.0000
  C   C417      1.0  0.23298  0.13476  0.75952  1.0000
  H   H740      1.0  0.22852  0.98684  0.86949  1.0000
  H   H741      1.0  0.00718  0.03738  0.77254  1.0000
  C   C418      1.0  0.02428  0.18773  0.71295  1.0000
  H   H742      1.0  0.07154  0.14207  0.81144  1.0000
  C   C419      1.0  0.17961  0.21866  0.88578  1.0000
  C   C420      1.0  0.00123  0.17661  0.72594  1.0000
  H   H743      1.0  0.19014  0.15040  0.64925  1.0000
  C   C421      1.0  0.12503  0.16529  0.71054  1.0000
  C   C422      1.0  0.18229  0.15756  0.65769  1.0000
  H   H744      1.0  0.15838  0.19496  0.70832  1.0000
  H   H745      1.0  0.06322  0.22362  0.74847  1.0000
  H   H746      1.0  0.11139  0.11167  0.78063  1.0000
  S   S97       1.0  0.07839  0.19384  0.66518  1.0000
  H   H747      1.0  0.13833  0.08833  0.90699  1.0000
  C   C423      1.0  0.11722  0.17682  0.69965  1.0000
  C   C424      1.0  0.11220  0.12682  0.74227  1.0000
  N   N26       1.0  0.08188  0.12455  0.71983  1.0000
  C   C425      1.0  0.08771  0.13258  0.70305  1.0000
  C   C426      1.0  0.17475  0.99013  0.83553  1.0000
  H   H748      1.0  0.08849  0.13372  0.77956  1.0000
  H   H749      1.0  0.15811  0.22510  0.94280  1.0000
  C   C427      1.0  0.05144  0.14994  0.83828  1.0000
  H   H750      1.0  0.03220  0.13853  0.80731  1.0000
  C   C428      1.0  0.05843  0.14825  0.78675  1.0000
  H   H751      1.0  0.10454  0.14512  0.70453  1.0000
  C   C429      1.0  0.11062  0.19835  0.94501  1.0000
  H   H752      1.0  0.04400  0.19919  0.92082  1.0000
  S   S98       1.0  0.01338  0.20013  0.80573  1.0000
  C   C430      1.0  0.09633  0.13155  0.73749  1.0000
  H   H753      1.0  0.11398  0.11465  0.74947  1.0000
  C   C431      1.0  0.05220  0.04337  0.76109  1.0000
  Fe  Fe47      1.0  0.03952  0.22226  0.94061  1.0000
  C   C432      1.0  0.15957  0.23303  0.93096  1.0000
  C   C433      1.0  0.08762  0.12364  0.78978  1.0000
  C   C434      1.0  0.12433  0.19715  0.94999  1.0000
  C   C435      1.0  0.09343  0.14786  0.70042  1.0000
  C   C436      1.0  0.12739  0.14857  0.95581  1.0000
  H   H754      1.0  0.02772  0.23232  0.89110  1.0000
  Fe  Fe48      1.0  0.07468  0.21186  0.93564  1.0000
  H   H755      1.0  0.09528  0.14359  0.73016  1.0000
  C   C437      1.0  0.09689  0.15553  0.68289  1.0000
  H   H756      1.0  0.08695  0.13204  0.74833  1.0000
  C   C438      1.0  0.03596  0.19439  0.90263  1.0000
  H   H757      1.0  0.06600  0.12101  0.75137  1.0000
  H   H758      1.0  0.22153  0.07756  0.74125  1.0000
  N   N27       1.0  0.05080  0.23319  0.86164  1.0000
  S   S99       1.0  0.05891  0.22783  0.91989  1.0000
  H   H759      1.0  0.05938  0.22846  0.81427  1.0000
  Fe  Fe49      1.0  0.00473  0.20588  0.82971  1.0000
  H   H760      1.0  0.02027  0.22691  0.78074  1.0000
  C   C439      1.0  0.22778  0.20858  0.95267  1.0000
  S   S100      1.0  0.22540  0.17566  0.89990  1.0000
  H   H761      1.0  0.23445  0.10015  0.67794  1.0000
  H   H762      1.0  0.00305  0.14772  0.82935  1.0000
  H   H763      1.0  0.22189  0.21652  0.96101  1.0000
  C   C440      1.0  0.22518  0.18836  0.97788  1.0000
  C   C441      1.0  0.99862  0.16823  0.79272  1.0000
  H   H764      1.0  0.23008  0.03443  0.68058  1.0000
  C   C442      1.0  0.23853  0.10244  0.80781  1.0000
  Fe  Fe50      1.0  0.05657  0.22541  0.96409  1.0000
  H   H765      1.0  0.22231  0.98949  0.88940  1.0000
  C   C443      1.0  0.23195  0.12178  0.82385  1.0000
  C   C444      1.0  0.23928  0.10695  0.63289  1.0000
  H   H766      1.0  0.13775  0.22565  0.87434  1.0000
  H   H767      1.0  0.12022  0.99304  0.79280  1.0000
  C   C445      1.0  0.00333  0.18183  0.79252  1.0000
  C   C446      1.0  0.22888  0.22052  0.89324  1.0000
  C   C447      1.0  0.09607  0.98702  0.81905  1.0000
  H   H768      1.0  0.23990  0.01986  0.73217  1.0000
  C   C448      1.0  0.10584  0.22798  0.73193  1.0000
  H   H769      1.0  0.24019  0.20116  0.88209  1.0000
  S   S101      1.0  0.23712  0.13558  0.83064  1.0000
  C   C449      1.0  0.20118  0.98990  0.83700  1.0000
  H   H770      1.0  0.02530  0.99858  0.81297  1.0000
  S   S102      1.0  0.07736  0.23113  0.94522  1.0000
  H   H771      1.0  0.23860  0.05948  0.66129  1.0000
  H   H772      1.0  0.23043  0.15045  0.68316  1.0000
  H   H773      1.0  0.23585  0.06131  0.74930  1.0000
  C   C450      1.0  0.23763  0.16912  0.85434  1.0000
  N   N28       1.0  0.10703  0.99030  0.82708  1.0000
  H   H774      1.0  0.23892  0.04742  0.82030  1.0000
  Fe  Fe51      1.0  0.99247  0.12110  0.75978  1.0000
  H   H775      1.0  0.22967  0.16673  0.86607  1.0000
  H   H776      1.0  0.23074  0.17802  0.84618  1.0000
  H   H777      1.0  0.20095  0.04938  0.48685  1.0000
  H   H778      1.0  0.03020  0.22663  0.80364  1.0000
  H   H779      1.0  0.04347  0.22628  0.55704  1.0000
  C   C451      1.0  0.23759  0.04920  0.70020  1.0000
  H   H780      1.0  0.23550  0.07279  0.84753  1.0000
  C   C452      1.0  0.23584  0.10209  0.66539  1.0000
  H   H781      1.0  0.22983  0.06505  0.86843  1.0000
  H   H782      1.0  0.24076  0.00883  0.71803  1.0000
  S   S103      1.0  0.23645  0.17523  0.80090  1.0000
  H   H783      1.0  0.12123  0.23369  0.93309  1.0000
  H   H784      1.0  0.09278  0.23112  0.73555  1.0000
  H   H785      1.0  0.22850  0.17492  0.93554  1.0000
  C   C453      1.0  0.23999  0.04151  0.64961  1.0000
  H   H786      1.0  0.23851  0.09711  0.85249  1.0000
  C   C454      1.0  0.23816  0.18007  0.93581  1.0000
  C   C455      1.0  0.12343  0.98676  0.81719  1.0000
  C   C456      1.0  0.99242  0.15804  0.69294  1.0000
  C   C457      1.0  0.23747  0.14695  0.76279  1.0000
  C   C458      1.0  0.99420  0.17211  0.67913  1.0000
  C   C459      1.0  0.99683  0.23088  0.69522  1.0000
  H   H787      1.0  0.00653  0.22493  0.70154  1.0000
  H   H788      1.0  0.23684  0.10625  0.92570  1.0000
  H   H789      1.0  0.23642  0.19223  0.92862  1.0000
  H   H790      1.0  0.23684  0.22782  0.88577  1.0000
  H   H791      1.0  0.15851  0.98477  0.87105  1.0000
  C   C460      1.0  0.03684  0.23351  0.61471  1.0000
  H   H792      1.0  0.24022  0.13202  0.70630  1.0000
  H   H793      1.0  0.24050  0.10888  0.62032  1.0000
  H   H794      1.0  0.03644  0.23186  0.57581  1.0000
  H   H795      1.0  0.21362  0.98465  0.83504  1.0000
  H   H796      1.0  0.23825  0.23394  0.93086  1.0000
  H   H797      1.0  0.21951  0.46509  0.04280  1.0000
  H   H798      1.0  0.01789  0.36931  0.38996  1.0000
  H   H799      1.0  0.09875  0.28231  0.14757  1.0000
  H   H800      1.0  0.12086  0.25626  0.16610  1.0000
  H   H801      1.0  0.09484  0.26337  0.15884  1.0000
  Fe  Fe52      1.0  0.01405  0.29460  0.25000  1.0000
  C   C461      1.0  0.05255  0.29204  0.09926  1.0000
  H   H802      1.0  0.22882  0.37703  0.09145  1.0000
  C   C462      1.0  0.03574  0.25329  0.10903  1.0000
  H   H803      1.0  0.05185  0.36470  0.22875  1.0000
  C   C463      1.0  0.12540  0.40342  0.01171  1.0000
  Fe  Fe53      1.0  0.18651  0.42899  0.01487  1.0000
  S   S104      1.0  0.20705  0.43990  0.00157  1.0000
  C   C464      1.0  0.00345  0.30319  0.35391  1.0000
  Fe  Fe54      1.0  0.19832  0.41782  0.04534  1.0000
  S   S105      1.0  0.21972  0.42844  0.03475  1.0000
  S   S106      1.0  0.19228  0.40493  0.07081  1.0000
  Fe  Fe55      1.0  0.20365  0.44935  0.02306  1.0000
  Fe  Fe56      1.0  0.22152  0.41827  0.01423  1.0000
  H   H804      1.0  0.02282  0.32042  0.31728  1.0000
  S   S107      1.0  0.18211  0.43974  0.03562  1.0000
  S   S108      1.0  0.20119  0.40641  0.02547  1.0000
  C   C465      1.0  0.02569  0.34357  0.28592  1.0000
  S   S109      1.0  0.03907  0.28225  0.24315  1.0000
  C   C466      1.0  0.01534  0.35967  0.30567  1.0000
  Fe  Fe57      1.0  0.02305  0.32187  0.25666  1.0000
  S   S110      1.0  0.04911  0.31187  0.24982  1.0000
  H   H805      1.0  0.99943  0.36984  0.23067  1.0000
  Fe  Fe58      1.0  0.04343  0.30600  0.22970  1.0000
  S   S111      1.0  0.05536  0.30627  0.20416  1.0000
  Fe  Fe59      1.0  0.04246  0.28901  0.26371  1.0000
  C   C467      1.0  0.05128  0.25317  0.28529  1.0000
  S   S112      1.0  0.01796  0.31791  0.23534  1.0000
  H   H806      1.0  0.06311  0.32699  0.13044  1.0000
  H   H807      1.0  0.00082  0.34097  0.35785  1.0000
  Fe  Fe60      1.0  0.00060  0.46779  0.41711  1.0000
  S   S113      1.0  0.13446  0.24685  0.07446  1.0000
  H   H808      1.0  0.19915  0.25899  0.08309  1.0000
  C   C468      1.0  0.02144  0.37955  0.39135  1.0000
  H   H809      1.0  0.01237  0.37562  0.41617  1.0000
  S   S114      1.0  0.20247  0.47558  0.01741  1.0000
  H   H810      1.0  0.10868  0.41497  0.99671  1.0000
  H   H811      1.0  0.04843  0.30252  0.10448  1.0000
  S   S115      1.0  0.09933  0.25288  0.05261  1.0000
  H   H812      1.0  0.00609  0.24130  0.29962  1.0000
  Fe  Fe61      1.0  0.14723  0.33309  0.10620  1.0000
  S   S116      1.0  0.14708  0.30943  0.10295  1.0000
  S   S117      1.0  0.16374  0.34458  0.08509  1.0000
  Fe  Fe62      1.0  0.12227  0.32980  0.13676  1.0000
  S   S118      1.0  0.11997  0.30629  0.13550  1.0000
  S   S119      1.0  0.10939  0.33943  0.15852  1.0000
  Fe  Fe63      1.0  0.14622  0.30097  0.12870  1.0000
  S   S120      1.0  0.15817  0.27631  0.13845  1.0000
  Fe  Fe64      1.0  0.12094  0.31650  0.10994  1.0000
  S   S121      1.0  0.10544  0.31069  0.09771  1.0000
  S   S122      1.0  0.14879  0.32383  0.13163  1.0000
  S   S123      1.0  0.12080  0.34087  0.11147  1.0000
  C   C469      1.0  0.09567  0.24194  0.28229  1.0000
  H   H813      1.0  0.02497  0.33153  0.33702  1.0000
  H   H814      1.0  0.08664  0.24971  0.28953  1.0000
  H   H815      1.0  0.02903  0.31360  0.35097  1.0000
  C   C470      1.0  0.04628  0.45729  0.38702  1.0000
  H   H816      1.0  0.10734  0.24096  0.28459  1.0000
  C   C471      1.0  0.21913  0.35035  0.09590  1.0000
  H   H817      1.0  0.09551  0.27850  0.23323  1.0000
  C   C472      1.0  0.17818  0.27418  0.13745  1.0000
  C   C473      1.0  0.18862  0.26004  0.13502  1.0000
  C   C474      1.0  0.20481  0.25844  0.13328  1.0000
  C   C475      1.0  0.21048  0.27071  0.13474  1.0000
  C   C476      1.0  0.19994  0.28451  0.13806  1.0000
  C   C477      1.0  0.18382  0.28641  0.13902  1.0000
  H   H818      1.0  0.18423  0.25053  0.13394  1.0000
  H   H819      1.0  0.21284  0.24771  0.13092  1.0000
  H   H820      1.0  0.20431  0.29391  0.13940  1.0000
  H   H821      1.0  0.17578  0.29726  0.14111  1.0000
  C   C478      1.0  0.12635  0.26460  0.08088  1.0000
  C   C479      1.0  0.13305  0.26831  0.09123  1.0000
  C   C480      1.0  0.12661  0.28238  0.09656  1.0000
  C   C481      1.0  0.11368  0.29296  0.09126  1.0000
  C   C482      1.0  0.10704  0.28927  0.08087  1.0000
  C   C483      1.0  0.11325  0.27506  0.07581  1.0000
  H   H822      1.0  0.14311  0.26024  0.09527  1.0000
  H   H823      1.0  0.13161  0.28493  0.10485  1.0000
  H   H824      1.0  0.09713  0.29746  0.07662  1.0000
  H   H825      1.0  0.10808  0.27237  0.06775  1.0000
  H   H826      1.0  0.99737  0.25615  0.28470  1.0000
  S   S124      1.0  0.00108  0.38363  0.35852  1.0000
  H   H827      1.0  0.22685  0.43096  0.08139  1.0000
  C   C484      1.0  0.07004  0.31615  0.19191  1.0000
  C   C485      1.0  0.07482  0.31486  0.17615  1.0000
  C   C486      1.0  0.08676  0.32207  0.16583  1.0000
  C   C487      1.0  0.09406  0.33066  0.17120  1.0000
  C   C488      1.0  0.08923  0.33205  0.18698  1.0000
  C   C489      1.0  0.07733  0.32468  0.19737  1.0000
  H   H828      1.0  0.06927  0.30818  0.17194  1.0000
  H   H829      1.0  0.09019  0.32115  0.15366  1.0000
  H   H830      1.0  0.09491  0.33860  0.19122  1.0000
  H   H831      1.0  0.07411  0.32531  0.20962  1.0000
  H   H832      1.0  0.04531  0.30531  0.07757  1.0000
  N   N29       1.0  0.00899  0.31628  0.34096  1.0000
  H   H833      1.0  0.03518  0.47731  0.33173  1.0000
  H   H834      1.0  0.02353  0.42224  0.38962  1.0000
  C   C490      1.0  0.09410  0.25787  0.11558  1.0000
  S   S125      1.0  0.01768  0.36510  0.32204  1.0000
  H   H835      1.0  0.02339  0.35674  0.17268  1.0000
  H   H836      1.0  0.04620  0.26659  0.12807  1.0000
  C   C491      1.0  0.09395  0.27504  0.21082  1.0000
  C   C492      1.0  0.04799  0.24480  0.30087  1.0000
  C   C493      1.0  0.03883  0.39302  0.17188  1.0000
  H   H837      1.0  0.04725  0.25019  0.31039  1.0000
  H   H838      1.0  0.13585  0.41708  0.02050  1.0000
  C   C494      1.0  0.01230  0.35031  0.27958  1.0000
  C   C495      1.0  0.07304  0.28781  0.12700  1.0000
  H   H839      1.0  0.09801  0.26210  0.26291  1.0000
  H   H840      1.0  0.03158  0.45127  0.34311  1.0000
  H   H841      1.0  0.06428  0.34528  0.22985  1.0000
  H   H842      1.0  0.03080  0.23988  0.20335  1.0000
  H   H843      1.0  0.22884  0.28976  0.06612  1.0000
  N   N30       1.0  0.06670  0.27639  0.12239  1.0000
  H   H844      1.0  0.03019  0.45736  0.36654  1.0000
  H   H845      1.0  0.01359  0.29757  0.21891  1.0000
  C   C496      1.0  0.00181  0.36618  0.29953  1.0000
  H   H846      1.0  0.07583  0.23475  0.02906  1.0000
  C   C497      1.0  0.18459  0.38793  0.07506  1.0000
  C   C498      1.0  0.18686  0.37960  0.06346  1.0000
  C   C499      1.0  0.18056  0.36623  0.06694  1.0000
  C   C500      1.0  0.17169  0.36116  0.08196  1.0000
  C   C501      1.0  0.16960  0.36925  0.09372  1.0000
  C   C502      1.0  0.17620  0.38252  0.09030  1.0000
  H   H847      1.0  0.19357  0.38333  0.05184  1.0000
  H   H848      1.0  0.18242  0.35988  0.05788  1.0000
  H   H849      1.0  0.16289  0.36534  0.10539  1.0000
  H   H850      1.0  0.17448  0.38883  0.09939  1.0000
  H   H851      1.0  0.99953  0.28955  0.33904  1.0000
  H   H852      1.0  0.07808  0.26860  0.01304  1.0000
  H   H853      1.0  0.05230  0.28232  0.31491  1.0000
  C   C503      1.0  0.04597  0.34982  0.21695  1.0000
  C   C504      1.0  0.03357  0.29716  0.32859  1.0000
  H   H854      1.0  0.06547  0.31067  0.11212  1.0000
  H   H855      1.0  0.12163  0.25343  0.19502  1.0000
  H   H856      1.0  0.04271  0.25443  0.03631  1.0000
  S   S126      1.0  0.99190  0.29102  0.17798  1.0000
  H   H857      1.0  0.07166  0.25112  0.12507  1.0000
  H   H858      1.0  0.09014  0.28219  0.00104  1.0000
  H   H859      1.0  0.10133  0.41701  0.01685  1.0000
  S   S127      1.0  0.16388  0.43181  0.00758  1.0000
  H   H860      1.0  0.02355  0.23895  0.25712  1.0000
  H   H861      1.0  0.06853  0.26990  0.10052  1.0000
  H   H862      1.0  0.01716  0.38496  0.19903  1.0000
  H   H863      1.0  0.99641  0.40644  0.42498  1.0000
  H   H864      1.0  0.04231  0.30130  0.33203  1.0000
  H   H865      1.0  0.18483  0.38333  0.99777  1.0000
  H   H866      1.0  0.03784  0.34344  0.30338  1.0000
  H   H867      1.0  0.01584  0.34468  0.37467  1.0000
  H   H868      1.0  0.00440  0.46663  0.32583  1.0000
  H   H869      1.0  0.02728  0.26100  0.15429  1.0000
  C   C505      1.0  0.05200  0.35210  0.23017  1.0000
  C   C506      1.0  0.03014  0.24844  0.21035  1.0000
  H   H870      1.0  0.01558  0.37742  0.18370  1.0000
  C   C507      1.0  0.03082  0.27016  0.15772  1.0000
  C   C508      1.0  0.00338  0.44080  0.39466  1.0000
  H   H871      1.0  0.12114  0.39237  0.01514  1.0000
  C   C509      1.0  0.06366  0.30503  0.12484  1.0000
  C   C510      1.0  0.01586  0.45856  0.32730  1.0000
  S   S128      1.0  0.99241  0.26209  0.15255  1.0000
  N   N31       1.0  0.14309  0.39284  0.03232  1.0000
  C   C511      1.0  0.14926  0.39897  0.04281  1.0000
  C   C512      1.0  0.03379  0.46883  0.36330  1.0000
  C   C513      1.0  0.13108  0.40619  0.02524  1.0000
  C   C514      1.0  0.13493  0.37956  0.04139  1.0000
  C   C515      1.0  0.14450  0.36519  0.05112  1.0000
  C   C516      1.0  0.13685  0.40565  0.05632  1.0000
  C   C517      1.0  0.09591  0.25011  0.26506  1.0000
  C   C518      1.0  0.15628  0.38790  0.01899  1.0000
  C   C519      1.0  0.13420  0.35356  0.06096  1.0000
  C   C520      1.0  0.14475  0.40995  0.06695  1.0000
  H   H872      1.0  0.02640  0.34783  0.35446  1.0000
  H   H873      1.0  0.15547  0.40849  0.03561  1.0000
  H   H874      1.0  0.15830  0.38981  0.04829  1.0000
  H   H875      1.0  0.17960  0.26889  0.09165  1.0000
  H   H876      1.0  0.00662  0.32298  0.37148  1.0000
  H   H877      1.0  0.17296  0.37145  0.03324  1.0000
  H   H878      1.0  0.12036  0.40911  0.03443  1.0000
  H   H879      1.0  0.12380  0.38394  0.04945  1.0000
  H   H880      1.0  0.13120  0.37480  0.03329  1.0000
  H   H881      1.0  0.14928  0.36864  0.05936  1.0000
  H   H882      1.0  0.15421  0.35881  0.04318  1.0000
  H   H883      1.0  0.12881  0.41653  0.05154  1.0000
  H   H884      1.0  0.12982  0.39695  0.06377  1.0000
  C   C521      1.0  0.99349  0.39105  0.40420  1.0000
  H   H885      1.0  0.01131  0.45725  0.35214  1.0000
  Fe  Fe65      1.0  0.08252  0.24021  0.07177  1.0000
  H   H886      1.0  0.15792  0.39823  0.00912  1.0000
  H   H887      1.0  0.12880  0.34979  0.05339  1.0000
  H   H888      1.0  0.14147  0.34294  0.06718  1.0000
  H   H889      1.0  0.12477  0.35892  0.06995  1.0000
  H   H890      1.0  0.15241  0.41830  0.06003  1.0000
  H   H891      1.0  0.13566  0.41555  0.07599  1.0000
  H   H892      1.0  0.15194  0.39923  0.07308  1.0000
  S   S129      1.0  0.01689  0.29937  0.27195  1.0000
  H   H893      1.0  0.21309  0.38063  0.98161  1.0000
  C   C522      1.0  0.05024  0.27532  0.13167  1.0000
  N   N32       1.0  0.11688  0.27861  0.18622  1.0000
  C   C523      1.0  0.12573  0.29112  0.17628  1.0000
  C   C524      1.0  0.10680  0.27606  0.17675  1.0000
  C   C525      1.0  0.10597  0.28495  0.20010  1.0000
  C   C526      1.0  0.12760  0.26337  0.19229  1.0000
  C   C527      1.0  0.14409  0.25891  0.18157  1.0000
  C   C528      1.0  0.13433  0.29734  0.18515  1.0000
  C   C529      1.0  0.99282  0.43412  0.37119  1.0000
  C   C530      1.0  0.11552  0.26888  0.16222  1.0000
  C   C531      1.0  0.10422  0.26985  0.15203  1.0000
  H   H894      1.0  0.99345  0.38055  0.43705  1.0000
  C   C532      1.0  0.14626  0.30651  0.17379  1.0000
  H   H895      1.0  0.13775  0.44098  0.99355  1.0000
  H   H896      1.0  0.11754  0.30154  0.17086  1.0000
  H   H897      1.0  0.13441  0.28710  0.16610  1.0000
  H   H898      1.0  0.15316  0.37954  0.01397  1.0000
  H   H899      1.0  0.09872  0.28739  0.17283  1.0000
  H   H900      1.0  0.09914  0.29693  0.19597  1.0000
  H   H901      1.0  0.11286  0.28637  0.20786  1.0000
  H   H902      1.0  0.12992  0.26352  0.20370  1.0000
  H   H903      1.0  0.01358  0.29470  0.35834  1.0000
  H   H904      1.0  0.15153  0.26717  0.18054  1.0000
  H   H905      1.0  0.14337  0.25917  0.16954  1.0000
  H   H906      1.0  0.12566  0.30551  0.19221  1.0000
  H   H907      1.0  0.14054  0.28762  0.19326  1.0000
  C   C533      1.0  0.11184  0.41677  0.00700  1.0000
  C   C534      1.0  0.04796  0.27077  0.14984  1.0000
  H   H908      1.0  0.12488  0.27495  0.15466  1.0000
  C   C535      1.0  0.03746  0.23730  0.05800  1.0000
  S   S130      1.0  0.00182  0.24636  0.18713  1.0000
  S   S131      1.0  0.23070  0.26911  0.13217  1.0000
  H   H909      1.0  0.11081  0.26460  0.14173  1.0000
  H   H910      1.0  0.23564  0.43034  0.06108  1.0000
  N   N33       1.0  0.02235  0.48147  0.35471  1.0000
  H   H911      1.0  0.05107  0.27954  0.15423  1.0000
  H   H912      1.0  0.15519  0.29903  0.16622  1.0000
  H   H913      1.0  0.14014  0.31701  0.16630  1.0000
  H   H914      1.0  0.15237  0.31057  0.18049  1.0000
  H   H915      1.0  0.23152  0.39023  0.03854  1.0000
  H   H916      1.0  0.14910  0.45476  0.03069  1.0000
  C   C536      1.0  0.22799  0.42488  0.07192  1.0000
  H   H917      1.0  0.10052  0.26646  0.11597  1.0000
  H   H918      1.0  0.08420  0.27653  0.20495  1.0000
  H   H919      1.0  0.05101  0.39457  0.16616  1.0000
  H   H920      1.0  0.01209  0.24417  0.38029  1.0000
  S   S132      1.0  0.05557  0.27177  0.28129  1.0000
  H   H921      1.0  0.06922  0.28687  0.00151  1.0000
  H   H922      1.0  0.16476  0.47536  0.01978  1.0000
  C   C537      1.0  0.00712  0.42551  0.37508  1.0000
  H   H923      1.0  0.05490  0.25250  0.26096  1.0000
  H   H924      1.0  0.20787  0.35520  0.09186  1.0000
  H   H925      1.0  0.05092  0.30590  0.12994  1.0000
  H   H926      1.0  0.18336  0.48037  0.99411  1.0000
  H   H927      1.0  0.08225  0.31400  0.12826  1.0000
  C   C538      1.0  0.06944  0.31450  0.13282  1.0000
  H   H928      1.0  0.02309  0.25945  0.04788  1.0000
  C   C539      1.0  0.00457  0.29347  0.21651  1.0000
  H   H929      1.0  0.04574  0.37825  0.19277  1.0000
  S   S133      1.0  0.01047  0.44470  0.40915  1.0000
  C   C540      1.0  0.05609  0.29770  0.08139  1.0000
  H   H930      1.0  0.22593  0.40134  0.06040  1.0000
  C   C541      1.0  0.14693  0.43360  0.98663  1.0000
  H   H931      1.0  0.99689  0.23597  0.09698  1.0000
  H   H932      1.0  0.02934  0.26721  0.17071  1.0000
  H   H933      1.0  0.18043  0.31874  0.11487  1.0000
  H   H934      1.0  0.01747  0.25315  0.12994  1.0000
  H   H935      1.0  0.06003  0.28755  0.07557  1.0000
  H   H936      1.0  0.08512  0.28842  0.11997  1.0000
  C   C542      1.0  0.17357  0.41833  0.98144  1.0000
  S   S134      1.0  0.99456  0.28448  0.24856  1.0000
  H   H937      1.0  0.02931  0.26367  0.10233  1.0000
  S   S135      1.0  0.05855  0.25329  0.08209  1.0000
  H   H938      1.0  0.19282  0.25662  0.10404  1.0000
  H   H939      1.0  0.02642  0.36960  0.22082  1.0000
  H   H940      1.0  0.09911  0.26789  0.18405  1.0000
  H   H941      1.0  0.04190  0.44640  0.38927  1.0000
  C   C543      1.0  0.99357  0.29398  0.34990  1.0000
  C   C544      1.0  0.17295  0.38085  0.02249  1.0000
  C   C545      1.0  0.02730  0.34844  0.29875  1.0000
  C   C546      1.0  0.23323  0.31137  0.06802  1.0000
  H   H942      1.0  0.04665  0.45916  0.39850  1.0000
  C   C547      1.0  0.02058  0.46020  0.34160  1.0000
  H   H943      1.0  0.08058  0.29302  0.22412  1.0000
  N   N34       1.0  0.20605  0.30463  0.07306  1.0000
  C   C548      1.0  0.22322  0.29863  0.07356  1.0000
  C   C549      1.0  0.19861  0.29081  0.07597  1.0000
  C   C550      1.0  0.20513  0.31403  0.05659  1.0000
  C   C551      1.0  0.19725  0.31501  0.08462  1.0000
  C   C552      1.0  0.20315  0.31166  0.10001  1.0000
  H   H944      1.0  0.01452  0.44634  0.32904  1.0000
  C   C553      1.0  0.18843  0.31973  0.05295  1.0000
  C   C554      1.0  0.19851  0.27921  0.09212  1.0000
  C   C555      1.0  0.19210  0.26510  0.09268  1.0000
  C   C556      1.0  0.19207  0.32189  0.11113  1.0000
  H   H945      1.0  0.00469  0.25124  0.25771  1.0000
  C   C557      1.0  0.18830  0.33212  0.03759  1.0000
  C   C558      1.0  0.03543  0.47147  0.37890  1.0000
  H   H946      1.0  0.22463  0.29213  0.08556  1.0000
  H   H947      1.0  0.18601  0.29487  0.07527  1.0000
  H   H948      1.0  0.20448  0.28397  0.06662  1.0000
  H   H949      1.0  0.21264  0.30708  0.04774  1.0000
  H   H950      1.0  0.20991  0.32474  0.05410  1.0000
  H   H951      1.0  0.19736  0.32760  0.07905  1.0000
  H   H952      1.0  0.18457  0.31448  0.08806  1.0000
  H   H953      1.0  0.21493  0.31428  0.09754  1.0000
  H   H954      1.0  0.20412  0.29924  0.10627  1.0000
  H   H955      1.0  0.99256  0.37490  0.30473  1.0000
  H   H956      1.0  0.22656  0.32241  0.07187  1.0000
  H   H957      1.0  0.17977  0.32490  0.06248  1.0000
  H   H958      1.0  0.18441  0.30975  0.05160  1.0000
  H   H959      1.0  0.21042  0.27459  0.09462  1.0000
  H   H960      1.0  0.19062  0.28500  0.10162  1.0000
  S   S136      1.0  0.01042  0.34548  0.26267  1.0000
  C   C559      1.0  0.14430  0.46602  0.02316  1.0000
  H   H961      1.0  0.23903  0.46139  0.99365  1.0000
  H   H962      1.0  0.19684  0.31994  0.12171  1.0000
  H   H963      1.0  0.19059  0.33454  0.10528  1.0000
  H   H964      1.0  0.18061  0.36411  0.00720  1.0000
  C   C560      1.0  0.02900  0.24734  0.12473  1.0000
  H   H965      1.0  0.04529  0.30159  0.30373  1.0000
  H   H966      1.0  0.21801  0.35408  0.10693  1.0000
  H   H967      1.0  0.19658  0.32731  0.02761  1.0000
  H   H968      1.0  0.17628  0.33569  0.03519  1.0000
  H   H969      1.0  0.19163  0.34271  0.03843  1.0000
  C   C561      1.0  0.04165  0.29169  0.31323  1.0000
  H   H970      1.0  0.01437  0.41667  0.36866  1.0000
  Fe  Fe66      1.0  0.11718  0.23836  0.06684  1.0000
  H   H971      1.0  0.04575  0.46706  0.35551  1.0000
  H   H972      1.0  0.02074  0.38899  0.38059  1.0000
  C   C562      1.0  0.06715  0.28063  0.10493  1.0000
  H   H973      1.0  0.00464  0.47151  0.37334  1.0000
  C   C563      1.0  0.15282  0.24243  0.18821  1.0000
  H   H974      1.0  0.07769  0.28553  0.09838  1.0000
  C   C564      1.0  0.18434  0.37414  0.00882  1.0000
  H   H975      1.0  0.04167  0.28653  0.12898  1.0000
  H   H976      1.0  0.03385  0.37585  0.39265  1.0000
  H   H977      1.0  0.07864  0.25733  0.13841  1.0000
  C   C565      1.0  0.02214  0.33882  0.36471  1.0000
  H   H978      1.0  0.04460  0.34796  0.24183  1.0000
  H   H979      1.0  0.11528  0.42828  0.00367  1.0000
  C   C566      1.0  0.07720  0.26028  0.12607  1.0000
  H   H980      1.0  0.13505  0.40284  0.00107  1.0000
  C   C567      1.0  0.07995  0.27730  0.00170  1.0000
  H   H981      1.0  0.05361  0.35423  0.20566  1.0000
  H   H982      1.0  0.23830  0.46595  0.01196  1.0000
  H   H983      1.0  0.01624  0.25635  0.23117  1.0000
  H   H984      1.0  0.22317  0.37502  0.05293  1.0000
  H   H985      1.0  0.19633  0.36992  0.01129  1.0000
  H   H986      1.0  0.21880  0.37930  0.07667  1.0000
  N   N35       1.0  0.02148  0.35961  0.20394  1.0000
  C   C568      1.0  0.02931  0.34596  0.19594  1.0000
  C   C569      1.0  0.02837  0.35794  0.21793  1.0000
  C   C570      1.0  0.00425  0.35917  0.20999  1.0000
  C   C571      1.0  0.02260  0.37520  0.19271  1.0000
  C   C572      1.0  0.03939  0.37758  0.18420  1.0000
  C   C573      1.0  0.02287  0.34576  0.18181  1.0000
  C   C574      1.0  0.08649  0.28037  0.22635  1.0000
  H   H987      1.0  0.18491  0.41364  0.98452  1.0000
  H   H988      1.0  0.01055  0.34422  0.18571  1.0000
  C   C575      1.0  0.03248  0.33208  0.17407  1.0000
  H   H989      1.0  0.03223  0.32070  0.18270  1.0000
  H   H990      1.0  0.02832  0.33470  0.20459  1.0000
  H   H991      1.0  0.04215  0.34517  0.19165  1.0000
  H   H992      1.0  0.07806  0.23578  0.34142  1.0000
  H   H993      1.0  0.02214  0.35073  0.22867  1.0000
  H   H994      1.0  0.00300  0.34715  0.21685  1.0000
  H   H995      1.0  0.03984  0.26147  0.05386  1.0000
  C   C576      1.0  0.02335  0.47689  0.33960  1.0000
  H   H996      1.0  0.00849  0.24651  0.10149  1.0000
  H   H997      1.0  0.04622  0.36803  0.17802  1.0000
  C   C577      1.0  0.00041  0.36167  0.28640  1.0000
  H   H998      1.0  0.21059  0.47938  0.98080  1.0000
  C   C578      1.0  0.08315  0.26917  0.98811  1.0000
  Fe  Fe67      1.0  0.99722  0.37963  0.33645  1.0000
  C   C579      1.0  0.10378  0.24151  0.12100  1.0000
  H   H999      1.0  0.04731  0.33701  0.21826  1.0000
  C   C580      1.0  0.05067  0.24580  0.10195  1.0000
  C   C581      1.0  0.01088  0.38542  0.40585  1.0000
  C   C582      1.0  0.23039  0.37399  0.07994  1.0000
  C   C583      1.0  0.02781  0.23656  0.07517  1.0000
  C   C584      1.0  0.03559  0.25423  0.04848  1.0000
  H   H1000     1.0  0.02743  0.33197  0.16425  1.0000
  H   H1001     1.0  0.04487  0.33330  0.16926  1.0000
  C   C585      1.0  0.05215  0.24618  0.27301  1.0000
  H   H1002     1.0  0.03197  0.24404  0.08034  1.0000
  C   C586      1.0  0.99260  0.28922  0.19757  1.0000
  H   H1003     1.0  0.11561  0.24006  0.11303  1.0000
  C   C587      1.0  0.01235  0.42882  0.38681  1.0000
  H   H1004     1.0  0.13642  0.47390  0.03091  1.0000
  C   C588      1.0  0.21696  0.47780  0.03967  1.0000
  H   H1005     1.0  0.06541  0.30460  0.07755  1.0000
  C   C589      1.0  0.99430  0.37096  0.22051  1.0000
  H   H1006     1.0  0.03365  0.28681  0.30946  1.0000
  H   H1007     1.0  0.03296  0.39291  0.16266  1.0000
  H   H1008     1.0  0.05517  0.25898  0.15376  1.0000
  C   C590      1.0  0.01928  0.32298  0.34684  1.0000
  C   C591      1.0  0.16169  0.42783  0.99048  1.0000
  H   H1009     1.0  0.03498  0.33493  0.28066  1.0000
  H   H1010     1.0  0.03040  0.28678  0.33760  1.0000
  H   H1011     1.0  0.99333  0.38323  0.21360  1.0000
  H   H1012     1.0  0.02288  0.28170  0.15439  1.0000
  H   H1013     1.0  0.17768  0.39023  0.02409  1.0000
  H   H1014     1.0  0.99830  0.36164  0.20009  1.0000
  H   H1015     1.0  0.01177  0.30609  0.32096  1.0000
  H   H1016     1.0  0.03237  0.32973  0.36819  1.0000
  C   C592      1.0  0.99382  0.28644  0.22890  1.0000
  H   H1017     1.0  0.06715  0.30987  0.14573  1.0000
  C   C593      1.0  0.00376  0.29514  0.20088  1.0000
  H   H1018     1.0  0.22695  0.40261  0.08776  1.0000
  H   H1019     1.0  0.04270  0.28587  0.10256  1.0000
  H   H1020     1.0  0.03243  0.40315  0.17745  1.0000
  H   H1021     1.0  0.01524  0.39523  0.40707  1.0000
  C   C594      1.0  0.00731  0.24598  0.28675  1.0000
  H   H1022     1.0  0.23303  0.35202  0.07249  1.0000
  H   H1023     1.0  0.07436  0.28357  0.13939  1.0000
  C   C595      1.0  0.01081  0.23869  0.26064  1.0000
  H   H1024     1.0  0.09379  0.25902  0.10315  1.0000
  S   S137      1.0  0.22932  0.23440  0.07729  1.0000
  H   H1025     1.0  0.09960  0.26238  0.21358  1.0000
  H   H1026     1.0  0.02500  0.46112  0.31648  1.0000
  C   C596      1.0  0.01880  0.31046  0.32642  1.0000
  H   H1027     1.0  0.07750  0.27352  0.23348  1.0000
  H   H1028     1.0  0.22900  0.48011  0.05612  1.0000
  H   H1029     1.0  0.05840  0.45569  0.37966  1.0000
  H   H1030     1.0  0.07291  0.26405  0.98960  1.0000
  C   C597      1.0  0.01092  0.33140  0.36071  1.0000
  H   H1031     1.0  0.21606  0.42657  0.06977  1.0000
  H   H1032     1.0  0.01201  0.30071  0.19136  1.0000
  H   H1033     1.0  0.00191  0.27142  0.36479  1.0000
  H   H1034     1.0  0.16842  0.24344  0.10424  1.0000
  H   H1035     1.0  0.99599  0.30783  0.36430  1.0000
  H   H1036     1.0  0.99473  0.35174  0.44899  1.0000
  H   H1037     1.0  0.16561  0.46489  0.00535  1.0000
  H   H1038     1.0  0.10542  0.24342  0.25716  1.0000
  C   C598      1.0  0.23412  0.37770  0.04469  1.0000
  H   H1039     1.0  0.99636  0.33121  0.31199  1.0000
  H   H1040     1.0  0.22913  0.37113  0.02561  1.0000
  C   C599      1.0  0.99518  0.32938  0.33694  1.0000
  H   H1041     1.0  0.23663  0.31423  0.05496  1.0000
  S   S138      1.0  0.01690  0.48303  0.41591  1.0000
  Fe  Fe68      1.0  0.00519  0.23893  0.16452  1.0000
  H   H1042     1.0  0.02376  0.47327  0.38701  1.0000
  C   C600      1.0  0.15780  0.47348  0.01240  1.0000
  C   C601      1.0  0.23271  0.35589  0.08319  1.0000
  H   H1043     1.0  0.13744  0.46349  0.01605  1.0000
  H   H1044     1.0  0.99911  0.24472  0.40818  1.0000
  H   H1045     1.0  0.08444  0.25125  0.26219  1.0000
  H   H1046     1.0  0.10525  0.23990  0.13315  1.0000
  H   H1047     1.0  0.01848  0.25014  0.28206  1.0000
  H   H1048     1.0  0.09360  0.25943  0.98926  1.0000
  H   H1049     1.0  0.99865  0.34096  0.33308  1.0000
  H   H1050     1.0  0.22139  0.33734  0.09854  1.0000
  H   H1051     1.0  0.04065  0.48174  0.37692  1.0000
  C   C602      1.0  0.23506  0.40739  0.07697  1.0000
  H   H1052     1.0  0.15446  0.24168  0.20012  1.0000
  H   H1053     1.0  0.16459  0.23975  0.18038  1.0000
  H   H1054     1.0  0.01556  0.24273  0.07446  1.0000
  H   H1055     1.0  0.00550  0.25110  0.22003  1.0000
  H   H1056     1.0  0.04141  0.24600  0.21412  1.0000
  C   C603      1.0  0.23746  0.39856  0.06378  1.0000
  C   C604      1.0  0.01642  0.24761  0.22462  1.0000
  H   H1057     1.0  0.02835  0.26044  0.20275  1.0000
  C   C605      1.0  0.00604  0.48292  0.36517  1.0000
  H   H1058     1.0  0.99321  0.40132  0.39412  1.0000
  C   C606      1.0  0.23845  0.36762  0.03249  1.0000
  H   H1059     1.0  0.99199  0.36165  0.42114  1.0000
  H   H1060     1.0  0.23944  0.35503  0.03839  1.0000
  C   C607      1.0  0.00494  0.23506  0.10455  1.0000
  H   H1061     1.0  0.09025  0.23452  0.31257  1.0000
  H   H1062     1.0  0.08114  0.31156  0.86715  1.0000
  C   C608      1.0  0.15806  0.31627  0.79235  1.0000
  S   S139      1.0  0.02385  0.44920  0.57236  1.0000
  H   H1063     1.0  0.06642  0.29586  0.69487  1.0000
  H   H1064     1.0  0.08239  0.26335  0.82762  1.0000
  H   H1065     1.0  0.06951  0.27738  0.66988  1.0000
  Fe  Fe69      1.0  0.17034  0.41200  0.92846  1.0000
  S   S140      1.0  0.15076  0.41536  0.94960  1.0000
  Fe  Fe70      1.0  0.20398  0.39560  0.91882  1.0000
  S   S141      1.0  0.20541  0.40762  0.89351  1.0000
  H   H1066     1.0  0.01871  0.30208  0.60332  1.0000
  Fe  Fe71      1.0  0.18164  0.40230  0.89686  1.0000
  S   S142      1.0  0.17996  0.39233  0.87695  1.0000
  S   S143      1.0  0.19302  0.41773  0.92758  1.0000
  S   S144      1.0  0.18126  0.38867  0.92176  1.0000
  S   S145      1.0  0.99700  0.26940  0.57794  1.0000
  H   H1067     1.0  0.06897  0.24681  0.85312  1.0000
  H   H1068     1.0  0.07550  0.26437  0.86712  1.0000
  H   H1069     1.0  0.17955  0.40711  0.96170  1.0000
  H   H1070     1.0  0.06199  0.32457  0.86872  1.0000
  H   H1071     1.0  0.01837  0.26753  0.48844  1.0000
  H   H1072     1.0  0.09065  0.24767  0.91308  1.0000
  C   C609      1.0  0.01987  0.28219  0.53808  1.0000
  S   S146      1.0  0.06156  0.27099  0.91808  1.0000
  C   C610      1.0  0.03704  0.30462  0.84698  1.0000
  C   C611      1.0  0.03701  0.34663  0.79832  1.0000
  Fe  Fe72      1.0  0.13589  0.33453  0.86196  1.0000
  S   S147      1.0  0.15344  0.31150  0.86490  1.0000
  S   S148      1.0  0.13254  0.35142  0.87770  1.0000
  Fe  Fe73      1.0  0.12154  0.32509  0.83945  1.0000
  S   S149      1.0  0.13802  0.30155  0.84090  1.0000
  S   S150      1.0  0.10284  0.33298  0.82478  1.0000
  Fe  Fe74      1.0  0.13337  0.30062  0.86674  1.0000
  S   S151      1.0  0.13104  0.27767  0.88408  1.0000
  Fe  Fe75      1.0  0.15640  0.31458  0.83893  1.0000
  S   S152      1.0  0.17940  0.30962  0.82176  1.0000
  S   S153      1.0  0.11544  0.32335  0.86560  1.0000
  S   S154      1.0  0.14034  0.33852  0.83560  1.0000
  H   H1073     1.0  0.05539  0.28322  0.97492  1.0000
  H   H1074     1.0  0.05032  0.26986  0.66469  1.0000
  C   C612      1.0  0.07234  0.31938  0.86037  1.0000
  H   H1075     1.0  0.17835  0.45440  0.92149  1.0000
  C   C613      1.0  0.14385  0.42977  0.97402  1.0000
  C   C614      1.0  0.16006  0.47867  0.88576  1.0000
  H   H1076     1.0  0.04960  0.30005  0.51386  1.0000
  H   H1077     1.0  0.02331  0.34522  0.67732  1.0000
  H   H1078     1.0  0.05493  0.27254  0.87475  1.0000
  N   N36       1.0  0.15354  0.33329  0.78421  1.0000
  H   H1079     1.0  0.10468  0.25706  0.68339  1.0000
  H   H1080     1.0  0.00380  0.27375  0.64306  1.0000
  S   S155      1.0  0.04773  0.24850  0.69786  1.0000
  C   C615      1.0  0.23492  0.36201  0.88609  1.0000
  H   H1081     1.0  0.05065  0.24557  0.88758  1.0000
  Fe  Fe76      1.0  0.07712  0.29735  0.76788  1.0000
  S   S156      1.0  0.05680  0.31765  0.76359  1.0000
  S   S157      1.0  0.09939  0.29628  0.77559  1.0000
  Fe  Fe77      1.0  0.06128  0.27434  0.76217  1.0000
  S   S158      1.0  0.03939  0.29245  0.75820  1.0000
  S   S159      1.0  0.06426  0.24925  0.76086  1.0000
  Fe  Fe78      1.0  0.05594  0.30791  0.74344  1.0000
  S   S160      1.0  0.05353  0.32205  0.71880  1.0000
  Fe  Fe79      1.0  0.04195  0.30046  0.77845  1.0000
  S   S161      1.0  0.02183  0.30794  0.79760  1.0000
  S   S162      1.0  0.07791  0.28915  0.74625  1.0000
  S   S163      1.0  0.06213  0.28083  0.78398  1.0000
  H   H1082     1.0  0.07770  0.32897  0.85202  1.0000
  H   H1083     1.0  0.12664  0.23655  0.94975  1.0000
  C   C616      1.0  0.15867  0.33549  0.76654  1.0000
  H   H1084     1.0  0.17869  0.45067  0.95950  1.0000
  C   C617      1.0  0.03686  0.32510  0.71070  1.0000
  C   C618      1.0  0.03657  0.33464  0.69557  1.0000
  C   C619      1.0  0.05672  0.32073  0.84047  1.0000
  C   C620      1.0  0.05335  0.26490  0.64213  1.0000
  H   H1085     1.0  0.01986  0.39699  0.60610  1.0000
  H   H1086     1.0  0.04645  0.33999  0.68915  1.0000
  H   H1087     1.0  0.03183  0.25449  0.51018  1.0000
  H   H1088     1.0  0.22386  0.25417  0.79857  1.0000
  H   H1089     1.0  0.02410  0.25994  0.78005  1.0000
  H   H1090     1.0  0.07302  0.26682  0.94734  1.0000
  H   H1091     1.0  0.20477  0.48150  0.96259  1.0000
  C   C621      1.0  0.01173  0.29369  0.81024  1.0000
  C   C622      1.0  0.17053  0.41466  0.96854  1.0000
  C   C623      1.0  0.05230  0.24829  0.71552  1.0000
  H   H1092     1.0  0.21884  0.43475  0.92133  1.0000
  H   H1093     1.0  0.99441  0.43644  0.62684  1.0000
  C   C624      1.0  0.05970  0.24880  0.74344  1.0000
  C   C625      1.0  0.05542  0.26282  0.73287  1.0000
  C   C626      1.0  0.05144  0.26257  0.71913  1.0000
  C   C627      1.0  0.18664  0.34965  0.79074  1.0000
  C   C628      1.0  0.06501  0.26253  0.87666  1.0000
  H   H1094     1.0  0.05517  0.27394  0.73522  1.0000
  H   H1095     1.0  0.04772  0.27354  0.71132  1.0000
  H   H1096     1.0  0.07724  0.27701  0.81023  1.0000
  H   H1097     1.0  0.04883  0.26990  0.63116  1.0000
  C   C629      1.0  0.99307  0.27289  0.77802  1.0000
  H   H1098     1.0  0.01028  0.29325  0.86534  1.0000
  H   H1099     1.0  0.01954  0.28407  0.72679  1.0000
  Fe  Fe80      1.0  0.05972  0.24644  0.93130  1.0000
  H   H1100     1.0  0.00292  0.25618  0.87407  1.0000
  H   H1101     1.0  0.02842  0.27356  0.80288  1.0000
  H   H1102     1.0  0.06167  0.30111  0.86076  1.0000
  H   H1103     1.0  0.02978  0.41529  0.58152  1.0000
  C   C630      1.0  0.01195  0.29752  0.52779  1.0000
  H   H1104     1.0  0.02536  0.42114  0.53571  1.0000
  C   C631      1.0  0.12962  0.35692  0.78419  1.0000
  H   H1105     1.0  0.99806  0.42460  0.57510  1.0000
  C   C632      1.0  0.00236  0.42198  0.55148  1.0000
  C   C633      1.0  0.19621  0.46537  0.90459  1.0000
  H   H1106     1.0  0.00280  0.23564  0.88181  1.0000
  H   H1107     1.0  0.03324  0.45662  0.60136  1.0000
  C   C634      1.0  0.10168  0.32234  0.81157  1.0000
  C   C635      1.0  0.09098  0.32908  0.80162  1.0000
  C   C636      1.0  0.08997  0.32111  0.79073  1.0000
  C   C637      1.0  0.09964  0.30631  0.78970  1.0000
  C   C638      1.0  0.11038  0.29961  0.79959  1.0000
  C   C639      1.0  0.11129  0.30750  0.81059  1.0000
  H   H1108     1.0  0.08358  0.34061  0.80220  1.0000
  H   H1109     1.0  0.08195  0.32654  0.78287  1.0000
  H   H1110     1.0  0.11801  0.28822  0.79877  1.0000
  H   H1111     1.0  0.11952  0.30215  0.81819  1.0000
  C   C640      1.0  0.19579  0.30780  0.82934  1.0000
  C   C641      1.0  0.20812  0.31478  0.81977  1.0000
  C   C642      1.0  0.22147  0.31332  0.82541  1.0000
  C   C643      1.0  0.22284  0.30436  0.84042  1.0000
  C   C644      1.0  0.21070  0.29701  0.84992  1.0000
  C   C645      1.0  0.19702  0.29897  0.84447  1.0000
  H   H1112     1.0  0.20725  0.32156  0.80808  1.0000
  H   H1113     1.0  0.17100  0.31206  0.79031  1.0000
  H   H1114     1.0  0.21186  0.28995  0.86146  1.0000
  H   H1115     1.0  0.18761  0.29334  0.85178  1.0000
  C   C646      1.0  0.01620  0.40956  0.60518  1.0000
  C   C647      1.0  0.02346  0.33762  0.68882  1.0000
  C   C648      1.0  0.06747  0.30991  0.85164  1.0000
  C   C649      1.0  0.11204  0.36083  0.78444  1.0000
  C   C650      1.0  0.03849  0.32554  0.82338  1.0000
  H   H1116     1.0  0.10396  0.30087  0.94828  1.0000
  H   H1117     1.0  0.09782  0.25012  0.96716  1.0000
  C   C651      1.0  0.02396  0.31832  0.71890  1.0000
  H   H1118     1.0  0.13231  0.43415  0.97129  1.0000
  C   C652      1.0  0.01089  0.32122  0.71210  1.0000
  C   C653      1.0  0.08074  0.27253  0.90789  1.0000
  C   C654      1.0  0.09302  0.25920  0.90750  1.0000
  C   C655      1.0  0.10847  0.26083  0.90011  1.0000
  C   C656      1.0  0.11158  0.27574  0.89272  1.0000
  C   C657      1.0  0.09920  0.28896  0.89270  1.0000
  C   C658      1.0  0.08383  0.28738  0.90034  1.0000
  C   C659      1.0  0.02700  0.23581  0.77957  1.0000
  H   H1119     1.0  0.10633  0.24143  0.67370  1.0000
  H   H1120     1.0  0.10148  0.30049  0.88726  1.0000
  H   H1121     1.0  0.07436  0.29770  0.90058  1.0000
  C   C660      1.0  0.01747  0.27756  0.81067  1.0000
  H   H1122     1.0  0.19276  0.46186  0.95833  1.0000
  C   C661      1.0  0.00635  0.41548  0.61808  1.0000
  C   C662      1.0  0.03770  0.25620  0.53811  1.0000
  H   H1123     1.0  0.05016  0.25331  0.64749  1.0000
  H   H1124     1.0  0.02400  0.31097  0.73052  1.0000
  C   C663      1.0  0.00675  0.24569  0.88305  1.0000
  C   C664      1.0  0.01697  0.43629  0.58995  1.0000
  H   H1125     1.0  0.04968  0.25802  0.85773  1.0000
  C   C665      1.0  0.16650  0.38120  0.87730  1.0000
  C   C666      1.0  0.15335  0.37961  0.88959  1.0000
  C   C667      1.0  0.14287  0.37082  0.88926  1.0000
  C   C668      1.0  0.14571  0.36302  0.87700  1.0000
  C   C669      1.0  0.15892  0.36451  0.86475  1.0000
  C   C670      1.0  0.16907  0.37382  0.86477  1.0000
  H   H1126     1.0  0.15110  0.38543  0.89918  1.0000
  H   H1127     1.0  0.13248  0.37006  0.89858  1.0000
  H   H1128     1.0  0.16118  0.35870  0.85517  1.0000
  H   H1129     1.0  0.17912  0.37514  0.85512  1.0000
  H   H1130     1.0  0.15927  0.34428  0.73441  1.0000
  H   H1131     1.0  0.14599  0.33270  0.73437  1.0000
  H   H1132     1.0  0.00482  0.40900  0.55557  1.0000
  N   N37       1.0  0.08773  0.27428  0.95786  1.0000
  H   H1133     1.0  0.01118  0.27451  0.54207  1.0000
  H   H1134     1.0  0.99401  0.26488  0.74289  1.0000
  C   C671      1.0  0.05740  0.47838  0.55771  1.0000
  H   H1135     1.0  0.06464  0.32743  0.83096  1.0000
  H   H1136     1.0  0.06638  0.26301  0.63923  1.0000
  C   C672      1.0  0.06080  0.24707  0.87762  1.0000
  C   C673      1.0  0.04756  0.33634  0.80953  1.0000
  H   H1137     1.0  0.04468  0.46882  0.54662  1.0000
  H   H1138     1.0  0.01332  0.25420  0.82168  1.0000
  C   C674      1.0  0.15560  0.42035  0.96487  1.0000
  H   H1139     1.0  0.00093  0.24005  0.68506  1.0000
  C   C675      1.0  0.00896  0.26663  0.82128  1.0000
  C   C676      1.0  0.10862  0.25121  0.74080  1.0000
  H   H1140     1.0  0.07651  0.27579  0.69486  1.0000
  C   C677      1.0  0.04608  0.27571  0.65374  1.0000
  C   C678      1.0  0.14692  0.33388  0.75766  1.0000
  H   H1141     1.0  0.03795  0.24318  0.83228  1.0000
  H   H1142     1.0  0.07840  0.30375  0.84466  1.0000
  C   C679      1.0  0.03838  0.25152  0.55578  1.0000
  C   C680      1.0  0.01141  0.27683  0.72689  1.0000
  C   C681      1.0  0.01613  0.25181  0.78222  1.0000
  H   H1143     1.0  0.03767  0.27186  0.48335  1.0000
  H   H1144     1.0  0.06785  0.26214  0.88792  1.0000
  H   H1145     1.0  0.19927  0.42754  0.95567  1.0000
  H   H1146     1.0  0.21279  0.24297  0.85787  1.0000
  C   C682      1.0  0.07960  0.27598  0.82189  1.0000
  H   H1147     1.0  0.05496  0.30125  0.81398  1.0000
  H   H1148     1.0  0.00094  0.31601  0.71859  1.0000
  H   H1149     1.0  0.09003  0.28093  0.82016  1.0000
  H   H1150     1.0  0.15781  0.35530  0.78540  1.0000
  H   H1151     1.0  0.11226  0.29559  0.91461  1.0000
  Fe  Fe81      1.0  0.23531  0.25484  0.89164  1.0000
  H   H1152     1.0  0.19967  0.34718  0.78694  1.0000
  H   H1153     1.0  0.02971  0.25991  0.56247  1.0000
  C   C683      1.0  0.07284  0.26928  0.95876  1.0000
  H   H1154     1.0  0.23847  0.35758  0.87514  1.0000
  H   H1155     1.0  0.04365  0.27392  0.95085  1.0000
  H   H1156     1.0  0.10952  0.35448  0.77685  1.0000
  H   H1157     1.0  0.03223  0.32025  0.81792  1.0000
  C   C684      1.0  0.99111  0.24841  0.51539  1.0000
  C   C685      1.0  0.22273  0.26739  0.82100  1.0000
  H   H1158     1.0  0.15388  0.31500  0.80533  1.0000
  C   C686      1.0  0.05718  0.28122  0.96296  1.0000
  H   H1159     1.0  0.22948  0.29962  0.91428  1.0000
  H   H1160     1.0  0.17110  0.47383  0.93827  1.0000
  H   H1161     1.0  0.01637  0.43987  0.54100  1.0000
  H   H1162     1.0  0.11206  0.26276  0.73669  1.0000
  H   H1163     1.0  0.22116  0.27782  0.82591  1.0000
  C   C687      1.0  0.05039  0.24283  0.83189  1.0000
  Fe  Fe82      1.0  0.00188  0.34706  0.63022  1.0000
  H   H1164     1.0  0.01042  0.28402  0.78112  1.0000
  H   H1165     1.0  0.23757  0.44899  0.90110  1.0000
  C   C688      1.0  0.10116  0.26007  0.95756  1.0000
  H   H1166     1.0  0.09054  0.28275  0.93262  1.0000
  C   C689      1.0  0.02180  0.41995  0.59128  1.0000
  C   C690      1.0  0.05989  0.30191  0.82374  1.0000
  H   H1167     1.0  0.00510  0.28544  0.67566  1.0000
  H   H1168     1.0  0.02982  0.31280  0.85477  1.0000
  H   H1169     1.0  0.13270  0.33627  0.80278  1.0000
  C   C691      1.0  0.13604  0.33900  0.78967  1.0000
  C   C692      1.0  0.08734  0.44814  0.59623  1.0000
  H   H1170     1.0  0.08897  0.24334  0.70786  1.0000
  H   H1171     1.0  0.20311  0.44416  0.93997  1.0000
  N   N38       1.0  0.04508  0.30362  0.65747  1.0000
  C   C693      1.0  0.03005  0.30160  0.66947  1.0000
  C   C694      1.0  0.05776  0.30219  0.66596  1.0000
  C   C695      1.0  0.04228  0.32020  0.64769  1.0000
  C   C696      1.0  0.05010  0.29219  0.64668  1.0000
  C   C697      1.0  0.01508  0.30581  0.66270  1.0000
  C   C698      1.0  0.05677  0.32522  0.63536  1.0000
  C   C699      1.0  0.06263  0.28620  0.67698  1.0000
  C   C700      1.0  0.07300  0.28743  0.68718  1.0000
  C   C701      1.0  0.00194  0.29840  0.67429  1.0000
  C   C702      1.0  0.05202  0.34090  0.62423  1.0000
  H   H1172     1.0  0.02769  0.30905  0.67814  1.0000
  H   H1173     1.0  0.03107  0.28945  0.67669  1.0000
  H   H1174     1.0  0.06887  0.30421  0.65749  1.0000
  H   H1175     1.0  0.05411  0.31149  0.67296  1.0000
  H   H1176     1.0  0.03764  0.32880  0.65548  1.0000
  H   H1177     1.0  0.03309  0.32195  0.64100  1.0000
  H   H1178     1.0  0.04460  0.29719  0.63624  1.0000
  H   H1179     1.0  0.01071  0.31876  0.66031  1.0000
  H   H1180     1.0  0.01751  0.30199  0.65148  1.0000
  H   H1181     1.0  0.06284  0.31633  0.62813  1.0000
  H   H1182     1.0  0.06526  0.32685  0.64126  1.0000
  H   H1183     1.0  0.05236  0.28192  0.68497  1.0000
  H   H1184     1.0  0.08380  0.29135  0.67974  1.0000
  H   H1185     1.0  0.01960  0.25252  0.75096  1.0000
  C   C703      1.0  0.05754  0.24666  0.86177  1.0000
  C   C704      1.0  0.07272  0.45550  0.58928  1.0000
  H   H1186     1.0  0.06257  0.34400  0.61542  1.0000
  H   H1187     1.0  0.04348  0.34018  0.61784  1.0000
  H   H1188     1.0  0.04670  0.35040  0.63086  1.0000
  C   C705      1.0  0.04939  0.29660  0.52662  1.0000
  C   C706      1.0  0.00473  0.32539  0.60416  1.0000
  H   H1189     1.0  0.10524  0.35761  0.79662  1.0000
  H   H1190     1.0  0.23906  0.37310  0.88354  1.0000
  C   C707      1.0  0.01209  0.24052  0.63974  1.0000
  C   C708      1.0  0.16178  0.34248  0.78979  1.0000
  C   C709      1.0  0.01727  0.28702  0.85583  1.0000
  H   H1191     1.0  0.23459  0.23941  0.77661  1.0000
  H   H1192     1.0  0.02013  0.30538  0.52136  1.0000
  H   H1193     1.0  0.17159  0.25802  0.84453  1.0000
  H   H1194     1.0  0.07087  0.23753  0.88066  1.0000
  C   C710      1.0  0.06015  0.23446  0.74014  1.0000
  C   C711      1.0  0.09893  0.24790  0.68292  1.0000
  H   H1195     1.0  0.17006  0.32716  0.76341  1.0000
  H   H1196     1.0  0.01592  0.30807  0.83790  1.0000
  C   C712      1.0  0.00878  0.31088  0.59979  1.0000
  H   H1197     1.0  0.07741  0.29185  0.97199  1.0000
  H   H1198     1.0  0.06426  0.29731  0.54161  1.0000
  H   H1199     1.0  0.00095  0.24809  0.89491  1.0000
  H   H1200     1.0  0.06400  0.31284  0.52422  1.0000
  H   H1201     1.0  0.15858  0.30303  0.77528  1.0000
  H   H1202     1.0  0.14944  0.24325  0.93096  1.0000
  C   C713      1.0  0.19031  0.44989  0.96186  1.0000
  H   H1203     1.0  0.04801  0.32955  0.84677  1.0000
  H   H1204     1.0  0.02028  0.28648  0.48923  1.0000
  H   H1205     1.0  0.17279  0.27441  0.85144  1.0000
  C   C714      1.0  0.01050  0.33098  0.69709  1.0000
  C   C715      1.0  0.23598  0.25429  0.79906  1.0000
  H   H1206     1.0  0.05186  0.34433  0.81388  1.0000
  C   C716      1.0  0.11114  0.24389  0.72676  1.0000
  H   H1207     1.0  0.00976  0.46977  0.61854  1.0000
  H   H1208     1.0  0.23893  0.35684  0.90912  1.0000
  H   H1209     1.0  0.14866  0.24407  0.90342  1.0000
  H   H1210     1.0  0.04372  0.35443  0.78870  1.0000
  C   C717      1.0  0.09627  0.23657  0.69888  1.0000
  H   H1211     1.0  0.01830  0.26615  0.72243  1.0000
  H   H1212     1.0  0.03607  0.28772  0.50687  1.0000
  H   H1213     1.0  0.09175  0.43577  0.59487  1.0000
  H   H1214     1.0  0.20617  0.39054  0.96378  1.0000
  H   H1215     1.0  0.16513  0.26124  0.87876  1.0000
  H   H1216     1.0  0.02766  0.25273  0.88181  1.0000
  H   H1217     1.0  0.15172  0.27942  0.79418  1.0000
  H   H1218     1.0  0.11396  0.26180  0.93289  1.0000
  H   H1219     1.0  0.08448  0.44815  0.60896  1.0000
  H   H1220     1.0  0.11798  0.25054  0.90012  1.0000
  H   H1221     1.0  0.03470  0.23722  0.76767  1.0000
  H   H1222     1.0  0.03906  0.30406  0.53297  1.0000
  H   H1223     1.0  0.05118  0.25451  0.83279  1.0000
  C   C718      1.0  0.22459  0.25247  0.83425  1.0000
  C   C719      1.0  0.03789  0.27522  0.51311  1.0000
  H   H1224     1.0  0.13675  0.34405  0.75770  1.0000
  H   H1225     1.0  0.02550  0.47857  0.48722  1.0000
  H   H1226     1.0  0.21234  0.30513  0.92904  1.0000
  S   S164      1.0  0.01553  0.32895  0.61584  1.0000
  C   C720      1.0  0.18037  0.47493  0.92779  1.0000
  H   H1227     1.0  0.21385  0.40873  0.97531  1.0000
  H   H1228     1.0  0.14668  0.24700  0.87714  1.0000
  C   C721      1.0  0.04889  0.27905  0.53339  1.0000
  H   H1229     1.0  0.22207  0.44872  0.95211  1.0000
  N   N39       1.0  0.23578  0.26737  0.80647  1.0000
  H   H1230     1.0  0.00920  0.28242  0.85188  1.0000
  H   H1231     1.0  0.23084  0.31902  0.81808  1.0000
  C   C722      1.0  0.16672  0.26459  0.85411  1.0000
  H   H1232     1.0  0.18197  0.36228  0.78605  1.0000
  H   H1233     1.0  0.03130  0.29200  0.83228  1.0000
  H   H1234     1.0  0.21210  0.35558  0.89249  1.0000
  H   H1235     1.0  0.00538  0.29338  0.63201  1.0000
  H   H1236     1.0  0.07241  0.24047  0.81428  1.0000
  H   H1237     1.0  0.13132  0.36332  0.79224  1.0000
  C   C723      1.0  0.20300  0.43884  0.95250  1.0000
  H   H1238     1.0  0.00269  0.29612  0.58835  1.0000
  S   S165      1.0  0.21444  0.24530  0.90726  1.0000
  H   H1239     1.0  0.20700  0.28955  0.79913  1.0000
  H   H1240     1.0  0.23914  0.44392  0.92960  1.0000
  H   H1241     1.0  0.01885  0.23947  0.60123  1.0000
  C   C724      1.0  0.00193  0.43179  0.61687  1.0000
  H   H1242     1.0  0.13587  0.36163  0.77215  1.0000
  H   H1243     1.0  0.01902  0.45102  0.62883  1.0000
  C   C725      1.0  0.02534  0.29822  0.84201  1.0000
  N   N40       1.0  0.18047  0.31753  0.89865  1.0000
  C   C726      1.0  0.18818  0.32267  0.88156  1.0000
  C   C727      1.0  0.17547  0.30217  0.90145  1.0000
  C   C728      1.0  0.16572  0.32992  0.90235  1.0000
  C   C729      1.0  0.19089  0.31637  0.90952  1.0000
  C   C730      1.0  0.20739  0.30550  0.90665  1.0000
  C   C731      1.0  0.19519  0.33748  0.87733  1.0000
  C   C732      1.0  0.15514  0.32618  0.91907  1.0000
  C   C733      1.0  0.18588  0.29004  0.89157  1.0000
  C   C734      1.0  0.18050  0.27447  0.89725  1.0000
  H   H1244     1.0  0.00745  0.29467  0.51893  1.0000
  C   C735      1.0  0.20211  0.34175  0.85970  1.0000
  C   C736      1.0  0.14028  0.33907  0.92127  1.0000
  H   H1245     1.0  0.17962  0.32475  0.87401  1.0000
  H   H1246     1.0  0.19811  0.31336  0.87746  1.0000
  H   H1247     1.0  0.17420  0.29613  0.91409  1.0000
  H   H1248     1.0  0.16359  0.30443  0.89885  1.0000
  H   H1249     1.0  0.15830  0.33208  0.89367  1.0000
  H   H1250     1.0  0.16859  0.34141  0.90117  1.0000
  H   H1251     1.0  0.19229  0.32829  0.90922  1.0000
  H   H1252     1.0  0.18530  0.31186  0.92193  1.0000
  H   H1253     1.0  0.21357  0.30785  0.89414  1.0000
  H   H1254     1.0  0.20632  0.29304  0.91044  1.0000
  H   H1255     1.0  0.18623  0.34777  0.88060  1.0000
  H   H1256     1.0  0.20485  0.33541  0.88347  1.0000
  H   H1257     1.0  0.16142  0.32533  0.92828  1.0000
  H   H1258     1.0  0.15132  0.31501  0.92125  1.0000
  H   H1259     1.0  0.18478  0.29459  0.87914  1.0000
  H   H1260     1.0  0.19845  0.28761  0.89193  1.0000
  H   H1261     1.0  0.16799  0.27632  0.89674  1.0000
  H   H1262     1.0  0.18782  0.26625  0.88961  1.0000
  H   H1263     1.0  0.18192  0.26899  0.90950  1.0000
  H   H1264     1.0  0.16115  0.34743  0.76114  1.0000
  C   C737      1.0  0.03302  0.23742  0.86516  1.0000
  H   H1265     1.0  0.99213  0.31736  0.53016  1.0000
  H   H1266     1.0  0.19295  0.34396  0.85286  1.0000
  H   H1267     1.0  0.20669  0.35260  0.85693  1.0000
  H   H1268     1.0  0.21197  0.33214  0.85602  1.0000
  H   H1269     1.0  0.13283  0.33595  0.93316  1.0000
  H   H1270     1.0  0.14340  0.35040  0.92018  1.0000
  H   H1271     1.0  0.13333  0.34048  0.91241  1.0000
  H   H1272     1.0  0.16931  0.24229  0.90023  1.0000
  H   H1273     1.0  0.02474  0.42344  0.55500  1.0000
  C   C738      1.0  0.10675  0.25412  0.94205  1.0000
  S   S166      1.0  0.99592  0.24909  0.54390  1.0000
  H   H1274     1.0  0.11587  0.24350  0.74924  1.0000
  H   H1275     1.0  0.05695  0.29265  0.95443  1.0000
  H   H1276     1.0  0.99408  0.28324  0.74679  1.0000
  H   H1277     1.0  0.22454  0.24208  0.83012  1.0000
  H   H1278     1.0  0.13950  0.30759  0.78800  1.0000
  S   S167      1.0  0.01223  0.35528  0.64567  1.0000
  C   C739      1.0  0.21741  0.28773  0.78936  1.0000
  H   H1279     1.0  0.02659  0.35404  0.80463  1.0000
  H   H1280     1.0  0.15859  0.34047  0.80287  1.0000
  Fe  Fe83      1.0  0.00877  0.47380  0.56844  1.0000
  C   C740      1.0  0.11664  0.23739  0.94452  1.0000
  C   C741      1.0  0.03510  0.23514  0.56343  1.0000
  C   C742      1.0  0.15229  0.30418  0.78744  1.0000
  H   H1281     1.0  0.21640  0.27855  0.78401  1.0000
  H   H1282     1.0  0.05025  0.26994  0.50788  1.0000
  H   H1283     1.0  0.23257  0.41644  0.92021  1.0000
  N   N41       1.0  0.03583  0.27353  0.53057  1.0000
  S   S168      1.0  0.99374  0.33430  0.68904  1.0000
  C   C743      1.0  0.99976  0.30751  0.59124  1.0000
  C   C744      1.0  0.15567  0.28793  0.79818  1.0000
  H   H1284     1.0  0.18393  0.34167  0.77165  1.0000
  C   C745      1.0  0.02586  0.27375  0.49129  1.0000
  H   H1285     1.0  0.07057  0.30677  0.81778  1.0000
  H   H1286     1.0  0.21127  0.26857  0.81805  1.0000
  C   C746      1.0  0.06406  0.30015  0.52891  1.0000
  S   S169      1.0  0.99991  0.40308  0.63619  1.0000
  H   H1287     1.0  0.06301  0.29039  0.64179  1.0000
  H   H1288     1.0  0.22574  0.37823  0.96284  1.0000
  C   C747      1.0  0.99798  0.30680  0.53780  1.0000
  H   H1289     1.0  0.02867  0.24770  0.85624  1.0000
  S   S170      1.0  0.16863  0.42539  0.90376  1.0000
  H   H1290     1.0  0.21896  0.41089  0.94504  1.0000
  H   H1291     1.0  0.06984  0.47709  0.55807  1.0000
  H   H1292     1.0  0.06386  0.44831  0.59546  1.0000
  H   H1293     1.0  0.09877  0.31267  0.92093  1.0000
  H   H1294     1.0  0.01042  0.25047  0.79494  1.0000
  C   C748      1.0  0.02050  0.46319  0.62304  1.0000
  H   H1295     1.0  0.21763  0.43402  0.96906  1.0000
  H   H1296     1.0  0.12928  0.33253  0.78615  1.0000
  Fe  Fe84      1.0  0.19240  0.42944  0.90252  1.0000
  H   H1297     1.0  0.02783  0.25173  0.53709  1.0000
  H   H1298     1.0  0.05767  0.32928  0.80261  1.0000
  S   S171      1.0  0.03891  0.24234  0.95082  1.0000
  C   C749      1.0  0.09045  0.28688  0.94314  1.0000
  H   H1299     1.0  0.03318  0.27666  0.65651  1.0000
  C   C750      1.0  0.06651  0.47303  0.59040  1.0000
  C   C751      1.0  0.99433  0.24715  0.77346  1.0000
  H   H1300     1.0  0.10806  0.37365  0.78003  1.0000
  H   H1301     1.0  0.16847  0.28378  0.79790  1.0000
  N   N42       1.0  0.04828  0.31280  0.83369  1.0000
  H   H1302     1.0  0.18560  0.32695  0.78935  1.0000
  C   C752      1.0  0.00167  0.27226  0.74347  1.0000
  H   H1303     1.0  0.23321  0.39619  0.97437  1.0000
  H   H1304     1.0  0.00708  0.27816  0.62195  1.0000
  C   C753      1.0  0.15934  0.24094  0.87470  1.0000
  H   H1305     1.0  0.16459  0.32300  0.73972  1.0000
  H   H1306     1.0  0.02055  0.28505  0.54904  1.0000
  C   C754      1.0  0.03504  0.46271  0.60955  1.0000
  H   H1307     1.0  0.09682  0.45468  0.59003  1.0000
  C   C755      1.0  0.22843  0.40944  0.95123  1.0000
  H   H1308     1.0  0.06052  0.27182  0.52870  1.0000
  H   H1309     1.0  0.07489  0.29327  0.52253  1.0000
  C   C756      1.0  0.08645  0.28068  0.97195  1.0000
  H   H1310     1.0  0.02917  0.33322  0.83056  1.0000
  C   C757      1.0  0.20395  0.47785  0.90052  1.0000
  C   C758      1.0  0.21661  0.30309  0.77696  1.0000
  H   H1311     1.0  0.06871  0.28378  0.84331  1.0000
  H   H1312     1.0  0.19984  0.25512  0.84511  1.0000
  H   H1313     1.0  0.00464  0.29195  0.76259  1.0000
  H   H1314     1.0  0.04341  0.29472  0.85474  1.0000
  C   C759      1.0  0.04308  0.27515  0.96286  1.0000
  H   H1315     1.0  0.04809  0.27730  0.54620  1.0000
  H   H1316     1.0  0.23609  0.39678  0.89937  1.0000
  C   C760      1.0  0.23142  0.42905  0.91959  1.0000
  H   H1317     1.0  0.03298  0.33923  0.79293  1.0000
  H   H1318     1.0  0.99976  0.30128  0.68595  1.0000
  H   H1319     1.0  0.11604  0.28364  0.94152  1.0000
  H   H1320     1.0  0.05580  0.27830  0.83503  1.0000
  C   C761      1.0  0.10909  0.30309  0.92332  1.0000
  H   H1321     1.0  0.21282  0.37098  0.90123  1.0000
  Fe  Fe85      1.0  0.99605  0.37870  0.63902  1.0000
  H   H1322     1.0  0.14794  0.47855  0.89288  1.0000
  H   H1323     1.0  0.01515  0.26935  0.51589  1.0000
  H   H1324     1.0  0.10415  0.25239  0.71847  1.0000
  C   C762      1.0  0.21661  0.38671  0.96918  1.0000
  H   H1325     1.0  0.14211  0.32320  0.76296  1.0000
  C   C763      1.0  0.23929  0.43606  0.90285  1.0000
  H   H1326     1.0  0.11922  0.30845  0.92177  1.0000
  C   C764      1.0  0.06539  0.28464  0.83222  1.0000
  S   S172      1.0  0.22328  0.37846  0.92968  1.0000
  S   S173      1.0  0.20086  0.45221  0.89204  1.0000
  C   C765      1.0  0.21777  0.30773  0.91628  1.0000
  C   C766      1.0  0.15474  0.33345  0.74049  1.0000
  C   C767      1.0  0.00685  0.44215  0.60274  1.0000
  H   H1327     1.0  0.04279  0.26360  0.97120  1.0000
  H   H1328     1.0  0.99408  0.31050  0.78026  1.0000
  C   C768      1.0  0.18004  0.33923  0.78464  1.0000
  S   S174      1.0  0.23820  0.27880  0.89063  1.0000
  C   C769      1.0  0.23284  0.28322  0.79546  1.0000
  H   H1329     1.0  0.02110  0.27026  0.75422  1.0000
  C   C770      1.0  0.10555  0.29323  0.94002  1.0000
  H   H1330     1.0  0.04521  0.45568  0.61477  1.0000
  H   H1331     1.0  0.23389  0.43371  0.89435  1.0000
  Fe  Fe86      1.0  0.99161  0.34906  0.66455  1.0000
  H   H1332     1.0  0.21043  0.26401  0.85330  1.0000
  H   H1333     1.0  0.18351  0.34718  0.80381  1.0000
  C   C771      1.0  0.18447  0.46390  0.91831  1.0000
  C   C772      1.0  0.04700  0.47483  0.57450  1.0000
  C   C773      1.0  0.02711  0.26739  0.50847  1.0000
  H   H1334     1.0  0.09665  0.25408  0.93750  1.0000
  H   H1335     1.0  0.08049  0.29727  0.94349  1.0000
  H   H1336     1.0  0.14920  0.28824  0.81047  1.0000
  C   C774      1.0  0.16018  0.23542  0.90230  1.0000
  H   H1337     1.0  0.21957  0.31995  0.91268  1.0000
  H   H1338     1.0  0.18173  0.24857  0.86909  1.0000
  H   H1339     1.0  0.07573  0.47924  0.58236  1.0000
  C   C775      1.0  0.21104  0.25379  0.84852  1.0000
  C   C776      1.0  0.01240  0.26322  0.75530  1.0000
  C   C777      1.0  0.01816  0.42693  0.54546  1.0000
  H   H1340     1.0  0.15402  0.26963  0.85448  1.0000
  C   C778      1.0  0.21930  0.43685  0.95604  1.0000
  H   H1341     1.0  0.08742  0.25371  0.67969  1.0000
  C   C779      1.0  0.21696  0.36611  0.89046  1.0000
  H   H1342     1.0  0.02605  0.27692  0.86057  1.0000
  H   H1343     1.0  0.11160  0.26217  0.96022  1.0000
  H   H1344     1.0  0.06662  0.47390  0.60239  1.0000
  H   H1345     1.0  0.20533  0.30621  0.77305  1.0000
  C   C780      1.0  0.16904  0.25380  0.86994  1.0000
  H   H1346     1.0  0.21240  0.37510  0.88071  1.0000
  H   H1347     1.0  0.21717  0.31279  0.78192  1.0000
  H   H1348     1.0  0.17053  0.23734  0.92854  1.0000
  C   C781      1.0  0.00094  0.28292  0.63263  1.0000
  H   H1349     1.0  0.07606  0.45448  0.57681  1.0000
  C   C782      1.0  0.99201  0.42989  0.56517  1.0000
  H   H1350     1.0  0.23477  0.34081  0.90460  1.0000
  H   H1351     1.0  0.24017  0.24265  0.80653  1.0000
  N   N43       1.0  0.00399  0.25877  0.77223  1.0000
  H   H1352     1.0  0.03455  0.47981  0.57343  1.0000
  H   H1353     1.0  0.06157  0.45507  0.55297  1.0000
  C   C783      1.0  0.05692  0.46754  0.54768  1.0000
  H   H1354     1.0  0.00195  0.31072  0.54636  1.0000
  H   H1355     1.0  0.06422  0.47060  0.53569  1.0000
  C   C784      1.0  0.22310  0.40080  0.96848  1.0000
  H   H1356     1.0  0.04461  0.23754  0.79086  1.0000
  C   C785      1.0  0.02463  0.24195  0.88113  1.0000
  H   H1357     1.0  0.04783  0.46197  0.57814  1.0000
  H   H1358     1.0  0.00298  0.45466  0.60188  1.0000
  H   H1359     1.0  0.09605  0.25316  0.74693  1.0000
  N   N44       1.0  0.05053  0.48104  0.58668  1.0000
  H   H1360     1.0  0.24043  0.23453  0.94995  1.0000
  C   C786      1.0  0.00884  0.24176  0.62514  1.0000
  H   H1361     1.0  0.00351  0.28384  0.71881  1.0000
  H   H1362     1.0  0.22646  0.30184  0.76658  1.0000
  H   H1363     1.0  0.23212  0.29268  0.80140  1.0000
  H   H1364     1.0  0.05503  0.24935  0.80643  1.0000
  H   H1365     1.0  0.00253  0.24335  0.64944  1.0000
  H   H1366     1.0  0.02175  0.46880  0.63195  1.0000
  H   H1367     1.0  0.18959  0.44540  0.97469  1.0000
  N   N45       1.0  0.23281  0.42490  0.94908  1.0000
  H   H1368     1.0  0.99314  0.31123  0.82003  1.0000
  C   C787      1.0  0.99483  0.27190  0.83143  1.0000
  C   C788      1.0  0.99761  0.29880  0.82034  1.0000
  C   C789      1.0  0.00040  0.28724  0.77528  1.0000
  H   H1369     1.0  0.09763  0.28392  0.97130  1.0000
  H   H1370     1.0  0.23564  0.25045  0.83817  1.0000
  H   H1371     1.0  0.03201  0.28360  0.96645  1.0000
  H   H1372     1.0  0.23863  0.40121  0.94555  1.0000
  H   H1373     1.0  0.12367  0.24274  0.72077  1.0000
  H   H1374     1.0  0.00147  0.23759  0.76729  1.0000
  C   C790      1.0  0.05994  0.24003  0.81577  1.0000
  H   H1375     1.0  0.07201  0.25793  0.96739  1.0000
  C   C791      1.0  0.99210  0.33684  0.59923  1.0000
  C   C792      1.0  0.23929  0.43118  0.93184  1.0000
  H   H1376     1.0  0.16852  0.47265  0.89345  1.0000
  H   H1377     1.0  0.16236  0.47192  0.87653  1.0000
  H   H1378     1.0  0.12008  0.23517  0.70028  1.0000
  H   H1379     1.0  0.21310  0.47899  0.88994  1.0000
  C   C793      1.0  0.02763  0.23572  0.64187  1.0000
  H   H1380     1.0  0.16096  0.23629  0.86413  1.0000
  C   C794      1.0  0.03765  0.47948  0.60136  1.0000
  C   C795      1.0  0.02127  0.23853  0.61252  1.0000
  H   H1381     1.0  0.99627  0.23598  0.51815  1.0000
  H   H1382     1.0  0.05030  0.25133  0.55704  1.0000
  S   S175      1.0  0.23984  0.30264  0.84694  1.0000
  H   H1383     1.0  0.04857  0.24927  0.53173  1.0000
  H   H1384     1.0  0.99668  0.42509  0.54134  1.0000
  H   H1385     1.0  0.99270  0.44247  0.56208  1.0000
  H   H1386     1.0  0.02286  0.23498  0.56344  1.0000
  S   S176      1.0  0.24091  0.25783  0.86545  1.0000
  H   H1387     1.0  0.03992  0.48402  0.61055  1.0000
  H   H1388     1.0  0.03002  0.23501  0.65309  1.0000
  C   C796      1.0  0.05659  0.23419  0.72608  1.0000
  Fe  Fe87      1.0  0.01642  0.60530  0.36333  1.0000
  S   S177      1.0  0.01583  0.60390  0.33906  1.0000
  C   C797      1.0  0.23830  0.67894  0.09800  1.0000
  Fe  Fe88      1.0  0.01482  0.64048  0.35400  1.0000
  S   S178      1.0  0.01332  0.64200  0.32943  1.0000
  S   S179      1.0  0.01644  0.66309  0.35837  1.0000
  C   C798      1.0  0.15845  0.51876  0.02914  1.0000
  H   H1389     1.0  0.06982  0.65001  0.41169  1.0000
  Fe  Fe89      1.0  0.03251  0.62038  0.33059  1.0000
  S   S180      1.0  0.05355  0.62002  0.31031  1.0000
  C   C799      1.0  0.00973  0.73220  0.24549  1.0000
  S   S181      1.0  0.03500  0.61972  0.35466  1.0000
  C   C800      1.0  0.02780  0.49667  0.35088  1.0000
  H   H1390     1.0  0.10325  0.72727  0.44323  1.0000
  H   H1391     1.0  0.14314  0.53118  0.99406  1.0000
  Fe  Fe90      1.0  0.02796  0.71467  0.42017  1.0000
  S   S182      1.0  0.03674  0.69120  0.43476  1.0000
  H   H1392     1.0  0.16254  0.69594  0.24211  1.0000
  Fe  Fe91      1.0  0.01528  0.68473  0.43318  1.0000
  S   S183      1.0  0.01671  0.66118  0.42844  1.0000
  Fe  Fe92      1.0  0.02161  0.70115  0.45543  1.0000
  H   H1393     1.0  0.20191  0.69814  0.09401  1.0000
  S   S184      1.0  0.00731  0.70757  0.41724  1.0000
  H   H1394     1.0  0.11163  0.70634  0.99505  1.0000
  H   H1395     1.0  0.02914  0.73057  0.29238  1.0000
  S   S185      1.0  0.99622  0.62634  0.36488  1.0000
  C   C801      1.0  0.06667  0.65928  0.37998  1.0000
  S   S186      1.0  0.19807  0.55614  0.05072  1.0000
  C   C802      1.0  0.10605  0.69719  0.19174  1.0000
  H   H1396     1.0  0.08725  0.72817  0.15472  1.0000
  H   H1397     1.0  0.09844  0.66985  0.15782  1.0000
  H   H1398     1.0  0.15234  0.49787  0.02836  1.0000
  S   S187      1.0  0.19254  0.57519  0.08646  1.0000
  H   H1399     1.0  0.14049  0.49512  0.00787  1.0000
  C   C803      1.0  0.01498  0.61055  0.29453  1.0000
  C   C804      1.0  0.18961  0.58196  0.98436  1.0000
  H   H1400     1.0  0.09192  0.72672  0.29360  1.0000
  C   C805      1.0  0.23300  0.69499  0.10240  1.0000
  Fe  Fe93      1.0  0.99435  0.71574  0.43934  1.0000
  H   H1401     1.0  0.03526  0.70454  0.34587  1.0000
  Fe  Fe94      1.0  0.02252  0.70602  0.20144  1.0000
  C   C806      1.0  0.23895  0.58461  0.07516  1.0000
  S   S188      1.0  0.03402  0.69147  0.22126  1.0000
  H   H1402     1.0  0.14236  0.51553  0.01745  1.0000
  Fe  Fe95      1.0  0.02939  0.71344  0.16598  1.0000
  S   S189      1.0  0.04909  0.70678  0.14609  1.0000
  C   C807      1.0  0.17047  0.68423  0.24167  1.0000
  S   S190      1.0  0.01993  0.69405  0.18412  1.0000
  C   C808      1.0  0.22127  0.62139  0.14245  1.0000
  C   C809      1.0  0.05834  0.73379  0.34376  1.0000
  C   C810      1.0  0.20126  0.56633  0.13290  1.0000
  H   H1403     1.0  0.05355  0.66490  0.41854  1.0000
  H   H1404     1.0  0.22793  0.57256  0.98465  1.0000
  H   H1405     1.0  0.02693  0.52802  0.34856  1.0000
  H   H1406     1.0  0.06464  0.49903  0.44255  1.0000
  H   H1407     1.0  0.01380  0.56544  0.44252  1.0000
  H   H1408     1.0  0.03014  0.50642  0.46239  1.0000
  H   H1409     1.0  0.07378  0.68091  0.43044  1.0000
  C   C811      1.0  0.08399  0.68221  0.18336  1.0000
  Fe  Fe96      1.0  0.10234  0.68359  0.27523  1.0000
  S   S191      1.0  0.12876  0.67773  0.27156  1.0000
  S   S192      1.0  0.08477  0.67810  0.29813  1.0000
  Fe  Fe97      1.0  0.10279  0.70359  0.24223  1.0000
  S   S193      1.0  0.12902  0.69985  0.23581  1.0000
  S   S194      1.0  0.08822  0.72020  0.22542  1.0000
  Fe  Fe98      1.0  0.12851  0.67478  0.24773  1.0000
  S   S195      1.0  0.14639  0.65683  0.23540  1.0000
  Fe  Fe99      1.0  0.12722  0.70320  0.25988  1.0000
  H   H1410     1.0  0.18848  0.61901  0.03326  1.0000
  S   S196      1.0  0.10226  0.67815  0.25255  1.0000
  S   S197      1.0  0.10088  0.70943  0.26521  1.0000
  C   C812      1.0  0.19127  0.56020  0.00687  1.0000
  C   C813      1.0  0.18208  0.55811  0.98486  1.0000
  H   H1411     1.0  0.20621  0.67885  0.18223  1.0000
  H   H1412     1.0  0.10389  0.67048  0.34551  1.0000
  S   S198      1.0  0.00084  0.69234  0.45531  1.0000
  N   N46       1.0  0.09024  0.69605  0.17240  1.0000
  H   H1413     1.0  0.04204  0.54293  0.45532  1.0000
  H   H1414     1.0  0.02771  0.50001  0.36182  1.0000
  S   S199      1.0  0.11338  0.70433  0.06407  1.0000
  C   C814      1.0  0.00498  0.70347  0.13038  1.0000
  H   H1415     1.0  0.01051  0.57464  0.36031  1.0000
  Fe  Fe100     1.0  0.15653  0.65530  0.15200  1.0000
  S   S200      1.0  0.16224  0.67827  0.15032  1.0000
  S   S201      1.0  0.13574  0.65038  0.17148  1.0000
  H   H1416     1.0  0.19399  0.55507  0.01834  1.0000
  C   C815      1.0  0.11388  0.65878  0.99570  1.0000
  H   H1417     1.0  0.12673  0.65143  0.06120  1.0000
  H   H1418     1.0  0.18587  0.63710  0.04991  1.0000
  Fe  Fe101     1.0  0.16214  0.68226  0.12489  1.0000
  S   S202      1.0  0.15173  0.70603  0.11176  1.0000
  H   H1419     1.0  0.15688  0.66863  0.09049  1.0000
  S   S203      1.0  0.15500  0.66003  0.12670  1.0000
  H   H1420     1.0  0.18334  0.60918  0.05355  1.0000
  C   C816      1.0  0.12355  0.70512  0.07755  1.0000
  C   C817      1.0  0.12500  0.69282  0.09070  1.0000
  C   C818      1.0  0.13348  0.69317  0.10135  1.0000
  C   C819      1.0  0.14062  0.70574  0.09882  1.0000
  C   C820      1.0  0.13889  0.71821  0.08580  1.0000
  C   C821      1.0  0.13035  0.71790  0.07518  1.0000
  H   H1421     1.0  0.11931  0.68319  0.09280  1.0000
  H   H1422     1.0  0.13424  0.68384  0.11164  1.0000
  H   H1423     1.0  0.16661  0.71454  0.15658  1.0000
  H   H1424     1.0  0.00519  0.69398  0.33282  1.0000
  C   C822      1.0  0.13850  0.65201  0.18938  1.0000
  C   C823      1.0  0.12553  0.65657  0.20111  1.0000
  C   C824      1.0  0.12778  0.65855  0.21514  1.0000
  C   C825      1.0  0.14301  0.65514  0.21779  1.0000
  C   C826      1.0  0.15588  0.64997  0.20630  1.0000
  C   C827      1.0  0.15369  0.64886  0.19195  1.0000
  H   H1425     1.0  0.11376  0.65876  0.19927  1.0000
  H   H1426     1.0  0.11777  0.66229  0.22406  1.0000
  H   H1427     1.0  0.16756  0.64670  0.20857  1.0000
  C   C828      1.0  0.99247  0.69529  0.33842  1.0000
  H   H1428     1.0  0.04740  0.52307  0.43011  1.0000
  C   C829      1.0  0.12417  0.71539  0.29312  1.0000
  C   C830      1.0  0.11812  0.71979  0.30763  1.0000
  H   H1429     1.0  0.10598  0.65038  0.00120  1.0000
  S   S204      1.0  0.01556  0.48436  0.45835  1.0000
  H   H1430     1.0  0.16617  0.70113  0.21311  1.0000
  H   H1431     1.0  0.11995  0.70647  0.29062  1.0000
  H   H1432     1.0  0.10919  0.71430  0.31618  1.0000
  H   H1433     1.0  0.10940  0.68860  0.35928  1.0000
  H   H1434     1.0  0.20800  0.52350  0.02845  1.0000
  H   H1435     1.0  0.17034  0.64383  0.03925  1.0000
  H   H1436     1.0  0.20697  0.62627  0.07412  1.0000
  C   C831      1.0  0.04291  0.69740  0.33732  1.0000
  C   C832      1.0  0.04994  0.72181  0.12915  1.0000
  C   C833      1.0  0.06036  0.71888  0.11516  1.0000
  H   H1437     1.0  0.23891  0.49446  0.01157  1.0000
  H   H1438     1.0  0.03814  0.72344  0.21311  1.0000
  C   C834      1.0  0.10170  0.68094  0.13342  1.0000
  H   H1439     1.0  0.04480  0.70519  0.32544  1.0000
  H   H1440     1.0  0.06797  0.70738  0.11488  1.0000
  H   H1441     1.0  0.05700  0.72243  0.24938  1.0000
  C   C835      1.0  0.14083  0.52411  0.98705  1.0000
  H   H1442     1.0  0.04112  0.57111  0.45261  1.0000
  C   C836      1.0  0.04963  0.69945  0.22105  1.0000
  C   C837      1.0  0.04864  0.71567  0.21648  1.0000
  C   C838      1.0  0.06086  0.72197  0.21720  1.0000
  C   C839      1.0  0.07401  0.71206  0.22264  1.0000
  C   C840      1.0  0.07534  0.69582  0.22636  1.0000
  C   C841      1.0  0.06317  0.68955  0.22558  1.0000
  C   C842      1.0  0.08423  0.72650  0.16771  1.0000
  N   N47       1.0  0.16299  0.49971  0.99364  1.0000
  H   H1443     1.0  0.08583  0.68806  0.22958  1.0000
  H   H1444     1.0  0.06439  0.67701  0.22820  1.0000
  S   S205      1.0  0.18781  0.67201  0.11833  1.0000
  C   C843      1.0  0.23674  0.62156  0.99671  1.0000
  H   H1445     1.0  0.01484  0.70262  0.11996  1.0000
  H   H1446     1.0  0.00690  0.54163  0.47582  1.0000
  C   C844      1.0  0.22967  0.53740  0.98171  1.0000
  Fe  Fe102     1.0  0.18087  0.64911  0.12220  1.0000
  H   H1447     1.0  0.17023  0.68530  0.18599  1.0000
  Fe  Fe103     1.0  0.99640  0.71067  0.18457  1.0000
  H   H1448     1.0  0.07628  0.68919  0.36649  1.0000
  H   H1449     1.0  0.05897  0.65193  0.34725  1.0000
  C   C845      1.0  0.19165  0.59364  0.09002  1.0000
  H   H1450     1.0  0.10127  0.71194  0.43535  1.0000
  C   C846      1.0  0.16313  0.67144  0.07804  1.0000
  H   H1451     1.0  0.22357  0.51545  0.99372  1.0000
  C   C847      1.0  0.18446  0.61080  0.10861  1.0000
  C   C848      1.0  0.18364  0.59710  0.10473  1.0000
  H   H1452     1.0  0.07459  0.71037  0.18848  1.0000
  H   H1453     1.0  0.14237  0.64606  0.04512  1.0000
  H   H1454     1.0  0.17866  0.61316  0.12013  1.0000
  H   H1455     1.0  0.17709  0.58897  0.11330  1.0000
  H   H1456     1.0  0.18973  0.69336  0.22583  1.0000
  C   C849      1.0  0.00098  0.65887  0.24220  1.0000
  H   H1457     1.0  0.23499  0.58748  0.12876  1.0000
  H   H1458     1.0  0.19352  0.50605  0.98321  1.0000
  C   C850      1.0  0.10242  0.68050  0.15018  1.0000
  H   H1459     1.0  0.16787  0.73028  0.11344  1.0000
  H   H1460     1.0  0.06447  0.69904  0.34157  1.0000
  C   C851      1.0  0.02254  0.62155  0.28008  1.0000
  H   H1461     1.0  0.16336  0.67555  0.24304  1.0000
  H   H1462     1.0  0.13146  0.68832  0.18906  1.0000
  C   C852      1.0  0.06091  0.73079  0.10146  1.0000
  C   C853      1.0  0.00542  0.65694  0.25783  1.0000
  S   S206      1.0  0.04486  0.72257  0.39759  1.0000
  C   C854      1.0  0.03526  0.51661  0.45507  1.0000
  S   S207      1.0  0.19987  0.58645  0.00824  1.0000
  H   H1463     1.0  0.11422  0.69400  0.33820  1.0000
  C   C855      1.0  0.20849  0.48574  0.02798  1.0000
  C   C856      1.0  0.12764  0.66889  0.03971  1.0000
  H   H1464     1.0  0.02762  0.63416  0.29422  1.0000
  H   H1465     1.0  0.01651  0.50957  0.33083  1.0000
  H   H1466     1.0  0.19588  0.71488  0.16814  1.0000
  H   H1467     1.0  0.10975  0.67037  0.12954  1.0000
  H   H1468     1.0  0.06498  0.68048  0.45096  1.0000
  H   H1469     1.0  0.08047  0.69803  0.15246  1.0000
  H   H1470     1.0  0.03165  0.67994  0.30456  1.0000
  H   H1471     1.0  0.06844  0.72522  0.34812  1.0000
  C   C857      1.0  0.03193  0.54506  0.44974  1.0000
  H   H1472     1.0  0.23914  0.59876  0.05152  1.0000
  C   C858      1.0  0.12223  0.69840  0.19268  1.0000
  H   H1473     1.0  0.01506  0.48549  0.33273  1.0000
  H   H1474     1.0  0.15336  0.62857  0.06488  1.0000
  C   C859      1.0  0.06259  0.63585  0.30726  1.0000
  C   C860      1.0  0.05577  0.64758  0.31588  1.0000
  C   C861      1.0  0.06255  0.66058  0.31279  1.0000
  C   C862      1.0  0.07636  0.66185  0.30125  1.0000
  C   C863      1.0  0.08327  0.65010  0.29265  1.0000
  C   C864      1.0  0.07641  0.63710  0.29570  1.0000
  H   H1475     1.0  0.04520  0.64672  0.32492  1.0000
  H   H1476     1.0  0.05703  0.66965  0.31939  1.0000
  H   H1477     1.0  0.09400  0.65092  0.28380  1.0000
  H   H1478     1.0  0.08183  0.62799  0.28908  1.0000
  C   C865      1.0  0.01742  0.66197  0.37767  1.0000
  C   C866      1.0  0.01856  0.67539  0.38165  1.0000
  C   C867      1.0  0.01865  0.67507  0.39714  1.0000
  C   C868      1.0  0.01745  0.66141  0.40879  1.0000
  C   C869      1.0  0.01686  0.64779  0.40471  1.0000
  C   C870      1.0  0.01683  0.64807  0.38913  1.0000
  H   H1479     1.0  0.01933  0.68608  0.37277  1.0000
  H   H1480     1.0  0.01985  0.68536  0.39998  1.0000
  H   H1481     1.0  0.01611  0.63713  0.41366  1.0000
  H   H1482     1.0  0.01606  0.63762  0.38609  1.0000
  H   H1483     1.0  0.15936  0.64143  0.10131  1.0000
  N   N48       1.0  0.99174  0.73270  0.12046  1.0000
  H   H1484     1.0  0.18540  0.66912  0.08426  1.0000
  C   C871      1.0  0.01028  0.56535  0.37075  1.0000
  H   H1485     1.0  0.10973  0.73187  0.10479  1.0000
  N   N49       1.0  0.02935  0.64919  0.27091  1.0000
  C   C872      1.0  0.04695  0.64305  0.26751  1.0000
  H   H1486     1.0  0.23763  0.64335  0.13729  1.0000
  H   H1487     1.0  0.04958  0.48809  0.44603  1.0000
  C   C873      1.0  0.02502  0.66457  0.27610  1.0000
  C   C874      1.0  0.03288  0.66491  0.28914  1.0000
  C   C875      1.0  0.05661  0.65394  0.25443  1.0000
  C   C876      1.0  0.17905  0.61889  0.04413  1.0000
  C   C877      1.0  0.05854  0.65789  0.40935  1.0000
  C   C878      1.0  0.07186  0.73341  0.38520  1.0000
  H   H1488     1.0  0.12076  0.72652  0.41712  1.0000
  C   C879      1.0  0.07429  0.64766  0.25325  1.0000
  H   H1489     1.0  0.03925  0.57372  0.43258  1.0000
  H   H1490     1.0  0.05000  0.63175  0.26370  1.0000
  H   H1491     1.0  0.05156  0.64016  0.27838  1.0000
  C   C880      1.0  0.01568  0.53077  0.47376  1.0000
  H   H1492     1.0  0.23425  0.68050  0.14998  1.0000
  H   H1493     1.0  0.03259  0.51214  0.43322  1.0000
  H   H1494     1.0  0.02838  0.66138  0.24694  1.0000
  H   H1495     1.0  0.02774  0.67439  0.26596  1.0000
  H   H1496     1.0  0.10343  0.72944  0.12593  1.0000
  H   H1497     1.0  0.04549  0.66516  0.28427  1.0000
  C   C881      1.0  0.02188  0.63733  0.28406  1.0000
  H   H1498     1.0  0.05428  0.65459  0.24285  1.0000
  H   H1499     1.0  0.05367  0.66599  0.25654  1.0000
  H   H1500     1.0  0.08991  0.68658  0.33715  1.0000
  H   H1501     1.0  0.04022  0.49517  0.34406  1.0000
  C   C882      1.0  0.15002  0.63705  0.09920  1.0000
  C   C883      1.0  0.12321  0.73152  0.31095  1.0000
  H   H1502     1.0  0.00480  0.54954  0.36017  1.0000
  C   C884      1.0  0.14360  0.64762  0.08467  1.0000
  H   H1503     1.0  0.00085  0.66843  0.26134  1.0000
  H   H1504     1.0  0.15490  0.62481  0.09765  1.0000
  H   H1505     1.0  0.03485  0.61537  0.27622  1.0000
  H   H1506     1.0  0.03714  0.52335  0.32965  1.0000
  H   H1507     1.0  0.07784  0.63530  0.25184  1.0000
  H   H1508     1.0  0.08093  0.65491  0.24296  1.0000
  H   H1509     1.0  0.07760  0.64833  0.26389  1.0000
  H   H1510     1.0  0.22096  0.61835  0.03699  1.0000
  C   C885      1.0  0.99445  0.54355  0.45245  1.0000
  H   H1511     1.0  0.01568  0.53775  0.43458  1.0000
  Fe  Fe104     1.0  0.20770  0.56751  0.06417  1.0000
  C   C886      1.0  0.22684  0.63181  0.12654  1.0000
  H   H1512     1.0  0.20540  0.60221  0.06734  1.0000
  H   H1513     1.0  0.06529  0.72676  0.26262  1.0000
  H   H1514     1.0  0.18334  0.68183  0.06531  1.0000
  H   H1515     1.0  0.99364  0.73087  0.39028  1.0000
  C   C887      1.0  0.22532  0.69002  0.14546  1.0000
  Fe  Fe105     1.0  0.20967  0.57172  0.02927  1.0000
  C   C888      1.0  0.13692  0.63646  0.11404  1.0000
  H   H1516     1.0  0.17772  0.71613  0.08741  1.0000
  H   H1517     1.0  0.10841  0.66973  0.00018  1.0000
  H   H1518     1.0  0.07128  0.62572  0.34216  1.0000
  H   H1519     1.0  0.23317  0.61004  0.06658  1.0000
  H   H1520     1.0  0.21672  0.62841  0.15169  1.0000
  H   H1521     1.0  0.06456  0.63862  0.36459  1.0000
  H   H1522     1.0  0.05059  0.68683  0.36669  1.0000
  H   H1523     1.0  0.99609  0.69321  0.36147  1.0000
  H   H1524     1.0  0.19786  0.55796  0.14411  1.0000
  H   H1525     1.0  0.05015  0.65061  0.41022  1.0000
  H   H1526     1.0  0.18858  0.69720  0.13874  1.0000
  H   H1527     1.0  0.06902  0.72847  0.09069  1.0000
  H   H1528     1.0  0.01503  0.68013  0.14250  1.0000
  C   C889      1.0  0.01109  0.53336  0.44735  1.0000
  H   H1529     1.0  0.11417  0.68386  0.17374  1.0000
  C   C890      1.0  0.06911  0.64524  0.35269  1.0000
  C   C891      1.0  0.22808  0.70530  0.13997  1.0000
  C   C892      1.0  0.00668  0.53892  0.38418  1.0000
  C   C893      1.0  0.06119  0.66884  0.39312  1.0000
  S   S208      1.0  0.19601  0.63766  0.10221  1.0000
  H   H1530     1.0  0.16983  0.51264  0.03258  1.0000
  S   S209      1.0  0.03390  0.72420  0.18317  1.0000
  H   H1531     1.0  0.20339  0.63707  0.19891  1.0000
  H   H1532     1.0  0.03389  0.72190  0.24563  1.0000
  H   H1533     1.0  0.11492  0.67926  0.15038  1.0000
  C   C894      1.0  0.15725  0.71329  0.16747  1.0000
  H   H1534     1.0  0.08146  0.68337  0.19576  1.0000
  H   H1535     1.0  0.02437  0.69020  0.28697  1.0000
  H   H1536     1.0  0.09003  0.67150  0.37201  1.0000
  Fe  Fe106     1.0  0.18727  0.66559  0.14400  1.0000
  C   C895      1.0  0.07918  0.65644  0.35308  1.0000
  H   H1537     1.0  0.18396  0.53992  0.00579  1.0000
  C   C896      1.0  0.19319  0.62115  0.09768  1.0000
  C   C897      1.0  0.19955  0.60451  0.07883  1.0000
  H   H1538     1.0  0.06110  0.66726  0.20488  1.0000
  C   C898      1.0  0.09301  0.72505  0.00288  1.0000
  H   H1539     1.0  0.15945  0.53061  0.02175  1.0000
  H   H1540     1.0  0.00932  0.53169  0.40819  1.0000
  H   H1541     1.0  0.99315  0.71285  0.34978  1.0000
  H   H1542     1.0  0.11193  0.70429  0.16614  1.0000
  H   H1543     1.0  0.05888  0.69026  0.18238  1.0000
  H   H1544     1.0  0.20716  0.67605  0.20207  1.0000
  C   C899      1.0  0.02352  0.65187  0.25613  1.0000
  C   C900      1.0  0.06335  0.66565  0.19268  1.0000
  H   H1545     1.0  0.21503  0.64980  0.18437  1.0000
  C   C901      1.0  0.16273  0.63438  0.06483  1.0000
  H   H1546     1.0  0.09006  0.64900  0.35695  1.0000
  H   H1547     1.0  0.15599  0.66628  0.04666  1.0000
  H   H1548     1.0  0.17275  0.68838  0.08317  1.0000
  H   H1549     1.0  0.21165  0.61639  0.14177  1.0000
  C   C902      1.0  0.05878  0.68956  0.34184  1.0000
  H   H1550     1.0  0.09657  0.70473  0.34890  1.0000
  H   H1551     1.0  0.08320  0.66224  0.34064  1.0000
  H   H1552     1.0  0.16916  0.62615  0.07375  1.0000
  C   C903      1.0  0.19890  0.67753  0.19441  1.0000
  H   H1553     1.0  0.15415  0.70991  0.19246  1.0000
  C   C904      1.0  0.99194  0.48827  0.35688  1.0000
  H   H1554     1.0  0.18638  0.65936  0.21009  1.0000
  H   H1555     1.0  0.11970  0.66431  0.03554  1.0000
  N   N50       1.0  0.02329  0.53181  0.45652  1.0000
  H   H1556     1.0  0.12041  0.67866  0.04550  1.0000
  C   C905      1.0  0.17485  0.63471  0.04890  1.0000
  C   C906      1.0  0.03266  0.57377  0.44489  1.0000
  C   C907      1.0  0.02212  0.56185  0.45050  1.0000
  C   C908      1.0  0.10434  0.69290  0.34862  1.0000
  H   H1557     1.0  0.16375  0.64508  0.18308  1.0000
  C   C909      1.0  0.18554  0.55164  0.99977  1.0000
  Fe  Fe107     1.0  0.00237  0.48647  0.43973  1.0000
  C   C910      1.0  0.01292  0.55529  0.39775  1.0000
  H   H1558     1.0  0.07505  0.72486  0.37794  1.0000
  S   S210      1.0  0.20772  0.66797  0.15195  1.0000
  C   C911      1.0  0.21915  0.50283  0.04319  1.0000
  C   C912      1.0  0.00947  0.54107  0.39779  1.0000
  C   C913      1.0  0.13595  0.65574  0.05129  1.0000
  H   H1559     1.0  0.16768  0.68132  0.21314  1.0000
  C   C914      1.0  0.05338  0.73290  0.44946  1.0000
  H   H1560     1.0  0.23491  0.63009  0.02511  1.0000
  C   C915      1.0  0.20045  0.61812  0.08271  1.0000
  H   H1561     1.0  0.13454  0.64215  0.08348  1.0000
  Fe  Fe108     1.0  0.99889  0.50323  0.40628  1.0000
  S   S211      1.0  0.14179  0.71824  0.26308  1.0000
  H   H1562     1.0  0.08419  0.63878  0.33100  1.0000
  C   C916      1.0  0.01091  0.69225  0.14458  1.0000
  H   H1563     1.0  0.15192  0.70342  0.16816  1.0000
  H   H1564     1.0  0.19066  0.67309  0.22663  1.0000
  H   H1565     1.0  0.22069  0.54984  0.12330  1.0000
  C   C917      1.0  0.20530  0.50226  0.02398  1.0000
  Fe  Fe109     1.0  0.09985  0.72855  0.05547  1.0000
  C   C918      1.0  0.07890  0.63301  0.34308  1.0000
  H   H1566     1.0  0.99313  0.49846  0.34692  1.0000
  H   H1567     1.0  0.12769  0.63118  0.11292  1.0000
  H   H1568     1.0  0.23449  0.70443  0.09165  1.0000
  C   C919      1.0  0.00702  0.55110  0.37071  1.0000
  H   H1569     1.0  0.13633  0.67353  0.02936  1.0000
  C   C920      1.0  0.19179  0.73110  0.09050  1.0000
  C   C921      1.0  0.17707  0.67804  0.07762  1.0000
  H   H1570     1.0  0.02798  0.64125  0.25097  1.0000
  H   H1571     1.0  0.06313  0.70319  0.46200  1.0000
  C   C922      1.0  0.05661  0.67882  0.35847  1.0000
  H   H1572     1.0  0.16863  0.61649  0.04178  1.0000
  H   H1573     1.0  0.12213  0.69832  0.20498  1.0000
  C   C923      1.0  0.17490  0.68995  0.21187  1.0000
  H   H1574     1.0  0.01557  0.56272  0.46262  1.0000
  C   C924      1.0  0.22234  0.48633  0.04717  1.0000
  C   C925      1.0  0.14734  0.66171  0.05714  1.0000
  H   H1575     1.0  0.04798  0.67173  0.35954  1.0000
  H   H1576     1.0  0.04997  0.67744  0.39194  1.0000
  C   C926      1.0  0.13547  0.72263  0.28183  1.0000
  C   C927      1.0  0.10123  0.71502  0.99254  1.0000
  H   H1577     1.0  0.08157  0.70565  0.42744  1.0000
  N   N51       1.0  0.15559  0.65003  0.06940  1.0000
  H   H1578     1.0  0.14187  0.62914  0.12433  1.0000
  C   C928      1.0  0.19352  0.66188  0.19797  1.0000
  H   H1579     1.0  0.22292  0.66400  0.11269  1.0000
  H   H1580     1.0  0.16883  0.72078  0.18072  1.0000
  C   C929      1.0  0.08281  0.67784  0.36305  1.0000
  C   C930      1.0  0.23193  0.61296  0.01398  1.0000
  H   H1581     1.0  0.01615  0.62339  0.27068  1.0000
  H   H1582     1.0  0.00888  0.52156  0.44832  1.0000
  H   H1583     1.0  0.01010  0.72726  0.23542  1.0000
  H   H1584     1.0  0.08604  0.72111  0.46599  1.0000
  C   C931      1.0  0.10610  0.69535  0.17520  1.0000
  C   C932      1.0  0.19313  0.57544  0.99926  1.0000
  H   H1585     1.0  0.01510  0.59953  0.29137  1.0000
  C   C933      1.0  0.19958  0.69941  0.13913  1.0000
  S   S212      1.0  0.18180  0.64199  0.14783  1.0000
  C   C934      1.0  0.00549  0.48941  0.47653  1.0000
  C   C935      1.0  0.22424  0.57343  0.11104  1.0000
  C   C936      1.0  0.07437  0.68450  0.44100  1.0000
  H   H1586     1.0  0.19310  0.72432  0.12992  1.0000
  H   H1587     1.0  0.01278  0.67841  0.30298  1.0000
  H   H1588     1.0  0.08955  0.68106  0.13288  1.0000
  H   H1589     1.0  0.07246  0.65476  0.19130  1.0000
  C   C937      1.0  0.02490  0.67930  0.29630  1.0000
  C   C938      1.0  0.05455  0.49822  0.43832  1.0000
  C   C939      1.0  0.20218  0.71474  0.13406  1.0000
  H   H1590     1.0  0.21671  0.64148  0.12394  1.0000
  S   S213      1.0  0.21744  0.58425  0.04290  1.0000
  H   H1591     1.0  0.21761  0.57326  0.10247  1.0000
  H   H1592     1.0  0.22377  0.60696  0.98335  1.0000
  H   H1593     1.0  0.22648  0.58399  0.07792  1.0000
  S   S214      1.0  0.23256  0.55429  0.02575  1.0000
  H   H1594     1.0  0.05671  0.65375  0.38118  1.0000
  H   H1595     1.0  0.10285  0.68690  0.20086  1.0000
  H   H1596     1.0  0.05226  0.66433  0.19069  1.0000
  C   C940      1.0  0.21885  0.56144  0.12611  1.0000
  H   H1597     1.0  0.19882  0.50850  0.01488  1.0000
  H   H1598     1.0  0.14799  0.72428  0.16678  1.0000
  H   H1599     1.0  0.14803  0.48556  0.99201  1.0000
  H   H1600     1.0  0.04555  0.51600  0.45984  1.0000
  H   H1601     1.0  0.06773  0.71209  0.17153  1.0000
  H   H1602     1.0  0.19409  0.72422  0.10221  1.0000
  H   H1603     1.0  0.13148  0.64844  0.11626  1.0000
  C   C941      1.0  0.15626  0.51271  0.98119  1.0000
  H   H1604     1.0  0.03687  0.68837  0.33704  1.0000
  H   H1605     1.0  0.09761  0.70788  0.19480  1.0000
  H   H1606     1.0  0.09306  0.67110  0.18287  1.0000
  C   C942      1.0  0.02546  0.52554  0.33776  1.0000
  H   H1607     1.0  0.07021  0.67786  0.16889  1.0000
  C   C943      1.0  0.04896  0.71204  0.27394  1.0000
  C   C944      1.0  0.07859  0.71092  0.17561  1.0000
  C   C945      1.0  0.16856  0.65655  0.07101  1.0000
  C   C946      1.0  0.21108  0.68708  0.14503  1.0000
  C   C947      1.0  0.05936  0.69640  0.27062  1.0000
  H   H1608     1.0  0.18651  0.66226  0.18953  1.0000
  H   H1609     1.0  0.17638  0.68062  0.25173  1.0000
  C   C948      1.0  0.09215  0.69572  0.15542  1.0000
  C   C949      1.0  0.06860  0.67986  0.18082  1.0000
  H   H1610     1.0  0.19439  0.56607  0.12458  1.0000
  H   H1611     1.0  0.23009  0.62460  0.11756  1.0000
  C   C950      1.0  0.07208  0.70236  0.43761  1.0000
  H   H1612     1.0  0.03666  0.71149  0.27505  1.0000
  H   H1613     1.0  0.05048  0.71309  0.28533  1.0000
  H   H1614     1.0  0.21485  0.64676  0.20505  1.0000
  C   C951      1.0  0.16401  0.71043  0.18196  1.0000
  H   H1615     1.0  0.03221  0.65444  0.29882  1.0000
  H   H1616     1.0  0.12508  0.70957  0.18506  1.0000
  Fe  Fe110     1.0  0.22179  0.53953  0.04834  1.0000
  H   H1617     1.0  0.03732  0.54546  0.43707  1.0000
  H   H1618     1.0  0.09764  0.70546  0.14754  1.0000
  C   C952      1.0  0.20762  0.64807  0.19647  1.0000
  H   H1619     1.0  0.05715  0.69389  0.26019  1.0000
  H   H1620     1.0  0.07197  0.69661  0.26849  1.0000
  H   H1621     1.0  0.05684  0.68679  0.28093  1.0000
  C   C953      1.0  0.04195  0.51345  0.43820  1.0000
  N   N52       1.0  0.07135  0.66831  0.36329  1.0000
  H   H1622     1.0  0.13698  0.65911  0.08762  1.0000
  C   C954      1.0  0.17664  0.69487  0.18353  1.0000
  S   S215      1.0  0.23067  0.54962  0.06355  1.0000
  H   H1623     1.0  0.14023  0.67229  0.06175  1.0000
  H   H1624     1.0  0.20163  0.70255  0.20187  1.0000
  H   H1625     1.0  0.00134  0.69220  0.15534  1.0000
  H   H1626     1.0  0.00606  0.51464  0.34955  1.0000
  H   H1627     1.0  0.06605  0.68296  0.33277  1.0000
  H   H1628     1.0  0.15521  0.68090  0.07139  1.0000
  H   H1629     1.0  0.10531  0.69156  0.12522  1.0000
  H   H1630     1.0  0.23783  0.55379  0.09319  1.0000
  H   H1631     1.0  0.07665  0.64947  0.38306  1.0000
  C   C955      1.0  0.09521  0.68147  0.34757  1.0000
  H   H1632     1.0  0.22241  0.60700  0.01499  1.0000
  H   H1633     1.0  0.18467  0.69429  0.17185  1.0000
  H   H1634     1.0  0.12431  0.73209  0.00078  1.0000
  S   S216      1.0  0.01768  0.58511  0.38462  1.0000
  H   H1635     1.0  0.00934  0.64245  0.28881  1.0000
  C   C956      1.0  0.21052  0.51080  0.03161  1.0000
  H   H1636     1.0  0.01783  0.53610  0.33190  1.0000
  H   H1637     1.0  0.17630  0.64749  0.07825  1.0000
  H   H1638     1.0  0.06992  0.67540  0.39294  1.0000
  H   H1639     1.0  0.08845  0.62514  0.34884  1.0000
  H   H1640     1.0  0.17644  0.65962  0.05933  1.0000
  H   H1641     1.0  0.08602  0.67866  0.44393  1.0000
  N   N53       1.0  0.18594  0.69199  0.19592  1.0000
  H   H1642     1.0  0.23614  0.64436  0.09622  1.0000
  S   S217      1.0  0.01424  0.72540  0.44095  1.0000
  H   H1643     1.0  0.01208  0.66779  0.28059  1.0000
  C   C957      1.0  0.01784  0.51141  0.34193  1.0000
  C   C958      1.0  0.05391  0.72591  0.26086  1.0000
  H   H1644     1.0  0.23911  0.70750  0.14028  1.0000
  H   H1645     1.0  0.23099  0.61156  0.14583  1.0000
  H   H1646     1.0  0.08371  0.70133  0.45597  1.0000
  H   H1647     1.0  0.04514  0.72669  0.45910  1.0000
  C   C959      1.0  0.01335  0.56745  0.38423  1.0000
  S   S218      1.0  0.22670  0.51293  0.05255  1.0000
  H   H1648     1.0  0.24025  0.69577  0.11011  1.0000
  C   C960      1.0  0.15391  0.50923  0.02021  1.0000
  S   S219      1.0  0.00295  0.52110  0.38352  1.0000
  C   C961      1.0  0.21645  0.71770  0.13440  1.0000
  H   H1649     1.0  0.12538  0.65368  0.99918  1.0000
  H   H1650     1.0  0.21975  0.58542  0.11354  1.0000
  H   H1651     1.0  0.06068  0.70770  0.43405  1.0000
  C   C962      1.0  0.20313  0.71117  0.17712  1.0000
  H   H1652     1.0  0.01543  0.55686  0.40814  1.0000
  C   C963      1.0  0.07247  0.70776  0.45230  1.0000
  H   H1653     1.0  0.00491  0.64757  0.23827  1.0000
  H   H1654     1.0  0.17072  0.51764  0.99931  1.0000
  H   H1655     1.0  0.21322  0.70164  0.17383  1.0000
  H   H1656     1.0  0.18441  0.71591  0.19738  1.0000
  C   C964      1.0  0.20205  0.70508  0.08181  1.0000
  H   H1657     1.0  0.99532  0.69917  0.12879  1.0000
  C   C965      1.0  0.07409  0.72801  0.46458  1.0000
  C   C966      1.0  0.23481  0.66540  0.11234  1.0000
  H   H1658     1.0  0.22906  0.48952  0.99148  1.0000
  H   H1659     1.0  0.00645  0.66795  0.23299  1.0000
  H   H1660     1.0  0.01021  0.72369  0.13374  1.0000
  H   H1661     1.0  0.05106  0.73159  0.43853  1.0000
  C   C967      1.0  0.19341  0.70562  0.19383  1.0000
  H   H1662     1.0  0.01771  0.72734  0.47446  1.0000
  H   H1663     1.0  0.99930  0.64819  0.26672  1.0000
  H   H1664     1.0  0.09707  0.72408  0.01333  1.0000
  H   H1665     1.0  0.14928  0.52020  0.03998  1.0000
  C   C968      1.0  0.16687  0.50640  0.00531  1.0000
  C   C969      1.0  0.18277  0.68490  0.22622  1.0000
  C   C970      1.0  0.18898  0.71989  0.08183  1.0000
  H   H1666     1.0  0.19825  0.57831  0.13528  1.0000
  H   H1667     1.0  0.17717  0.49855  0.00985  1.0000
  H   H1668     1.0  0.23920  0.51992  0.01274  1.0000
  H   H1669     1.0  0.07732  0.73176  0.42518  1.0000
  S   S220      1.0  0.99805  0.72087  0.20386  1.0000
  H   H1670     1.0  0.09464  0.72115  0.11538  1.0000
  C   C971      1.0  0.10801  0.73179  0.41806  1.0000
  C   C972      1.0  0.99949  0.72060  0.13286  1.0000
  H   H1671     1.0  0.02531  0.58576  0.44527  1.0000
  H   H1672     1.0  0.22237  0.54129  0.99259  1.0000
  H   H1673     1.0  0.00784  0.72285  0.10128  1.0000
  H   H1674     1.0  0.14423  0.72806  0.08377  1.0000
  C   C973      1.0  0.09873  0.72483  0.43415  1.0000
  C   C974      1.0  0.15159  0.48899  0.00123  1.0000
  H   H1675     1.0  0.22555  0.62870  0.99348  1.0000
  H   H1676     1.0  0.23819  0.59568  0.09348  1.0000
  N   N54       1.0  0.07023  0.72524  0.45053  1.0000
  H   H1677     1.0  0.14261  0.73230  0.98654  1.0000
  H   H1678     1.0  0.22046  0.69698  0.10862  1.0000
  C   C975      1.0  0.08090  0.73223  0.43581  1.0000
  H   H1679     1.0  0.18882  0.72577  0.06936  1.0000
  H   H1680     1.0  0.00884  0.52134  0.47798  1.0000
  S   S221      1.0  0.03114  0.69399  0.47754  1.0000
  C   C976      1.0  0.23408  0.51913  0.98515  1.0000
  H   H1681     1.0  0.22515  0.56033  0.13538  1.0000
  H   H1682     1.0  0.02171  0.60748  0.30391  1.0000
  H   H1683     1.0  0.13148  0.51779  0.99417  1.0000
  C   C977      1.0  0.20982  0.72516  0.17636  1.0000
  H   H1684     1.0  0.20011  0.69766  0.07490  1.0000
  S   S222      1.0  0.00562  0.72926  0.16498  1.0000
  H   H1685     1.0  0.09469  0.72674  0.17166  1.0000
  H   H1686     1.0  0.02091  0.69576  0.14655  1.0000
  H   H1687     1.0  0.23340  0.59230  0.99705  1.0000
  H   H1688     1.0  0.23325  0.66925  0.12339  1.0000
  H   H1689     1.0  0.21762  0.72200  0.18481  1.0000
  C   C978      1.0  0.09947  0.73133  0.11487  1.0000
  H   H1690     1.0  0.00439  0.49104  0.37303  1.0000
  Fe  Fe111     1.0  0.23968  0.56563  0.04104  1.0000
  H   H1691     1.0  0.00258  0.61614  0.29914  1.0000
  H   H1692     1.0  0.23212  0.67911  0.08890  1.0000
  C   C979      1.0  0.17795  0.49018  0.98543  1.0000
  H   H1693     1.0  0.05890  0.49606  0.42623  1.0000
  H   H1694     1.0  0.04793  0.72834  0.34805  1.0000
  H   H1695     1.0  0.99131  0.72028  0.14462  1.0000
  C   C980      1.0  0.22546  0.62458  0.02486  1.0000
  Fe  Fe112     1.0  0.99674  0.62576  0.34013  1.0000
  H   H1696     1.0  0.00536  0.72413  0.25655  1.0000
  H   H1697     1.0  0.99459  0.55380  0.45668  1.0000
  H   H1698     1.0  0.10422  0.72930  0.40849  1.0000
  H   H1699     1.0  0.22746  0.73359  0.05707  1.0000
  H   H1700     1.0  0.21371  0.70812  0.07640  1.0000
  H   H1701     1.0  0.12925  0.72742  0.06500  1.0000
  C   C981      1.0  0.23564  0.60029  0.98527  1.0000
  H   H1702     1.0  0.21688  0.72873  0.16434  1.0000
  H   H1703     1.0  0.21559  0.63387  0.02089  1.0000
  S   S223      1.0  0.07432  0.73226  0.05545  1.0000
  C   C982      1.0  0.24104  0.63816  0.12671  1.0000
  H   H1704     1.0  0.99156  0.55871  0.42971  1.0000
  H   H1705     1.0  0.07116  0.73391  0.29534  1.0000
  C   C983      1.0  0.02623  0.73383  0.24495  1.0000
  H   H1706     1.0  0.02036  0.73374  0.26950  1.0000
  H   H1707     1.0  0.17384  0.49498  0.87033  1.0000
  C   C984      1.0  0.23966  0.64245  0.94644  1.0000
  H   H1708     1.0  0.02208  0.50932  0.72293  1.0000
  C   C985      1.0  0.14164  0.72025  0.65495  1.0000
  H   H1709     1.0  0.14263  0.60880  0.93572  1.0000
  Fe  Fe113     1.0  0.01010  0.57204  0.63190  1.0000
  H   H1710     1.0  0.07737  0.72504  0.75087  1.0000
  S   S224      1.0  0.01065  0.54672  0.63240  1.0000
  Fe  Fe114     1.0  0.01214  0.60501  0.61278  1.0000
  H   H1711     1.0  0.15204  0.51240  0.91824  1.0000
  H   H1712     1.0  0.01004  0.51982  0.50631  1.0000
  Fe  Fe115     1.0  0.02322  0.59350  0.64348  1.0000
  S   S225      1.0  0.04262  0.59498  0.65407  1.0000
  H   H1713     1.0  0.23988  0.54297  0.97801  1.0000
  S   S226      1.0  0.03916  0.70920  0.81635  1.0000
  S   S227      1.0  0.03030  0.58426  0.62127  1.0000
  H   H1714     1.0  0.11969  0.72826  0.66957  1.0000
  S   S228      1.0  0.00448  0.57953  0.65497  1.0000
  Fe  Fe116     1.0  0.01724  0.70673  0.57842  1.0000
  S   S229      1.0  0.02905  0.68420  0.59258  1.0000
  S   S230      1.0  0.03152  0.72508  0.56617  1.0000
  C   C986      1.0  0.13440  0.53576  0.97335  1.0000
  H   H1715     1.0  0.99508  0.66313  0.76280  1.0000
  C   C987      1.0  0.20675  0.51956  0.87051  1.0000
  C   C988      1.0  0.18523  0.70885  0.89867  1.0000
  H   H1716     1.0  0.15308  0.50074  0.87075  1.0000
  C   C989      1.0  0.04523  0.55077  0.65483  1.0000
  C   C990      1.0  0.03037  0.70064  0.50538  1.0000
  H   H1717     1.0  0.03502  0.68818  0.50904  1.0000
  H   H1718     1.0  0.05369  0.71492  0.70428  1.0000
  C   C991      1.0  0.14786  0.66492  0.94587  1.0000
  S   S231      1.0  0.12337  0.71478  0.92305  1.0000
  H   H1719     1.0  0.01360  0.55765  0.57551  1.0000
  S   S232      1.0  0.09464  0.69611  0.93082  1.0000
  S   S233      1.0  0.10191  0.72172  0.89729  1.0000
  Fe  Fe117     1.0  0.10164  0.71190  0.94168  1.0000
  S   S234      1.0  0.23449  0.55182  0.91171  1.0000
  Fe  Fe118     1.0  0.11534  0.70074  0.91138  1.0000
  S   S235      1.0  0.13312  0.68264  0.89965  1.0000
  H   H1720     1.0  0.99110  0.51776  0.68183  1.0000
  Fe  Fe119     1.0  0.14591  0.62264  0.82727  1.0000
  S   S236      1.0  0.14736  0.63955  0.84041  1.0000
  S   S237      1.0  0.99824  0.72210  0.59265  1.0000
  Fe  Fe120     1.0  0.12874  0.64821  0.80404  1.0000
  S   S238      1.0  0.12894  0.66736  0.81525  1.0000
  S   S239      1.0  0.11967  0.65562  0.78154  1.0000
  Fe  Fe121     1.0  0.15380  0.65493  0.81665  1.0000
  Fe  Fe122     1.0  0.12250  0.65052  0.83800  1.0000
  S   S240      1.0  0.10382  0.65830  0.85810  1.0000
  S   S241      1.0  0.15429  0.63713  0.80350  1.0000
  S   S242      1.0  0.12025  0.63222  0.82684  1.0000
  S   S243      1.0  0.01358  0.69760  0.84817  1.0000
  Fe  Fe123     1.0  0.01948  0.69682  0.82267  1.0000
  S   S244      1.0  0.02301  0.67441  0.81510  1.0000
  Fe  Fe124     1.0  0.03936  0.66249  0.73444  1.0000
  S   S245      1.0  0.06509  0.66022  0.73212  1.0000
  S   S246      1.0  0.02249  0.68288  0.74379  1.0000
  Fe  Fe125     1.0  0.04430  0.63369  0.72094  1.0000
  S   S247      1.0  0.07066  0.62869  0.71781  1.0000
  S   S248      1.0  0.02883  0.62022  0.71632  1.0000
  Fe  Fe126     1.0  0.06595  0.63452  0.74161  1.0000
  S   S249      1.0  0.07809  0.62123  0.76184  1.0000
  Fe  Fe127     1.0  0.06762  0.65488  0.70871  1.0000
  S   S250      1.0  0.08319  0.66639  0.68716  1.0000
  S   S251      1.0  0.03979  0.63711  0.74561  1.0000
  S   S252      1.0  0.04172  0.65947  0.71011  1.0000
  C   C992      1.0  0.06360  0.70966  0.69613  1.0000
  C   C993      1.0  0.06633  0.69363  0.69643  1.0000
  C   C994      1.0  0.07925  0.68667  0.68613  1.0000
  C   C995      1.0  0.08930  0.69590  0.67530  1.0000
  C   C996      1.0  0.08661  0.71198  0.67505  1.0000
  H   H1721     1.0  0.05844  0.68664  0.70473  1.0000
  H   H1722     1.0  0.09930  0.69055  0.66731  1.0000
  C   C997      1.0  0.02208  0.67706  0.79546  1.0000
  C   C998      1.0  0.01868  0.69209  0.78600  1.0000
  C   C999      1.0  0.01850  0.69385  0.77017  1.0000
  C   C1000     1.0  0.02217  0.68061  0.76370  1.0000
  C   C1001     1.0  0.02556  0.66562  0.77318  1.0000
  C   C1002     1.0  0.02535  0.66384  0.78907  1.0000
  H   H1723     1.0  0.99841  0.68530  0.64525  1.0000
  H   H1724     1.0  0.99806  0.67444  0.61616  1.0000
  H   H1725     1.0  0.02827  0.65535  0.76835  1.0000
  H   H1726     1.0  0.02810  0.65219  0.79632  1.0000
  C   C1003     1.0  0.10795  0.64586  0.77657  1.0000
  C   C1004     1.0  0.10057  0.63447  0.78762  1.0000
  C   C1005     1.0  0.09135  0.62700  0.78303  1.0000
  C   C1006     1.0  0.08928  0.63107  0.76748  1.0000
  C   C1007     1.0  0.09674  0.64241  0.75649  1.0000
  C   C1008     1.0  0.10617  0.64963  0.76099  1.0000
  H   H1727     1.0  0.10190  0.63148  0.79965  1.0000
  H   H1728     1.0  0.08565  0.61818  0.79156  1.0000
  H   H1729     1.0  0.09547  0.64541  0.74442  1.0000
  H   H1730     1.0  0.11197  0.65832  0.75236  1.0000
  H   H1731     1.0  0.03883  0.50437  0.57623  1.0000
  N   N55       1.0  0.17038  0.62871  0.88935  1.0000
  S   S253      1.0  0.21174  0.72220  0.85721  1.0000
  Fe  Fe128     1.0  0.18350  0.54792  0.95058  1.0000
  H   H1732     1.0  0.00437  0.63076  0.67903  1.0000
  C   C1009     1.0  0.05579  0.71654  0.89700  1.0000
  H   H1733     1.0  0.15859  0.71207  0.91802  1.0000
  H   H1734     1.0  0.02958  0.72201  0.87407  1.0000
  C   C1010     1.0  0.17859  0.61388  0.91568  1.0000
  Fe  Fe129     1.0  0.20947  0.54855  0.92130  1.0000
  H   H1735     1.0  0.13927  0.54665  0.92182  1.0000
  C   C1011     1.0  0.12427  0.67784  0.88723  1.0000
  C   C1012     1.0  0.13294  0.67529  0.87247  1.0000
  C   C1013     1.0  0.12636  0.67005  0.86309  1.0000
  C   C1014     1.0  0.11120  0.66714  0.86859  1.0000
  C   C1015     1.0  0.10220  0.67055  0.88299  1.0000
  C   C1016     1.0  0.10868  0.67608  0.89223  1.0000
  H   H1736     1.0  0.14474  0.67731  0.86830  1.0000
  H   H1737     1.0  0.13311  0.66808  0.85169  1.0000
  H   H1738     1.0  0.09032  0.66865  0.88711  1.0000
  H   H1739     1.0  0.10173  0.67858  0.90339  1.0000
  H   H1740     1.0  0.01636  0.70235  0.79077  1.0000
  H   H1741     1.0  0.01472  0.67382  0.63373  1.0000
  C   C1017     1.0  0.02147  0.64902  0.65710  1.0000
  H   H1742     1.0  0.14413  0.62607  0.87490  1.0000
  H   H1743     1.0  0.13483  0.60518  0.86066  1.0000
  H   H1744     1.0  0.15203  0.54369  0.89355  1.0000
  C   C1018     1.0  0.17067  0.58014  0.85941  1.0000
  C   C1019     1.0  0.07381  0.71884  0.68556  1.0000
  C   C1020     1.0  0.19268  0.67997  0.81883  1.0000
  H   H1745     1.0  0.18128  0.51710  0.89577  1.0000
  H   H1746     1.0  0.15322  0.72325  0.64910  1.0000
  C   C1021     1.0  0.08689  0.70838  0.72273  1.0000
  C   C1022     1.0  0.05401  0.52410  0.58307  1.0000
  C   C1023     1.0  0.16127  0.72398  0.91360  1.0000
  H   H1747     1.0  0.20620  0.49816  0.90719  1.0000
  S   S254      1.0  0.00413  0.71157  0.55917  1.0000
  H   H1748     1.0  0.00063  0.51998  0.66128  1.0000
  H   H1749     1.0  0.22925  0.64857  0.94124  1.0000
  C   C1024     1.0  0.14476  0.59685  0.86475  1.0000
  S   S255      1.0  0.10681  0.70397  0.96589  1.0000
  C   C1025     1.0  0.99906  0.66314  0.67383  1.0000
  H   H1750     1.0  0.04446  0.53054  0.57669  1.0000
  H   H1751     1.0  0.18683  0.70051  0.92340  1.0000
  C   C1026     1.0  0.06570  0.72479  0.64620  1.0000
  C   C1027     1.0  0.00844  0.52322  0.60106  1.0000
  C   C1028     1.0  0.23497  0.63033  0.96131  1.0000
  C   C1029     1.0  0.03847  0.60253  0.67109  1.0000
  C   C1030     1.0  0.02404  0.60259  0.68179  1.0000
  C   C1031     1.0  0.02139  0.60779  0.69576  1.0000
  C   C1032     1.0  0.03285  0.61364  0.69875  1.0000
  C   C1033     1.0  0.04720  0.61381  0.68791  1.0000
  C   C1034     1.0  0.05010  0.60798  0.67427  1.0000
  H   H1752     1.0  0.01504  0.59836  0.67945  1.0000
  H   H1753     1.0  0.01030  0.60754  0.70417  1.0000
  H   H1754     1.0  0.05619  0.61812  0.69019  1.0000
  H   H1755     1.0  0.06138  0.60775  0.66613  1.0000
  C   C1035     1.0  0.01899  0.63869  0.58947  1.0000
  C   C1036     1.0  0.02831  0.63852  0.59954  1.0000
  C   C1037     1.0  0.03172  0.65254  0.59994  1.0000
  C   C1038     1.0  0.02536  0.66683  0.59082  1.0000
  C   C1039     1.0  0.01597  0.66704  0.58081  1.0000
  H   H1756     1.0  0.99403  0.67919  0.55502  1.0000
  H   H1757     1.0  0.03320  0.62752  0.60671  1.0000
  H   H1758     1.0  0.03938  0.65235  0.60727  1.0000
  H   H1759     1.0  0.10245  0.70658  0.74637  1.0000
  C   C1040     1.0  0.99424  0.68288  0.62402  1.0000
  H   H1760     1.0  0.13219  0.71530  0.69094  1.0000
  C   C1041     1.0  0.01202  0.54915  0.58655  1.0000
  C   C1042     1.0  0.01037  0.53415  0.58675  1.0000
  H   H1761     1.0  0.06188  0.54491  0.70473  1.0000
  C   C1043     1.0  0.00882  0.52709  0.61494  1.0000
  C   C1044     1.0  0.01046  0.54212  0.61473  1.0000
  C   C1045     1.0  0.01185  0.55320  0.60051  1.0000
  C   C1046     1.0  0.05002  0.49841  0.58026  1.0000
  C   C1047     1.0  0.13635  0.63585  0.94802  1.0000
  C   C1048     1.0  0.14264  0.60667  0.94839  1.0000
  H   H1762     1.0  0.13898  0.59538  0.95441  1.0000
  C   C1049     1.0  0.16494  0.72871  0.92724  1.0000
  N   N56       1.0  0.06876  0.70506  0.75061  1.0000
  C   C1050     1.0  0.07946  0.69726  0.73760  1.0000
  C   C1051     1.0  0.06088  0.69300  0.76307  1.0000
  C   C1052     1.0  0.07726  0.71275  0.75759  1.0000
  N   N57       1.0  0.17356  0.72440  0.89840  1.0000
  H   H1763     1.0  0.22480  0.65485  0.88773  1.0000
  H   H1764     1.0  0.16864  0.67566  0.88844  1.0000
  H   H1765     1.0  0.15283  0.72450  0.86145  1.0000
  C   C1053     1.0  0.07183  0.67923  0.77190  1.0000
  C   C1054     1.0  0.06310  0.66681  0.78277  1.0000
  C   C1055     1.0  0.23271  0.60550  0.88595  1.0000
  H   H1766     1.0  0.21421  0.68504  0.91875  1.0000
  H   H1767     1.0  0.07289  0.69089  0.73360  1.0000
  H   H1768     1.0  0.08923  0.68807  0.74181  1.0000
  H   H1769     1.0  0.05218  0.69845  0.77243  1.0000
  H   H1770     1.0  0.05412  0.68797  0.75781  1.0000
  H   H1771     1.0  0.11933  0.62047  0.95408  1.0000
  C   C1056     1.0  0.22138  0.64067  0.91118  1.0000
  C   C1057     1.0  0.05403  0.57030  0.70121  1.0000
  H   H1772     1.0  0.02616  0.52551  0.50963  1.0000
  S   S256      1.0  0.23115  0.71830  0.89127  1.0000
  H   H1773     1.0  0.14313  0.68996  0.94507  1.0000
  S   S257      1.0  0.05726  0.72252  0.91338  1.0000
  S   S258      1.0  0.01450  0.62123  0.58897  1.0000
  H   H1774     1.0  0.08146  0.67326  0.76369  1.0000
  H   H1775     1.0  0.07669  0.68361  0.77938  1.0000
  H   H1776     1.0  0.07140  0.65717  0.78878  1.0000
  H   H1777     1.0  0.05377  0.67197  0.79189  1.0000
  H   H1778     1.0  0.05802  0.66175  0.77597  1.0000
  H   H1779     1.0  0.01317  0.56480  0.60018  1.0000
  C   C1058     1.0  0.99611  0.66111  0.64838  1.0000
  H   H1780     1.0  0.13304  0.72965  0.63321  1.0000
  C   C1059     1.0  0.13459  0.71848  0.64218  1.0000
  H   H1781     1.0  0.04971  0.71205  0.73823  1.0000
  H   H1782     1.0  0.18163  0.57825  0.96554  1.0000
  N   N58       1.0  0.03867  0.55056  0.69976  1.0000
  C   C1060     1.0  0.03789  0.53346  0.70581  1.0000
  C   C1061     1.0  0.04443  0.55414  0.68202  1.0000
  S   S259      1.0  0.19728  0.68419  0.86075  1.0000
  C   C1062     1.0  0.02305  0.56131  0.70459  1.0000
  H   H1783     1.0  0.17395  0.72957  0.87344  1.0000
  H   H1784     1.0  0.07841  0.72838  0.96539  1.0000
  H   H1785     1.0  0.04257  0.50303  0.72423  1.0000
  C   C1063     1.0  0.04042  0.54441  0.67252  1.0000
  S   S260      1.0  0.99926  0.48790  0.58715  1.0000
  H   H1786     1.0  0.20076  0.59687  0.91717  1.0000
  H   H1787     1.0  0.04966  0.52593  0.70206  1.0000
  H   H1788     1.0  0.04011  0.56680  0.67704  1.0000
  H   H1789     1.0  0.05752  0.55224  0.67875  1.0000
  Fe  Fe130     1.0  0.08159  0.71856  0.91769  1.0000
  H   H1790     1.0  0.05894  0.72240  0.61868  1.0000
  C   C1064     1.0  0.14047  0.72318  0.68855  1.0000
  H   H1791     1.0  0.02392  0.57372  0.69967  1.0000
  C   C1065     1.0  0.01783  0.52835  0.50175  1.0000
  C   C1066     1.0  0.03257  0.52793  0.72388  1.0000
  H   H1792     1.0  0.17088  0.60523  0.92017  1.0000
  H   H1793     1.0  0.00200  0.62987  0.66071  1.0000
  H   H1794     1.0  0.07062  0.71386  0.76973  1.0000
  H   H1795     1.0  0.09032  0.72418  0.84464  1.0000
  H   H1796     1.0  0.02773  0.54445  0.67536  1.0000
  H   H1797     1.0  0.05812  0.55007  0.65117  1.0000
  H   H1798     1.0  0.09366  0.70999  0.78067  1.0000
  H   H1799     1.0  0.23050  0.62179  0.95790  1.0000
  C   C1067     1.0  0.10065  0.71190  0.76841  1.0000
  H   H1800     1.0  0.19004  0.60268  0.93537  1.0000
  H   H1801     1.0  0.02608  0.65990  0.65395  1.0000
  H   H1802     1.0  0.04069  0.50905  0.60098  1.0000
  H   H1803     1.0  0.13404  0.59618  0.88919  1.0000
  H   H1804     1.0  0.02682  0.64140  0.66706  1.0000
  H   H1805     1.0  0.20038  0.61591  0.91991  1.0000
  C   C1068     1.0  0.00896  0.55949  0.69926  1.0000
  C   C1069     1.0  0.17988  0.61665  0.86452  1.0000
  S   S261      1.0  0.18957  0.56737  0.93012  1.0000
  C   C1070     1.0  0.02676  0.70666  0.49048  1.0000
  C   C1071     1.0  0.23149  0.58013  0.97292  1.0000
  C   C1072     1.0  0.09612  0.71635  0.97888  1.0000
  C   C1073     1.0  0.16199  0.49550  0.87812  1.0000
  H   H1806     1.0  0.18043  0.56728  0.87978  1.0000
  H   H1807     1.0  0.02644  0.62826  0.64710  1.0000
  H   H1808     1.0  0.09613  0.69001  0.70926  1.0000
  C   C1074     1.0  0.15748  0.71299  0.68619  1.0000
  H   H1809     1.0  0.20760  0.68977  0.82661  1.0000
  H   H1810     1.0  0.18783  0.60637  0.87024  1.0000
  H   H1811     1.0  0.18778  0.63534  0.86845  1.0000
  H   H1812     1.0  0.16293  0.66301  0.84269  1.0000
  C   C1075     1.0  0.05369  0.70937  0.86942  1.0000
  H   H1813     1.0  0.17228  0.62451  0.92037  1.0000
  C   C1076     1.0  0.05049  0.55356  0.70694  1.0000
  H   H1814     1.0  0.00701  0.54735  0.70352  1.0000
  H   H1815     1.0  0.09139  0.71716  0.72566  1.0000
  H   H1816     1.0  0.22566  0.62462  0.86751  1.0000
  H   H1817     1.0  0.10440  0.66809  0.97495  1.0000
  H   H1818     1.0  0.18088  0.57564  0.85106  1.0000
  H   H1819     1.0  0.20590  0.53243  0.86632  1.0000
  H   H1820     1.0  0.17918  0.69920  0.90039  1.0000
  H   H1821     1.0  0.05961  0.50030  0.56966  1.0000
  H   H1822     1.0  0.11735  0.63443  0.88794  1.0000
  H   H1823     1.0  0.15711  0.65640  0.93972  1.0000
  C   C1077     1.0  0.08258  0.72747  0.97576  1.0000
  S   S262      1.0  0.00188  0.71851  0.81548  1.0000
  H   H1824     1.0  0.08025  0.69288  0.58302  1.0000
  C   C1078     1.0  0.19109  0.51547  0.87181  1.0000
  H   H1825     1.0  0.20164  0.67862  0.91056  1.0000
  H   H1826     1.0  0.18547  0.67179  0.89687  1.0000
  H   H1827     1.0  0.14214  0.72562  0.94256  1.0000
  H   H1828     1.0  0.16726  0.66698  0.90915  1.0000
  Fe  Fe131     1.0  0.02104  0.73118  0.81147  1.0000
  C   C1079     1.0  0.22555  0.59368  0.88258  1.0000
  H   H1829     1.0  0.16183  0.54469  0.83762  1.0000
  H   H1830     1.0  0.14266  0.64363  0.88078  1.0000
  H   H1831     1.0  0.13657  0.72887  0.87768  1.0000
  S   S263      1.0  0.20438  0.52963  0.94276  1.0000
  H   H1832     1.0  0.20940  0.64777  0.91470  1.0000
  H   H1833     1.0  0.16837  0.64071  0.86549  1.0000
  H   H1834     1.0  0.18528  0.60553  0.89455  1.0000
  C   C1080     1.0  0.14253  0.63107  0.88524  1.0000
  H   H1835     1.0  0.17734  0.72435  0.92829  1.0000
  Fe  Fe132     1.0  0.17587  0.55935  0.91775  1.0000
  C   C1081     1.0  0.04628  0.63908  0.63799  1.0000
  H   H1836     1.0  0.15475  0.60547  0.94978  1.0000
  C   C1082     1.0  0.16633  0.64445  0.89385  1.0000
  H   H1837     1.0  0.16362  0.68104  0.93902  1.0000
  C   C1083     1.0  0.18280  0.61723  0.89744  1.0000
  C   C1084     1.0  0.23935  0.65943  0.83273  1.0000
  C   C1085     1.0  0.14435  0.59179  0.88091  1.0000
  H   H1838     1.0  0.15871  0.60967  0.89327  1.0000
  H   H1839     1.0  0.19422  0.62102  0.89295  1.0000
  H   H1840     1.0  0.99749  0.65301  0.64058  1.0000
  S   S264      1.0  0.19603  0.54165  0.90746  1.0000
  H   H1841     1.0  0.18080  0.63094  0.84059  1.0000
  C   C1086     1.0  0.02852  0.64034  0.64337  1.0000
  C   C1087     1.0  0.15577  0.62212  0.89434  1.0000
  C   C1088     1.0  0.18774  0.62024  0.84705  1.0000
  H   H1842     1.0  0.14427  0.52869  0.87053  1.0000
  H   H1843     1.0  0.12304  0.63734  0.90426  1.0000
  C   C1089     1.0  0.15383  0.55201  0.84587  1.0000
  H   H1844     1.0  0.17533  0.48461  0.97716  1.0000
  H   H1845     1.0  0.17244  0.66960  0.86273  1.0000
  H   H1846     1.0  0.04894  0.65089  0.63259  1.0000
  H   H1847     1.0  0.03160  0.70600  0.52673  1.0000
  H   H1848     1.0  0.05114  0.63169  0.62908  1.0000
  H   H1849     1.0  0.22514  0.63664  0.96918  1.0000
  H   H1850     1.0  0.05383  0.53084  0.59169  1.0000
  S   S265      1.0  0.15645  0.57652  0.90679  1.0000
  H   H1851     1.0  0.18866  0.61023  0.84180  1.0000
  H   H1852     1.0  0.21020  0.51572  0.88205  1.0000
  C   C1090     1.0  0.18811  0.48736  0.92378  1.0000
  S   S266      1.0  0.01217  0.52912  0.56874  1.0000
  H   H1853     1.0  0.03466  0.53596  0.48114  1.0000
  C   C1091     1.0  0.17279  0.66863  0.83918  1.0000
  C   C1092     1.0  0.15790  0.59103  0.85395  1.0000
  Fe  Fe133     1.0  0.18911  0.52437  0.93000  1.0000
  C   C1093     1.0  0.17662  0.63116  0.87179  1.0000
  H   H1854     1.0  0.14807  0.63419  0.95066  1.0000
  H   H1855     1.0  0.19834  0.68291  0.80655  1.0000
  C   C1094     1.0  0.20719  0.68843  0.90957  1.0000
  C   C1095     1.0  0.19073  0.67999  0.84609  1.0000
  H   H1856     1.0  0.18875  0.65188  0.88200  1.0000
  H   H1857     1.0  0.14327  0.70867  0.66325  1.0000
  H   H1858     1.0  0.18841  0.51957  0.85996  1.0000
  H   H1859     1.0  0.15524  0.70043  0.71074  1.0000
  C   C1096     1.0  0.15724  0.58128  0.88642  1.0000
  H   H1860     1.0  0.12567  0.61764  0.90157  1.0000
  H   H1861     1.0  0.17043  0.54775  0.86023  1.0000
  H   H1862     1.0  0.16879  0.61316  0.86559  1.0000
  C   C1097     1.0  0.12617  0.62997  0.89544  1.0000
  S   S267      1.0  0.16798  0.54168  0.93911  1.0000
  H   H1863     1.0  0.15072  0.62165  0.90709  1.0000
  C   C1098     1.0  0.00532  0.72353  0.63396  1.0000
  N   N59       1.0  0.06364  0.65453  0.84099  1.0000
  C   C1099     1.0  0.05032  0.64805  0.84011  1.0000
  C   C1100     1.0  0.05799  0.66470  0.85305  1.0000
  C   C1101     1.0  0.06881  0.66483  0.82511  1.0000
  C   C1102     1.0  0.07763  0.64161  0.84447  1.0000
  C   C1103     1.0  0.07520  0.62971  0.86036  1.0000
  C   C1104     1.0  0.05359  0.63919  0.82674  1.0000
  C   C1105     1.0  0.08066  0.67479  0.82427  1.0000
  C   C1106     1.0  0.04531  0.65984  0.86787  1.0000
  C   C1107     1.0  0.04288  0.66954  0.88005  1.0000
  C   C1108     1.0  0.08989  0.61655  0.86159  1.0000
  C   C1109     1.0  0.04011  0.63134  0.82846  1.0000
  C   C1110     1.0  0.08515  0.68452  0.80771  1.0000
  H   H1864     1.0  0.03989  0.65783  0.83857  1.0000
  H   H1865     1.0  0.04631  0.64004  0.85133  1.0000
  H   H1866     1.0  0.06818  0.66593  0.85693  1.0000
  H   H1867     1.0  0.05238  0.67684  0.84763  1.0000
  H   H1868     1.0  0.05833  0.67314  0.82106  1.0000
  H   H1869     1.0  0.07452  0.65761  0.81609  1.0000
  H   H1870     1.0  0.08254  0.63508  0.83486  1.0000
  H   H1871     1.0  0.08734  0.64668  0.84458  1.0000
  H   H1872     1.0  0.06522  0.62418  0.86196  1.0000
  H   H1873     1.0  0.07321  0.63567  0.87013  1.0000
  H   H1874     1.0  0.05469  0.64751  0.81515  1.0000
  H   H1875     1.0  0.06449  0.62988  0.82671  1.0000
  H   H1876     1.0  0.09174  0.66728  0.82740  1.0000
  H   H1877     1.0  0.07565  0.68309  0.83227  1.0000
  H   H1878     1.0  0.03383  0.66201  0.86456  1.0000
  H   H1879     1.0  0.04832  0.64729  0.87359  1.0000
  H   H1880     1.0  0.03848  0.68218  0.87517  1.0000
  H   H1881     1.0  0.03402  0.66566  0.89064  1.0000
  H   H1882     1.0  0.05407  0.66809  0.88364  1.0000
  H   H1883     1.0  0.08790  0.60819  0.87312  1.0000
  H   H1884     1.0  0.09262  0.61002  0.85211  1.0000
  H   H1885     1.0  0.10014  0.62146  0.86075  1.0000
  H   H1886     1.0  0.04243  0.62575  0.81833  1.0000
  H   H1887     1.0  0.03902  0.62215  0.83947  1.0000
  H   H1888     1.0  0.02881  0.64015  0.82859  1.0000
  H   H1889     1.0  0.09131  0.67667  0.79937  1.0000
  H   H1890     1.0  0.07454  0.69250  0.80383  1.0000
  H   H1891     1.0  0.09329  0.69172  0.80765  1.0000
  N   N60       1.0  0.04972  0.70127  0.62606  1.0000
  C   C1111     1.0  0.04822  0.68728  0.63964  1.0000
  C   C1112     1.0  0.03361  0.71055  0.62343  1.0000
  C   C1113     1.0  0.05846  0.69500  0.61148  1.0000
  C   C1114     1.0  0.05900  0.71169  0.62829  1.0000
  C   C1115     1.0  0.05334  0.71772  0.64375  1.0000
  C   C1116     1.0  0.06386  0.67663  0.64371  1.0000
  C   C1117     1.0  0.06008  0.70747  0.59576  1.0000
  C   C1118     1.0  0.02007  0.71184  0.63820  1.0000
  H   H1892     1.0  0.99640  0.68755  0.51931  1.0000
  H   H1893     1.0  0.12302  0.54329  0.97794  1.0000
  C   C1119     1.0  0.06079  0.66445  0.65907  1.0000
  C   C1120     1.0  0.06825  0.69969  0.58179  1.0000
  H   H1894     1.0  0.04170  0.67974  0.63722  1.0000
  H   H1895     1.0  0.04102  0.69094  0.65061  1.0000
  H   H1896     1.0  0.03428  0.72269  0.61658  1.0000
  H   H1897     1.0  0.02936  0.70530  0.61601  1.0000
  H   H1898     1.0  0.05262  0.68625  0.61012  1.0000
  H   H1899     1.0  0.07065  0.68862  0.61247  1.0000
  H   H1900     1.0  0.07166  0.70574  0.62711  1.0000
  H   H1901     1.0  0.22781  0.54168  0.95732  1.0000
  H   H1902     1.0  0.05098  0.70828  0.65427  1.0000
  H   H1903     1.0  0.21612  0.51350  0.86198  1.0000
  H   H1904     1.0  0.07047  0.67013  0.63432  1.0000
  H   H1905     1.0  0.07144  0.68357  0.64528  1.0000
  H   H1906     1.0  0.06726  0.71558  0.59577  1.0000
  H   H1907     1.0  0.04843  0.71449  0.59363  1.0000
  H   H1908     1.0  0.01690  0.70026  0.64356  1.0000
  H   H1909     1.0  0.01097  0.56273  0.68628  1.0000
  H   H1910     1.0  0.03582  0.71934  0.76409  1.0000
  H   H1911     1.0  0.19365  0.70905  0.88709  1.0000
  H   H1912     1.0  0.17104  0.69093  0.69712  1.0000
  H   H1913     1.0  0.00719  0.51164  0.60134  1.0000
  H   H1914     1.0  0.03142  0.72832  0.89845  1.0000
  C   C1121     1.0  0.19473  0.70336  0.91173  1.0000
  H   H1915     1.0  0.05329  0.65698  0.65835  1.0000
  H   H1916     1.0  0.07215  0.65676  0.66145  1.0000
  H   H1917     1.0  0.05503  0.67033  0.66910  1.0000
  H   H1918     1.0  0.06132  0.69174  0.58086  1.0000
  H   H1919     1.0  0.06926  0.70887  0.57075  1.0000
  C   C1122     1.0  0.00605  0.48978  0.50323  1.0000
  N   N61       1.0  0.14302  0.59617  0.78199  1.0000
  C   C1123     1.0  0.13982  0.59136  0.76870  1.0000
  C   C1124     1.0  0.15833  0.58607  0.78583  1.0000
  C   C1125     1.0  0.12945  0.59426  0.79596  1.0000
  C   C1126     1.0  0.14438  0.61313  0.77751  1.0000
  C   C1127     1.0  0.15646  0.61790  0.76215  1.0000
  C   C1128     1.0  0.12541  0.60189  0.76201  1.0000
  C   C1129     1.0  0.13210  0.59530  0.81180  1.0000
  C   C1130     1.0  0.15876  0.56821  0.79185  1.0000
  C   C1131     1.0  0.17373  0.55963  0.79790  1.0000
  C   C1132     1.0  0.15558  0.63559  0.75808  1.0000
  C   C1133     1.0  0.12342  0.59623  0.74843  1.0000
  C   C1134     1.0  0.11722  0.59445  0.82476  1.0000
  H   H1920     1.0  0.13765  0.57924  0.77263  1.0000
  H   H1921     1.0  0.15036  0.59066  0.75886  1.0000
  H   H1922     1.0  0.16806  0.58712  0.77524  1.0000
  H   H1923     1.0  0.16175  0.59037  0.79455  1.0000
  H   H1924     1.0  0.12599  0.58291  0.79779  1.0000
  H   H1925     1.0  0.11879  0.60340  0.79368  1.0000
  H   H1926     1.0  0.13278  0.62108  0.77654  1.0000
  H   H1927     1.0  0.14776  0.61621  0.78698  1.0000
  H   H1928     1.0  0.15429  0.61497  0.75196  1.0000
  H   H1929     1.0  0.16862  0.61192  0.76350  1.0000
  H   H1930     1.0  0.11443  0.60158  0.77120  1.0000
  H   H1931     1.0  0.12660  0.61427  0.75747  1.0000
  H   H1932     1.0  0.13547  0.60645  0.81069  1.0000
  H   H1933     1.0  0.14154  0.58547  0.81580  1.0000
  H   H1934     1.0  0.14863  0.56580  0.80159  1.0000
  H   H1935     1.0  0.15861  0.56302  0.78215  1.0000
  H   H1936     1.0  0.17412  0.56407  0.80803  1.0000
  H   H1937     1.0  0.17394  0.54685  0.80188  1.0000
  H   H1938     1.0  0.18434  0.56129  0.78844  1.0000
  H   H1939     1.0  0.15750  0.63940  0.76792  1.0000
  H   H1940     1.0  0.16478  0.63862  0.74747  1.0000
  H   H1941     1.0  0.14391  0.64214  0.75554  1.0000
  H   H1942     1.0  0.13389  0.59678  0.73858  1.0000
  H   H1943     1.0  0.12159  0.58401  0.75241  1.0000
  H   H1944     1.0  0.11293  0.60393  0.74406  1.0000
  H   H1945     1.0  0.11362  0.58322  0.82658  1.0000
  H   H1946     1.0  0.11959  0.59507  0.83595  1.0000
  H   H1947     1.0  0.10745  0.60445  0.82172  1.0000
  N   N62       1.0  0.12524  0.65003  0.95349  1.0000
  C   C1135     1.0  0.10895  0.65202  0.95094  1.0000
  C   C1136     1.0  0.13119  0.61999  0.95564  1.0000
  C   C1137     1.0  0.13140  0.66449  0.94418  1.0000
  C   C1138     1.0  0.05595  0.71743  0.74371  1.0000
  H   H1948     1.0  0.15142  0.70914  0.89654  1.0000
  C   C1139     1.0  0.10804  0.65132  0.93429  1.0000
  H   H1949     1.0  0.00685  0.67650  0.69451  1.0000
  H   H1950     1.0  0.02330  0.64642  0.63303  1.0000
  H   H1951     1.0  0.21681  0.63811  0.89002  1.0000
  C   C1140     1.0  0.19336  0.60691  0.92242  1.0000
  C   C1141     1.0  0.09100  0.65381  0.93301  1.0000
  C   C1142     1.0  0.15147  0.68120  0.93851  1.0000
  H   H1952     1.0  0.10149  0.66352  0.95320  1.0000
  H   H1953     1.0  0.10280  0.64309  0.95961  1.0000
  H   H1954     1.0  0.14988  0.73198  0.91156  1.0000
  H   H1955     1.0  0.20087  0.71237  0.91170  1.0000
  H   H1956     1.0  0.12285  0.67534  0.94704  1.0000
  H   H1957     1.0  0.13245  0.66575  0.93143  1.0000
  H   H1958     1.0  0.13865  0.63771  0.93498  1.0000
  H   H1959     1.0  0.04259  0.72719  0.64315  1.0000
  H   H1960     1.0  0.02750  0.50702  0.74125  1.0000
  H   H1961     1.0  0.99365  0.71486  0.74920  1.0000
  H   H1962     1.0  0.11326  0.66051  0.92514  1.0000
  H   H1963     1.0  0.11431  0.63973  0.93153  1.0000
  C   C1143     1.0  0.01921  0.73288  0.49566  1.0000
  H   H1964     1.0  0.13842  0.72695  0.69980  1.0000
  S   S268      1.0  0.00656  0.61520  0.63400  1.0000
  Fe  Fe134     1.0  0.01658  0.73146  0.54816  1.0000
  H   H1965     1.0  0.15940  0.65356  0.88587  1.0000
  H   H1966     1.0  0.15833  0.64419  0.90566  1.0000
  Fe  Fe135     1.0  0.03191  0.71214  0.84131  1.0000
  H   H1967     1.0  0.05218  0.63350  0.64800  1.0000
  C   C1144     1.0  0.00352  0.65532  0.69004  1.0000
  C   C1145     1.0  0.18052  0.65101  0.89365  1.0000
  H   H1968     1.0  0.08413  0.66551  0.93515  1.0000
  H   H1969     1.0  0.09074  0.65326  0.92099  1.0000
  H   H1970     1.0  0.08533  0.64454  0.94161  1.0000
  H   H1971     1.0  0.99815  0.69385  0.61728  1.0000
  H   H1972     1.0  0.15045  0.68485  0.92601  1.0000
  N   N63       1.0  0.00374  0.65271  0.66214  1.0000
  H   H1973     1.0  0.21526  0.69052  0.89787  1.0000
  H   H1974     1.0  0.14147  0.55144  0.84696  1.0000
  H   H1975     1.0  0.09666  0.69199  0.76300  1.0000
  H   H1976     1.0  0.06550  0.52349  0.57453  1.0000
  H   H1977     1.0  0.99442  0.65260  0.78285  1.0000
  C   C1146     1.0  0.01300  0.65293  0.57995  1.0000
  C   C1147     1.0  0.22031  0.54402  0.96877  1.0000
  H   H1978     1.0  0.02628  0.48692  0.59869  1.0000
  C   C1148     1.0  0.00041  0.67912  0.54266  1.0000
  C   C1149     1.0  0.04154  0.72143  0.89192  1.0000
  C   C1150     1.0  0.15870  0.69780  0.69883  1.0000
  H   H1979     1.0  0.21747  0.57385  0.93177  1.0000
  H   H1980     1.0  0.01589  0.70548  0.76286  1.0000
  C   C1151     1.0  0.02323  0.72689  0.51040  1.0000
  H   H1981     1.0  0.16587  0.71947  0.68704  1.0000
  C   C1152     1.0  0.05158  0.50761  0.59169  1.0000
  H   H1982     1.0  0.09457  0.71898  0.66694  1.0000
  H   H1983     1.0  0.06440  0.56864  0.72083  1.0000
  H   H1984     1.0  0.22166  0.62821  0.91738  1.0000
  H   H1985     1.0  0.10337  0.70552  0.86546  1.0000
  H   H1986     1.0  0.05069  0.73070  0.48052  1.0000
  H   H1987     1.0  0.03905  0.56320  0.65157  1.0000
  C   C1153     1.0  0.99840  0.63748  0.66936  1.0000
  C   C1154     1.0  0.22565  0.64217  0.89337  1.0000
  H   H1988     1.0  0.15103  0.69049  0.69806  1.0000
  H   H1989     1.0  0.12740  0.53258  0.92446  1.0000
  H   H1990     1.0  0.09984  0.72469  0.76359  1.0000
  C   C1155     1.0  0.06774  0.70398  0.87483  1.0000
  H   H1991     1.0  0.18766  0.50733  0.96536  1.0000
  H   H1992     1.0  0.07791  0.71501  0.71582  1.0000
  C   C1156     1.0  0.14667  0.71969  0.87353  1.0000
  H   H1993     1.0  0.04203  0.54381  0.64830  1.0000
  N   N64       1.0  0.16142  0.52204  0.88497  1.0000
  C   C1157     1.0  0.10027  0.69912  0.71213  1.0000
  S   S269      1.0  0.17381  0.66756  0.80881  1.0000
  H   H1994     1.0  0.13242  0.52949  0.96539  1.0000
  H   H1995     1.0  0.01625  0.64986  0.68872  1.0000
  C   C1158     1.0  0.17507  0.66735  0.89730  1.0000
  H   H1996     1.0  0.22154  0.58552  0.89372  1.0000
  S   S270      1.0  0.15829  0.59723  0.83368  1.0000
  H   H1997     1.0  0.04124  0.52868  0.73007  1.0000
  H   H1998     1.0  0.16376  0.52242  0.86035  1.0000
  C   C1159     1.0  0.13903  0.53396  0.92500  1.0000
  C   C1160     1.0  0.18430  0.57322  0.97705  1.0000
  H   H1999     1.0  0.15018  0.55462  0.86941  1.0000
  C   C1161     1.0  0.17816  0.67238  0.85053  1.0000
  C   C1162     1.0  0.17042  0.57537  0.87564  1.0000
  H   H2000     1.0  0.02976  0.53039  0.70052  1.0000
  C   C1163     1.0  0.18009  0.67233  0.82330  1.0000
  H   H2001     1.0  0.17871  0.53545  0.88254  1.0000
  H   H2002     1.0  0.15496  0.56438  0.84084  1.0000
  H   H2003     1.0  0.19281  0.50250  0.87528  1.0000
  H   H2004     1.0  0.19975  0.62208  0.84549  1.0000
  H   H2005     1.0  0.18710  0.64342  0.90267  1.0000
  Fe  Fe136     1.0  0.00324  0.50865  0.56744  1.0000
  Fe  Fe137     1.0  0.22941  0.72736  0.83467  1.0000
  C   C1164     1.0  0.02841  0.71070  0.51542  1.0000
  C   C1165     1.0  0.15226  0.52505  0.91400  1.0000
  C   C1166     1.0  0.19794  0.68386  0.83019  1.0000
  C   C1167     1.0  0.15671  0.52925  0.86935  1.0000
  H   H2006     1.0  0.05745  0.57369  0.68821  1.0000
  H   H2007     1.0  0.16355  0.52665  0.91517  1.0000
  H   H2008     1.0  0.23838  0.67081  0.90146  1.0000
  C   C1168     1.0  0.17797  0.52300  0.88427  1.0000
  H   H2009     1.0  0.14878  0.66202  0.95833  1.0000
  C   C1169     1.0  0.15041  0.53138  0.89669  1.0000
  H   H2010     1.0  0.04698  0.53201  0.67507  1.0000
  C   C1170     1.0  0.03111  0.51077  0.72827  1.0000
  H   H2011     1.0  0.14205  0.70970  0.87311  1.0000
  H   H2012     1.0  0.13795  0.53220  0.89648  1.0000
  H   H2013     1.0  0.01109  0.67803  0.57368  1.0000
  S   S271      1.0  0.01487  0.49432  0.54887  1.0000
  H   H2014     1.0  0.00121  0.71989  0.62533  1.0000
  C   C1171     1.0  0.15819  0.54652  0.86197  1.0000
  C   C1172     1.0  0.15940  0.50517  0.89071  1.0000
  H   H2015     1.0  0.06940  0.58359  0.70372  1.0000
  S   S272      1.0  0.23206  0.70398  0.82900  1.0000
  C   C1173     1.0  0.04046  0.71782  0.87817  1.0000
  H   H2016     1.0  0.99996  0.63472  0.76513  1.0000
  H   H2017     1.0  0.07981  0.71931  0.49506  1.0000
  S   S273      1.0  0.05383  0.70689  0.85080  1.0000
  H   H2018     1.0  0.16732  0.70424  0.88041  1.0000
  H   H2019     1.0  0.12301  0.71516  0.64737  1.0000
  H   H2020     1.0  0.00796  0.51836  0.62585  1.0000
  C   C1174     1.0  0.06878  0.70750  0.88861  1.0000
  H   H2021     1.0  0.11743  0.63862  0.97772  1.0000
  H   H2022     1.0  0.07797  0.69733  0.86815  1.0000
  Fe  Fe138     1.0  0.21629  0.69810  0.85273  1.0000
  H   H2023     1.0  0.07973  0.70347  0.89256  1.0000
  H   H2024     1.0  0.01230  0.48658  0.51264  1.0000
  S   S274      1.0  0.18259  0.50069  0.93626  1.0000
  H   H2025     1.0  0.11030  0.69336  0.71801  1.0000
  H   H2026     1.0  0.07849  0.56326  0.70355  1.0000
  H   H2027     1.0  0.14061  0.52915  0.93726  1.0000
  C   C1175     1.0  0.99984  0.66734  0.70022  1.0000
  C   C1176     1.0  0.15799  0.71394  0.88470  1.0000
  H   H2028     1.0  0.99189  0.59664  0.56277  1.0000
  H   H2029     1.0  0.08190  0.73317  0.79408  1.0000
  C   C1177     1.0  0.04334  0.72686  0.75520  1.0000
  H   H2030     1.0  0.06113  0.72642  0.73410  1.0000
  H   H2031     1.0  0.02332  0.71560  0.64725  1.0000
  C   C1178     1.0  0.11612  0.66268  0.97782  1.0000
  H   H2032     1.0  0.04358  0.57911  0.70536  1.0000
  H   H2033     1.0  0.04644  0.55189  0.71992  1.0000
  H   H2034     1.0  0.14721  0.50476  0.89767  1.0000
  H   H2035     1.0  0.11574  0.70601  0.84611  1.0000
  H   H2036     1.0  0.16726  0.49835  0.89898  1.0000
  H   H2037     1.0  0.99679  0.64610  0.69666  1.0000
  C   C1179     1.0  0.06742  0.57142  0.70777  1.0000
  H   H2038     1.0  0.11314  0.70609  0.76864  1.0000
  H   H2039     1.0  0.22487  0.59569  0.93738  1.0000
  C   C1180     1.0  0.15476  0.72255  0.94311  1.0000
  C   C1181     1.0  0.19999  0.48877  0.91017  1.0000
  H   H2040     1.0  0.00297  0.66133  0.71177  1.0000
  H   H2041     1.0  0.22390  0.61107  0.89514  1.0000
  C   C1182     1.0  0.09474  0.70481  0.75827  1.0000
  C   C1183     1.0  0.06790  0.72654  0.49401  1.0000
  C   C1184     1.0  0.23350  0.58808  0.93029  1.0000
  C   C1185     1.0  0.22923  0.57579  0.92700  1.0000
  H   H2042     1.0  0.21528  0.59976  0.87714  1.0000
  H   H2043     1.0  0.99473  0.71058  0.52918  1.0000
  C   C1186     1.0  0.13052  0.73289  0.66377  1.0000
  C   C1187     1.0  0.06274  0.72356  0.48060  1.0000
  H   H2044     1.0  0.08570  0.72967  0.87216  1.0000
  Fe  Fe139     1.0  0.23265  0.71290  0.86816  1.0000
  H   H2045     1.0  0.00585  0.65305  0.57212  1.0000
  H   H2046     1.0  0.22988  0.64490  0.91488  1.0000
  H   H2047     1.0  0.13597  0.64334  0.97375  1.0000
  H   H2048     1.0  0.21567  0.49471  0.96406  1.0000
  H   H2049     1.0  0.01091  0.68423  0.54005  1.0000
  C   C1188     1.0  0.10997  0.71296  0.85532  1.0000
  C   C1189     1.0  0.16550  0.72729  0.88497  1.0000
  H   H2050     1.0  0.11925  0.71583  0.85919  1.0000
  H   H2051     1.0  0.06178  0.73212  0.80340  1.0000
  H   H2052     1.0  0.16151  0.70977  0.67460  1.0000
  H   H2053     1.0  0.01987  0.56027  0.71754  1.0000
  H   H2054     1.0  0.07676  0.71580  0.64708  1.0000
  H   H2055     1.0  0.00449  0.66674  0.54131  1.0000
  Fe  Fe140     1.0  0.99713  0.72048  0.84049  1.0000
  H   H2056     1.0  0.06165  0.50146  0.59739  1.0000
  H   H2057     1.0  0.15848  0.70959  0.94663  1.0000
  H   H2058     1.0  0.10437  0.70716  0.70094  1.0000
  H   H2059     1.0  0.99227  0.67535  0.78971  1.0000
  H   H2060     1.0  0.02092  0.53502  0.72844  1.0000
  H   H2061     1.0  0.00460  0.67349  0.66885  1.0000
  C   C1190     1.0  0.00179  0.67615  0.63825  1.0000
  H   H2062     1.0  0.01056  0.54036  0.50211  1.0000
  H   H2063     1.0  0.23447  0.58660  0.87461  1.0000
  H   H2064     1.0  0.14260  0.70915  0.63622  1.0000
  H   H2065     1.0  0.06127  0.72924  0.65721  1.0000
  H   H2066     1.0  0.00124  0.60546  0.57219  1.0000
  C   C1191     1.0  0.02072  0.72273  0.48583  1.0000
  H   H2067     1.0  0.04886  0.73209  0.76145  1.0000
  H   H2068     1.0  0.99854  0.65734  0.81551  1.0000
  S   S275      1.0  0.23579  0.68827  0.86576  1.0000
  H   H2069     1.0  0.14270  0.54352  0.96668  1.0000
  H   H2070     1.0  0.19105  0.59375  0.97845  1.0000
  H   H2071     1.0  0.99576  0.72405  0.64467  1.0000
  H   H2072     1.0  0.20999  0.53859  0.97171  1.0000
  H   H2073     1.0  0.05950  0.72331  0.50528  1.0000
  H   H2074     1.0  0.22089  0.58829  0.96919  1.0000
  H   H2075     1.0  0.13095  0.61681  0.96843  1.0000
  C   C1192     1.0  0.12412  0.64786  0.97087  1.0000
  H   H2076     1.0  0.05304  0.49068  0.55168  1.0000
  H   H2077     1.0  0.12351  0.67156  0.97312  1.0000
  H   H2078     1.0  0.22910  0.64961  0.86300  1.0000
  S   S276      1.0  0.99249  0.59207  0.62144  1.0000
  C   C1193     1.0  0.99379  0.57056  0.70549  1.0000
  H   H2079     1.0  0.99500  0.58299  0.70122  1.0000
  H   H2080     1.0  0.23715  0.57255  0.96427  1.0000
  C   C1194     1.0  0.09885  0.72794  0.84876  1.0000
  H   H2081     1.0  0.15608  0.72783  0.95225  1.0000
  C   C1195     1.0  0.20647  0.48794  0.97058  1.0000
  H   H2082     1.0  0.15436  0.50763  0.97213  1.0000
  C   C1196     1.0  0.23705  0.61807  0.87085  1.0000
  H   H2083     1.0  0.22632  0.66136  0.83609  1.0000
  C   C1197     1.0  0.24011  0.56619  0.91744  1.0000
  H   H2084     1.0  0.21612  0.55692  0.96746  1.0000
  H   H2085     1.0  0.06228  0.71097  0.48341  1.0000
  H   H2086     1.0  0.16472  0.52035  0.97476  1.0000
  H   H2087     1.0  0.23470  0.51518  0.97434  1.0000
  H   H2088     1.0  0.03445  0.51533  0.48553  1.0000
  C   C1198     1.0  0.19111  0.49920  0.97604  1.0000
  S   S277      1.0  0.17459  0.54721  0.97650  1.0000
  C   C1199     1.0  0.02698  0.52737  0.48499  1.0000
  C   C1200     1.0  0.01349  0.48528  0.48883  1.0000
  S   S278      1.0  0.08663  0.73411  0.93047  1.0000
  H   H2089     1.0  0.10929  0.73314  0.69833  1.0000
  H   H2090     1.0  0.11724  0.77120  0.28961  1.0000
  H   H2091     1.0  0.10674  0.82483  0.31667  1.0000
  Fe  Fe141     1.0  0.12328  0.88999  0.23948  1.0000
  S   S279      1.0  0.12845  0.90644  0.25096  1.0000
  S   S280      1.0  0.13775  0.88035  0.21846  1.0000
  Fe  Fe142     1.0  0.09334  0.88500  0.26386  1.0000
  S   S281      1.0  0.09565  0.90118  0.27755  1.0000
  S   S282      1.0  0.07753  0.86762  0.27314  1.0000
  Fe  Fe143     1.0  0.10256  0.91688  0.25389  1.0000
  S   S283      1.0  0.09349  0.94311  0.24717  1.0000
  Fe  Fe144     1.0  0.12132  0.88954  0.27349  1.0000
  S   S284      1.0  0.13370  0.87901  0.29355  1.0000
  S   S285      1.0  0.09788  0.90162  0.24053  1.0000
  S   S286      1.0  0.11848  0.87226  0.26169  1.0000
  H   H2092     1.0  0.07828  0.77912  0.31845  1.0000
  H   H2093     1.0  0.13765  0.78599  0.28601  1.0000
  S   S287      1.0  0.19105  0.82378  0.35180  1.0000
  H   H2094     1.0  0.15792  0.77163  0.31220  1.0000
  Fe  Fe145     1.0  0.03095  0.80513  0.23018  1.0000
  S   S288      1.0  0.01953  0.79178  0.25317  1.0000
  S   S289      1.0  0.04236  0.79288  0.21009  1.0000
  Fe  Fe146     1.0  0.02648  0.83372  0.24339  1.0000
  S   S290      1.0  0.01428  0.82276  0.26758  1.0000
  S   S291      1.0  0.03178  0.85795  0.23652  1.0000
  Fe  Fe147     1.0  0.03320  0.80130  0.26406  1.0000
  S   S292      1.0  0.04567  0.78370  0.28206  1.0000
  H   H2095     1.0  0.05228  0.74540  0.36289  1.0000
  S   S293      1.0  0.04638  0.81277  0.24091  1.0000
  S   S294      1.0  0.01200  0.82706  0.23057  1.0000
  H   H2096     1.0  0.14187  0.77052  0.01141  1.0000
  S   S295      1.0  0.07467  0.81056  0.32217  1.0000
  S   S296      1.0  0.11457  0.78187  0.03375  1.0000
  H   H2097     1.0  0.15467  0.79124  0.35463  1.0000
  S   S297      1.0  0.15901  0.83672  0.05490  1.0000
  C   C1201     1.0  0.09334  0.79970  0.25459  1.0000
  Fe  Fe148     1.0  0.16663  0.81074  0.06399  1.0000
  S   S298      1.0  0.15009  0.79495  0.07856  1.0000
  C   C1202     1.0  0.04829  0.75072  0.44949  1.0000
  H   H2098     1.0  0.24043  0.91078  0.29461  1.0000
  H   H2099     1.0  0.18845  0.77194  0.06618  1.0000
  H   H2100     1.0  0.14831  0.76335  0.10183  1.0000
  C   C1203     1.0  0.12404  0.78538  0.04661  1.0000
  C   C1204     1.0  0.12499  0.77532  0.06129  1.0000
  C   C1205     1.0  0.13285  0.77833  0.07117  1.0000
  C   C1206     1.0  0.13984  0.79138  0.06639  1.0000
  C   C1207     1.0  0.13888  0.80139  0.05171  1.0000
  C   C1208     1.0  0.13103  0.79839  0.04187  1.0000
  H   H2101     1.0  0.11988  0.76511  0.06495  1.0000
  H   H2102     1.0  0.13361  0.77044  0.08241  1.0000
  H   H2103     1.0  0.14398  0.81164  0.04798  1.0000
  H   H2104     1.0  0.13026  0.80633  0.03061  1.0000
  C   C1209     1.0  0.05348  0.79145  0.29316  1.0000
  C   C1210     1.0  0.05011  0.80759  0.29243  1.0000
  C   C1211     1.0  0.05659  0.81343  0.30144  1.0000
  C   C1212     1.0  0.06685  0.80321  0.31076  1.0000
  C   C1213     1.0  0.07038  0.78709  0.31130  1.0000
  C   C1214     1.0  0.06341  0.78121  0.30280  1.0000
  H   H2105     1.0  0.04237  0.81555  0.28508  1.0000
  H   H2106     1.0  0.05371  0.82589  0.30114  1.0000
  S   S299      1.0  0.18874  0.81243  0.06976  1.0000
  H   H2107     1.0  0.06586  0.76871  0.30360  1.0000
  C   C1215     1.0  0.03034  0.78470  0.20386  1.0000
  C   C1216     1.0  0.12349  0.75171  0.98054  1.0000
  H   H2108     1.0  0.12189  0.85083  0.29232  1.0000
  H   H2109     1.0  0.18207  0.84719  0.24345  1.0000
  C   C1217     1.0  0.00779  0.78754  0.19301  1.0000
  C   C1218     1.0  0.01637  0.79385  0.19956  1.0000
  H   H2110     1.0  0.17308  0.79974  0.36487  1.0000
  H   H2111     1.0  0.08256  0.80772  0.01612  1.0000
  C   C1219     1.0  0.09282  0.76089  0.11268  1.0000
  H   H2112     1.0  0.01250  0.80594  0.20077  1.0000
  C   C1220     1.0  0.17662  0.81914  0.34516  1.0000
  C   C1221     1.0  0.17223  0.82765  0.33107  1.0000
  C   C1222     1.0  0.16160  0.82300  0.32545  1.0000
  C   C1223     1.0  0.03546  0.76915  0.20198  1.0000
  C   C1224     1.0  0.01281  0.77192  0.19128  1.0000
  C   C1225     1.0  0.10109  0.95579  0.25336  1.0000
  C   C1226     1.0  0.09476  0.97201  0.24999  1.0000
  H   H2113     1.0  0.23136  0.73933  0.07290  1.0000
  H   H2114     1.0  0.20039  0.78654  0.00739  1.0000
  C   C1227     1.0  0.11917  0.96053  0.26612  1.0000
  C   C1228     1.0  0.11335  0.95006  0.26143  1.0000
  H   H2115     1.0  0.20017  0.73534  0.17899  1.0000
  C   C1229     1.0  0.07422  0.73730  0.98623  1.0000
  H   H2116     1.0  0.12852  0.95602  0.27252  1.0000
  H   H2117     1.0  0.11823  0.93757  0.26420  1.0000
  C   C1230     1.0  0.06510  0.86528  0.26247  1.0000
  C   C1231     1.0  0.06000  0.85113  0.26666  1.0000
  C   C1232     1.0  0.04990  0.84878  0.25866  1.0000
  C   C1233     1.0  0.04458  0.86070  0.24657  1.0000
  C   C1234     1.0  0.04963  0.87491  0.24237  1.0000
  C   C1235     1.0  0.05999  0.87716  0.25022  1.0000
  H   H2118     1.0  0.06392  0.84196  0.27615  1.0000
  H   H2119     1.0  0.04604  0.83783  0.26198  1.0000
  H   H2120     1.0  0.04548  0.88419  0.23305  1.0000
  H   H2121     1.0  0.06371  0.88818  0.24709  1.0000
  C   C1236     1.0  0.15387  0.87844  0.28971  1.0000
  C   C1237     1.0  0.16254  0.86857  0.30067  1.0000
  C   C1238     1.0  0.17859  0.86812  0.29825  1.0000
  C   C1239     1.0  0.18602  0.87759  0.28490  1.0000
  C   C1240     1.0  0.17742  0.88735  0.27380  1.0000
  C   C1241     1.0  0.16132  0.88777  0.27619  1.0000
  H   H2122     1.0  0.15681  0.86130  0.31109  1.0000
  H   H2123     1.0  0.18519  0.86051  0.30678  1.0000
  C   C1242     1.0  0.11583  0.84095  0.29550  1.0000
  H   H2124     1.0  0.15463  0.89554  0.26779  1.0000
  H   H2125     1.0  0.19725  0.76798  0.11569  1.0000
  H   H2126     1.0  0.00204  0.77262  0.22952  1.0000
  Fe  Fe149     1.0  0.17259  0.83125  0.03163  1.0000
  H   H2127     1.0  0.14612  0.86264  0.38880  1.0000
  C   C1243     1.0  0.99867  0.75603  0.12666  1.0000
  H   H2128     1.0  0.23860  0.89346  0.27875  1.0000
  C   C1244     1.0  0.17157  0.91051  0.18638  1.0000
  C   C1245     1.0  0.16606  0.91144  0.20216  1.0000
  C   C1246     1.0  0.15558  0.90223  0.21209  1.0000
  C   C1247     1.0  0.15080  0.89195  0.20629  1.0000
  C   C1248     1.0  0.15661  0.89077  0.19060  1.0000
  C   C1249     1.0  0.16685  0.90018  0.18059  1.0000
  H   H2129     1.0  0.16986  0.91929  0.20669  1.0000
  H   H2130     1.0  0.15143  0.90292  0.22425  1.0000
  H   H2131     1.0  0.15301  0.88276  0.18611  1.0000
  H   H2132     1.0  0.17091  0.89955  0.16835  1.0000
  N   N65       1.0  0.10345  0.86477  0.20670  1.0000
  C   C1250     1.0  0.09366  0.87945  0.21223  1.0000
  C   C1251     1.0  0.11165  0.85373  0.21936  1.0000
  C   C1252     1.0  0.11585  0.86977  0.19243  1.0000
  C   C1253     1.0  0.09375  0.85665  0.20170  1.0000
  C   C1254     1.0  0.07994  0.85099  0.21440  1.0000
  C   C1255     1.0  0.08463  0.89202  0.20044  1.0000
  C   C1256     1.0  0.12970  0.85646  0.18703  1.0000
  C   C1257     1.0  0.10281  0.85332  0.23678  1.0000
  C   C1258     1.0  0.11144  0.84014  0.24805  1.0000
  C   C1259     1.0  0.06969  0.84521  0.20731  1.0000
  C   C1260     1.0  0.07552  0.90634  0.20738  1.0000
  C   C1261     1.0  0.13908  0.86219  0.17052  1.0000
  H   H2133     1.0  0.10135  0.88516  0.21553  1.0000
  H   H2134     1.0  0.08468  0.87667  0.22308  1.0000
  H   H2135     1.0  0.11509  0.84152  0.21743  1.0000
  H   H2136     1.0  0.12284  0.85697  0.21865  1.0000
  H   H2137     1.0  0.12127  0.87844  0.19455  1.0000
  H   H2138     1.0  0.11040  0.87597  0.18215  1.0000
  H   H2139     1.0  0.08905  0.86429  0.19136  1.0000
  H   H2140     1.0  0.10121  0.84603  0.19749  1.0000
  H   H2141     1.0  0.07225  0.86051  0.22018  1.0000
  H   H2142     1.0  0.08454  0.84094  0.22333  1.0000
  H   H2143     1.0  0.09278  0.89625  0.18940  1.0000
  H   H2144     1.0  0.07597  0.88723  0.19761  1.0000
  H   H2145     1.0  0.12561  0.84612  0.18679  1.0000
  H   H2146     1.0  0.13795  0.85249  0.19514  1.0000
  H   H2147     1.0  0.10208  0.86455  0.23990  1.0000
  H   H2148     1.0  0.09067  0.85171  0.23903  1.0000
  H   H2149     1.0  0.12342  0.84188  0.24687  1.0000
  H   H2150     1.0  0.10483  0.84027  0.26035  1.0000
  H   H2151     1.0  0.11234  0.82854  0.24566  1.0000
  H   H2152     1.0  0.06025  0.84067  0.21680  1.0000
  H   H2153     1.0  0.06399  0.85501  0.19883  1.0000
  H   H2154     1.0  0.07675  0.83557  0.20130  1.0000
  H   H2155     1.0  0.06906  0.91513  0.19880  1.0000
  H   H2156     1.0  0.06683  0.90293  0.21833  1.0000
  H   H2157     1.0  0.08370  0.91193  0.21003  1.0000
  H   H2158     1.0  0.13170  0.86516  0.16171  1.0000
  H   H2159     1.0  0.14335  0.87273  0.16995  1.0000
  H   H2160     1.0  0.14946  0.85281  0.16734  1.0000
  C   C1262     1.0  0.21949  0.85745  0.12974  1.0000
  C   C1263     1.0  0.17423  0.75428  0.07713  1.0000
  C   C1264     1.0  0.23019  0.97578  0.11270  1.0000
  C   C1265     1.0  0.22439  0.96576  0.09318  1.0000
  H   H2161     1.0  0.19666  0.89466  0.23713  1.0000
  H   H2162     1.0  0.14687  0.86009  0.34182  1.0000
  H   H2163     1.0  0.14165  0.95316  0.22799  1.0000
  H   H2164     1.0  0.05247  0.74549  0.27744  1.0000
  H   H2165     1.0  0.22077  0.78053  0.07141  1.0000
  H   H2166     1.0  0.23708  0.82127  0.05691  1.0000
  C   C1266     1.0  0.18318  0.75595  0.10018  1.0000
  N   N66       1.0  0.08215  0.77673  0.10836  1.0000
  H   H2167     1.0  0.07665  0.77178  0.08872  1.0000
  C   C1267     1.0  0.13709  0.78122  0.27619  1.0000
  C   C1268     1.0  0.18644  0.88279  0.09505  1.0000
  H   H2168     1.0  0.15852  0.82951  0.31436  1.0000
  H   H2169     1.0  0.19624  0.89437  0.21000  1.0000
  C   C1269     1.0  0.05772  0.73443  0.39650  1.0000
  C   C1270     1.0  0.15299  0.78812  0.98662  1.0000
  H   H2170     1.0  0.06468  0.86415  0.32981  1.0000
  H   H2171     1.0  0.13816  0.82385  0.29423  1.0000
  H   H2172     1.0  0.13131  0.83089  0.27614  1.0000
  Fe  Fe150     1.0  0.11467  0.75959  0.33435  1.0000
  C   C1271     1.0  0.06974  0.76837  0.22991  1.0000
  H   H2173     1.0  0.04032  0.76414  0.24356  1.0000
  H   H2174     1.0  0.17667  0.88300  0.23053  1.0000
  N   N67       1.0  0.17876  0.74544  0.09251  1.0000
  C   C1272     1.0  0.15235  0.95493  0.21871  1.0000
  C   C1273     1.0  0.18719  0.76094  0.06395  1.0000
  H   H2175     1.0  0.19061  0.84674  0.39723  1.0000
  H   H2176     1.0  0.20962  0.78046  0.98891  1.0000
  C   C1274     1.0  0.17500  0.85879  0.23897  1.0000
  C   C1275     1.0  0.16080  0.86228  0.25223  1.0000
  H   H2177     1.0  0.17041  0.85824  0.22902  1.0000
  H   H2178     1.0  0.09289  0.74241  0.37446  1.0000
  H   H2179     1.0  0.16465  0.86183  0.26299  1.0000
  H   H2180     1.0  0.15336  0.87407  0.24866  1.0000
  H   H2181     1.0  0.15356  0.85338  0.25509  1.0000
  H   H2182     1.0  0.00822  0.77104  0.39682  1.0000
  H   H2183     1.0  0.02561  0.77868  0.32085  1.0000
  C   C1276     1.0  0.09143  0.87631  0.32599  1.0000
  H   H2184     1.0  0.12822  0.76114  0.26484  1.0000
  H   H2185     1.0  0.19409  0.82283  0.00439  1.0000
  H   H2186     1.0  0.13752  0.85416  0.41742  1.0000
  H   H2187     1.0  0.18964  0.76906  0.28834  1.0000
  C   C1277     1.0  0.16714  0.87478  0.36050  1.0000
  C   C1278     1.0  0.20436  0.77640  0.00154  1.0000
  C   C1279     1.0  0.08805  0.78899  0.11211  1.0000
  S   S300      1.0  0.17586  0.87996  0.12709  1.0000
  C   C1280     1.0  0.05385  0.85946  0.31383  1.0000
  C   C1281     1.0  0.09908  0.89025  0.32287  1.0000
  C   C1282     1.0  0.07391  0.79677  0.08376  1.0000
  H   H2188     1.0  0.06425  0.76127  0.25504  1.0000
  H   H2189     1.0  0.09210  0.76538  0.24930  1.0000
  C   C1283     1.0  0.06314  0.77271  0.13571  1.0000
  C   C1284     1.0  0.04601  0.77221  0.14377  1.0000
  H   H2190     1.0  0.08270  0.82467  0.25007  1.0000
  C   C1285     1.0  0.17309  0.83118  0.99510  1.0000
  C   C1286     1.0  0.18850  0.87984  0.36882  1.0000
  H   H2191     1.0  0.07938  0.80044  0.11098  1.0000
  S   S301      1.0  0.18441  0.92219  0.17398  1.0000
  Fe  Fe151     1.0  0.19154  0.91612  0.15027  1.0000
  C   C1287     1.0  0.09963  0.75676  0.27894  1.0000
  H   H2192     1.0  0.20749  0.91494  0.21572  1.0000
  C   C1288     1.0  0.01838  0.78641  0.32901  1.0000
  H   H2193     1.0  0.11434  0.86082  0.32043  1.0000
  H   H2194     1.0  0.07912  0.80595  0.08503  1.0000
  H   H2195     1.0  0.06120  0.79911  0.08935  1.0000
  H   H2196     1.0  0.04238  0.74303  0.30560  1.0000
  H   H2197     1.0  0.00421  0.79905  0.31173  1.0000
  H   H2198     1.0  0.08137  0.79675  0.98023  1.0000
  H   H2199     1.0  0.10944  0.80158  0.11938  1.0000
  C   C1289     1.0  0.04089  0.74827  0.27414  1.0000
  C   C1290     1.0  0.01094  0.76000  0.39260  1.0000
  H   H2200     1.0  0.04247  0.76273  0.14090  1.0000
  S   S302      1.0  0.17875  0.80528  0.04042  1.0000
  H   H2201     1.0  0.03804  0.78362  0.14006  1.0000
  H   H2202     1.0  0.16219  0.87923  0.98795  1.0000
  H   H2203     1.0  0.10744  0.77543  0.23968  1.0000
  H   H2204     1.0  0.10441  0.86869  0.30487  1.0000
  H   H2205     1.0  0.01988  0.80798  0.31100  1.0000
  H   H2206     1.0  0.06024  0.76905  0.11396  1.0000
  H   H2207     1.0  0.13166  0.74352  0.10907  1.0000
  H   H2208     1.0  0.06619  0.79909  0.35751  1.0000
  H   H2209     1.0  0.10960  0.82975  0.37137  1.0000
  C   C1291     1.0  0.07524  0.79858  0.06620  1.0000
  C   C1292     1.0  0.04069  0.74857  0.11580  1.0000
  H   H2210     1.0  0.14559  0.76973  0.27634  1.0000
  H   H2211     1.0  0.22626  0.85869  0.25781  1.0000
  C   C1293     1.0  0.99875  0.74675  0.09114  1.0000
  H   H2212     1.0  0.11476  0.76802  0.99566  1.0000
  C   C1294     1.0  0.20790  0.89087  0.22901  1.0000
  H   H2213     1.0  0.03296  0.79339  0.37335  1.0000
  C   C1295     1.0  0.20215  0.77038  0.10281  1.0000
  H   H2214     1.0  0.09220  0.79888  0.24297  1.0000
  C   C1296     1.0  0.20487  0.88486  0.21590  1.0000
  H   H2215     1.0  0.00041  0.75888  0.38934  1.0000
  H   H2216     1.0  0.07928  0.78266  0.26652  1.0000
  H   H2217     1.0  0.19398  0.86487  0.17743  1.0000
  H   H2218     1.0  0.20672  0.84689  0.18547  1.0000
  H   H2219     1.0  0.12378  0.78015  0.25317  1.0000
  H   H2220     1.0  0.17725  0.83763  0.32437  1.0000
  H   H2221     1.0  0.12773  0.82434  0.99123  1.0000
  H   H2222     1.0  0.06805  0.80040  0.01170  1.0000
  H   H2223     1.0  0.07447  0.75959  0.27970  1.0000
  H   H2224     1.0  0.00719  0.74798  0.13347  1.0000
  C   C1297     1.0  0.08104  0.81392  0.25926  1.0000
  H   H2225     1.0  0.03219  0.75588  0.34354  1.0000
  C   C1298     1.0  0.18479  0.87158  0.23403  1.0000
  H   H2226     1.0  0.11338  0.74031  0.25617  1.0000
  H   H2227     1.0  0.19181  0.85544  0.20993  1.0000
  H   H2228     1.0  0.09532  0.75914  0.12447  1.0000
  H   H2229     1.0  0.09461  0.77772  0.08403  1.0000
  H   H2230     1.0  0.17516  0.90026  0.37902  1.0000
  C   C1299     1.0  0.03035  0.74812  0.30340  1.0000
  C   C1300     1.0  0.10401  0.76592  0.24982  1.0000
  S   S303      1.0  0.20163  0.86552  0.32883  1.0000
  H   H2231     1.0  0.11145  0.84778  0.34516  1.0000
  H   H2232     1.0  0.16876  0.85399  0.11996  1.0000
  S   S304      1.0  0.17672  0.92266  0.13233  1.0000
  C   C1301     1.0  0.20435  0.82836  0.38545  1.0000
  C   C1302     1.0  0.10605  0.83757  0.34747  1.0000
  H   H2233     1.0  0.15995  0.94295  0.21872  1.0000
  H   H2234     1.0  0.23940  0.93827  0.11343  1.0000
  C   C1303     1.0  0.12757  0.82727  0.28911  1.0000
  H   H2235     1.0  0.13910  0.87442  0.41220  1.0000
  C   C1304     1.0  0.16980  0.80633  0.35390  1.0000
  H   H2236     1.0  0.12211  0.81698  0.29192  1.0000
  C   C1305     1.0  0.15545  0.80967  0.33373  1.0000
  C   C1306     1.0  0.15930  0.80155  0.34817  1.0000
  H   H2237     1.0  0.12086  0.83423  0.31841  1.0000
  H   H2238     1.0  0.10004  0.81606  0.10457  1.0000
  S   S305      1.0  0.23065  0.83746  0.34067  1.0000
  H   H2239     1.0  0.19869  0.75253  0.06305  1.0000
  S   S306      1.0  0.10358  0.79780  0.34997  1.0000
  C   C1307     1.0  0.17696  0.85588  0.09488  1.0000
  C   C1308     1.0  0.11020  0.83639  0.31364  1.0000
  H   H2240     1.0  0.10592  0.84451  0.28940  1.0000
  N   N68       1.0  0.04244  0.74159  0.26009  1.0000
  H   H2241     1.0  0.10462  0.79542  0.08950  1.0000
  H   H2242     1.0  0.17215  0.96566  0.21686  1.0000
  C   C1309     1.0  0.10965  0.76352  0.98839  1.0000
  H   H2243     1.0  0.13781  0.75118  0.03842  1.0000
  C   C1310     1.0  0.12040  0.77921  0.27809  1.0000
  S   S307      1.0  0.18862  0.85875  0.06273  1.0000
  C   C1311     1.0  0.11565  0.75049  0.24646  1.0000
  H   H2244     1.0  0.18120  0.75130  0.11317  1.0000
  H   H2245     1.0  0.06899  0.81231  0.26058  1.0000
  C   C1312     1.0  0.10254  0.86328  0.31767  1.0000
  H   H2246     1.0  0.08258  0.84915  0.34439  1.0000
  H   H2247     1.0  0.18308  0.89489  0.26362  1.0000
  H   H2248     1.0  0.10504  0.80205  0.25328  1.0000
  H   H2249     1.0  0.08385  0.86079  0.30281  1.0000
  H   H2250     1.0  0.07584  0.75157  0.16667  1.0000
  N   N69       1.0  0.09694  0.84827  0.32096  1.0000
  S   S308      1.0  0.00163  0.76424  0.18333  1.0000
  C   C1313     1.0  0.11938  0.77244  0.26454  1.0000
  H   H2251     1.0  0.10177  0.89554  0.31009  1.0000
  H   H2252     1.0  0.08894  0.78679  0.27888  1.0000
  S   S309      1.0  0.21921  0.73704  0.12810  1.0000
  H   H2253     1.0  0.14675  0.86893  0.99094  1.0000
  H   H2254     1.0  0.15632  0.74403  0.01452  1.0000
  H   H2255     1.0  0.03869  0.79403  0.32963  1.0000
  H   H2256     1.0  0.11460  0.97547  0.21234  1.0000
  C   C1314     1.0  0.18868  0.82318  0.99501  1.0000
  C   C1315     1.0  0.08312  0.85106  0.31341  1.0000
  C   C1316     1.0  0.01080  0.80170  0.31902  1.0000
  C   C1317     1.0  0.09078  0.78446  0.26701  1.0000
  N   N70       1.0  0.10346  0.76990  0.26506  1.0000
  H   H2257     1.0  0.05505  0.87070  0.30521  1.0000
  H   H2258     1.0  0.09114  0.84333  0.36943  1.0000
  H   H2259     1.0  0.22948  0.78132  0.25238  1.0000
  C   C1318     1.0  0.17443  0.86069  0.10906  1.0000
  H   H2260     1.0  0.05510  0.85027  0.30735  1.0000
  H   H2261     1.0  0.08845  0.87204  0.33891  1.0000
  H   H2262     1.0  0.09742  0.76059  0.29016  1.0000
  H   H2263     1.0  0.04192  0.86111  0.32155  1.0000
  C   C1319     1.0  0.18128  0.89772  0.36728  1.0000
  H   H2264     1.0  0.08050  0.88078  0.32141  1.0000
  Fe  Fe152     1.0  0.18227  0.83811  0.05831  1.0000
  H   H2265     1.0  0.03014  0.74148  0.23341  1.0000
  H   H2266     1.0  0.08352  0.84065  0.30892  1.0000
  H   H2267     1.0  0.11543  0.82749  0.34413  1.0000
  H   H2268     1.0  0.19186  0.77066  0.03890  1.0000
  H   H2269     1.0  0.06400  0.84387  0.33274  1.0000
  H   H2270     1.0  0.08870  0.83030  0.34021  1.0000
  H   H2271     1.0  0.22315  0.78769  0.29294  1.0000
  C   C1320     1.0  0.02125  0.77293  0.36430  1.0000
  H   H2272     1.0  0.09093  0.89940  0.32899  1.0000
  H   H2273     1.0  0.17334  0.84548  0.09487  1.0000
  H   H2274     1.0  0.15563  0.85450  0.36662  1.0000
  C   C1321     1.0  0.09275  0.84133  0.33835  1.0000
  H   H2275     1.0  0.03864  0.80548  0.35408  1.0000
  C   C1322     1.0  0.06630  0.85460  0.32373  1.0000
  H   H2276     1.0  0.08213  0.81570  0.27053  1.0000
  C   C1323     1.0  0.17920  0.87414  0.10918  1.0000
  H   H2277     1.0  0.18457  0.87579  0.20433  1.0000
  H   H2278     1.0  0.02172  0.79956  0.34398  1.0000
  H   H2279     1.0  0.22048  0.77288  0.34703  1.0000
  C   C1324     1.0  0.08526  0.75021  0.27961  1.0000
  H   H2280     1.0  0.11017  0.88649  0.32721  1.0000
  H   H2281     1.0  0.18780  0.87220  0.24493  1.0000
  H   H2282     1.0  0.11243  0.79092  0.27833  1.0000
  C   C1325     1.0  0.18417  0.86461  0.08075  1.0000
  S   S310      1.0  0.07523  0.76959  0.04171  1.0000
  H   H2283     1.0  0.01516  0.78396  0.36848  1.0000
  Fe  Fe153     1.0  0.10064  0.76291  0.04297  1.0000
  C   C1326     1.0  0.09972  0.83317  0.36522  1.0000
  N   N71       1.0  0.19940  0.86956  0.22110  1.0000
  C   C1327     1.0  0.02876  0.78953  0.33846  1.0000
  H   H2284     1.0  0.09391  0.82310  0.36831  1.0000
  C   C1328     1.0  0.04896  0.75274  0.24545  1.0000
  C   C1329     1.0  0.14012  0.95190  0.19858  1.0000
  H   H2285     1.0  0.14058  0.78955  0.26498  1.0000
  H   H2286     1.0  0.23697  0.83091  0.23068  1.0000
  H   H2287     1.0  0.01213  0.76973  0.36048  1.0000
  Fe  Fe154     1.0  0.18816  0.89841  0.12760  1.0000
  C   C1330     1.0  0.16899  0.76166  0.98659  1.0000
  C   C1331     1.0  0.14590  0.86213  0.41258  1.0000
  C   C1332     1.0  0.19524  0.86690  0.20716  1.0000
  H   H2288     1.0  0.21781  0.90901  0.23156  1.0000
  H   H2289     1.0  0.03500  0.76101  0.38261  1.0000
  N   N72       1.0  0.03493  0.77573  0.35067  1.0000
  C   C1333     1.0  0.02500  0.75979  0.37863  1.0000
  S   S311      1.0  0.20095  0.89140  0.14728  1.0000
  C   C1334     1.0  0.04257  0.79473  0.36273  1.0000
  H   H2290     1.0  0.00523  0.76033  0.11460  1.0000
  Fe  Fe155     1.0  0.20742  0.83906  0.33495  1.0000
  H   H2291     1.0  0.02766  0.74817  0.37556  1.0000
  H   H2292     1.0  0.19575  0.87667  0.37779  1.0000
  Fe  Fe156     1.0  0.19832  0.92960  0.11546  1.0000
  C   C1335     1.0  0.21548  0.90509  0.22200  1.0000
  H   H2293     1.0  0.10112  0.75669  0.99682  1.0000
  H   H2294     1.0  0.15670  0.96097  0.16987  1.0000
  Fe  Fe157     1.0  0.00152  0.81420  0.25456  1.0000
  C   C1336     1.0  0.04173  0.76156  0.34325  1.0000
  C   C1337     1.0  0.20915  0.77895  0.32728  1.0000
  S   S312      1.0  0.19913  0.95271  0.09824  1.0000
  C   C1338     1.0  0.21065  0.96219  0.10365  1.0000
  Fe  Fe158     1.0  0.09352  0.79239  0.33271  1.0000
  C   C1339     1.0  0.11431  0.74684  0.23147  1.0000
  H   H2295     1.0  0.22695  0.81595  0.23170  1.0000
  C   C1340     1.0  0.04764  0.78003  0.35545  1.0000
  C   C1341     1.0  0.02656  0.76268  0.19600  1.0000
  H   H2296     1.0  0.22112  0.88667  0.07267  1.0000
  S   S313      1.0  0.16209  0.84068  0.01029  1.0000
  C   C1342     1.0  0.20655  0.96566  0.11859  1.0000
  H   H2297     1.0  0.05520  0.75757  0.43914  1.0000
  C   C1343     1.0  0.16814  0.76533  0.30456  1.0000
  C   C1344     1.0  0.18884  0.87808  0.08091  1.0000
  C   C1345     1.0  0.06545  0.77694  0.11752  1.0000
  C   C1346     1.0  0.08191  0.74347  0.38309  1.0000
  H   H2298     1.0  0.03250  0.73908  0.14042  1.0000
  C   C1347     1.0  0.20573  0.85965  0.18035  1.0000
  H   H2299     1.0  0.21490  0.86117  0.16934  1.0000
  H   H2300     1.0  0.18993  0.89328  0.09496  1.0000
  H   H2301     1.0  0.17710  0.83805  0.28270  1.0000
  S   S314      1.0  0.14491  0.80244  0.32450  1.0000
  H   H2302     1.0  0.03750  0.76133  0.27102  1.0000
  H   H2303     1.0  0.08225  0.76874  0.22795  1.0000
  C   C1348     1.0  0.05504  0.74871  0.34993  1.0000
  C   C1349     1.0  0.05628  0.79732  0.36776  1.0000
  H   H2304     1.0  0.05318  0.77024  0.36403  1.0000
  H   H2305     1.0  0.05242  0.80794  0.37284  1.0000
  H   H2306     1.0  0.06374  0.74591  0.98378  1.0000
  C   C1350     1.0  0.07918  0.80464  0.00665  1.0000
  H   H2307     1.0  0.09419  0.78178  0.01023  1.0000
  H   H2308     1.0  0.07725  0.81535  0.99723  1.0000
  Fe  Fe159     1.0  0.21399  0.86289  0.30432  1.0000
  H   H2309     1.0  0.18278  0.78679  0.98397  1.0000
  C   C1351     1.0  0.20820  0.86787  0.19180  1.0000
  H   H2310     1.0  0.20247  0.83615  0.22884  1.0000
  H   H2311     1.0  0.14978  0.73964  0.27655  1.0000
  H   H2312     1.0  0.03322  0.76012  0.11610  1.0000
  H   H2313     1.0  0.04717  0.76529  0.33060  1.0000
  C   C1352     1.0  0.15107  0.75242  0.11067  1.0000
  H   H2314     1.0  0.16935  0.96294  0.24514  1.0000
  H   H2315     1.0  0.19975  0.90609  0.34818  1.0000
  H   H2316     1.0  0.21596  0.77074  0.29578  1.0000
  H   H2317     1.0  0.22303  0.83492  0.09629  1.0000
  H   H2318     1.0  0.18615  0.76493  0.01600  1.0000
  H   H2319     1.0  0.21610  0.88373  0.20697  1.0000
  H   H2320     1.0  0.22680  0.90202  0.21363  1.0000
  C   C1353     1.0  0.06367  0.75582  0.40352  1.0000
  S   S315      1.0  0.05175  0.76072  0.08486  1.0000
  H   H2321     1.0  0.05737  0.78213  0.34501  1.0000
  H   H2322     1.0  0.00078  0.77571  0.13456  1.0000
  S   S316      1.0  0.06989  0.75000  0.01153  1.0000
  H   H2323     1.0  0.00247  0.80950  0.32663  1.0000
  H   H2324     1.0  0.22559  0.92398  0.17801  1.0000
  C   C1354     1.0  0.09225  0.79183  0.00017  1.0000
  S   S317      1.0  0.20599  0.87730  0.28230  1.0000
  S   S318      1.0  0.21218  0.92480  0.13383  1.0000
  H   H2325     1.0  0.16110  0.84743  0.39719  1.0000
  H   H2326     1.0  0.23112  0.89382  0.18317  1.0000
  H   H2327     1.0  0.21837  0.83930  0.21239  1.0000
  H   H2328     1.0  0.20784  0.88041  0.18583  1.0000
  H   H2329     1.0  0.01867  0.75281  0.25741  1.0000
  H   H2330     1.0  0.17119  0.77329  0.04818  1.0000
  H   H2331     1.0  0.13942  0.87695  0.35071  1.0000
  H   H2332     1.0  0.22013  0.86256  0.19422  1.0000
  H   H2333     1.0  0.99724  0.79480  0.18926  1.0000
  H   H2334     1.0  0.15401  0.77699  0.01964  1.0000
  S   S319      1.0  0.22390  0.79376  0.03819  1.0000
  H   H2335     1.0  0.10324  0.79628  0.99549  1.0000
  C   C1355     1.0  0.05100  0.74562  0.10176  1.0000
  H   H2336     1.0  0.17210  0.74812  0.01987  1.0000
  H   H2337     1.0  0.15921  0.88320  0.38824  1.0000
  H   H2338     1.0  0.06255  0.78024  0.23101  1.0000
  H   H2339     1.0  0.99297  0.75827  0.09427  1.0000
  Fe  Fe160     1.0  0.20011  0.80912  0.04525  1.0000
  S   S320      1.0  0.19518  0.83473  0.03403  1.0000
  H   H2340     1.0  0.20396  0.95614  0.18134  1.0000
  H   H2341     1.0  0.20360  0.78513  0.27107  1.0000
  H   H2342     1.0  0.21358  0.94228  0.19624  1.0000
  C   C1356     1.0  0.13597  0.74630  0.11812  1.0000
  H   H2343     1.0  0.06046  0.78709  0.37681  1.0000
  H   H2344     1.0  0.06933  0.79022  0.06435  1.0000
  H   H2345     1.0  0.12508  0.81033  0.98199  1.0000
  Fe  Fe161     1.0  0.12693  0.78715  0.33629  1.0000
  H   H2346     1.0  0.22442  0.84243  0.15140  1.0000
  H   H2347     1.0  0.01477  0.73628  0.10709  1.0000
  H   H2348     1.0  0.10622  0.74472  0.41638  1.0000
  S   S321      1.0  0.20855  0.90599  0.10907  1.0000
  C   C1357     1.0  0.21239  0.85661  0.22711  1.0000
  H   H2349     1.0  0.22465  0.79037  0.33283  1.0000
  H   H2350     1.0  0.07469  0.74050  0.46273  1.0000
  C   C1358     1.0  0.15025  0.86950  0.34501  1.0000
  H   H2351     1.0  0.22417  0.85941  0.22126  1.0000
  Fe  Fe162     1.0  0.07146  0.75324  0.06527  1.0000
  H   H2352     1.0  0.20709  0.85181  0.38181  1.0000
  S   S322      1.0  0.22970  0.88151  0.34373  1.0000
  H   H2353     1.0  0.04638  0.76214  0.20509  1.0000
  H   H2354     1.0  0.06941  0.81070  0.06112  1.0000
  H   H2355     1.0  0.13509  0.79720  0.00601  1.0000
  H   H2356     1.0  0.20015  0.77204  0.33423  1.0000
  H   H2357     1.0  0.19599  0.96277  0.12673  1.0000
  H   H2358     1.0  0.07440  0.74561  0.24483  1.0000
  C   C1359     1.0  0.21382  0.83983  0.22496  1.0000
  S   S323      1.0  0.11666  0.78296  0.31816  1.0000
  Fe  Fe163     1.0  0.08043  0.74813  0.03191  1.0000
  H   H2359     1.0  0.20565  0.79083  0.34626  1.0000
  H   H2360     1.0  0.22206  0.86815  0.13120  1.0000
  Fe  Fe164     1.0  0.22041  0.90065  0.12913  1.0000
  H   H2361     1.0  0.21791  0.81201  0.07947  1.0000
  Fe  Fe165     1.0  0.22568  0.86372  0.33268  1.0000
  H   H2362     1.0  0.15137  0.80669  0.99892  1.0000
  H   H2363     1.0  0.05093  0.74803  0.23484  1.0000
  C   C1360     1.0  0.16357  0.95594  0.24106  1.0000
  H   H2364     1.0  0.11228  0.94335  0.19905  1.0000
  C   C1361     1.0  0.14353  0.80154  0.99532  1.0000
  C   C1362     1.0  0.23212  0.78359  0.06687  1.0000
  C   C1363     1.0  0.18920  0.80614  0.29364  1.0000
  Fe  Fe166     1.0  0.10247  0.77320  0.36348  1.0000
  S   S324      1.0  0.09016  0.76783  0.38906  1.0000
  H   H2365     1.0  0.10987  0.74670  0.27943  1.0000
  H   H2366     1.0  0.23136  0.80742  0.09218  1.0000
  H   H2367     1.0  0.22530  0.81868  0.18037  1.0000
  H   H2368     1.0  0.15315  0.75643  0.04387  1.0000
  C   C1364     1.0  0.22026  0.81522  0.08940  1.0000
  C   C1365     1.0  0.16058  0.96431  0.22470  1.0000
  H   H2369     1.0  0.07050  0.76110  0.13980  1.0000
  H   H2370     1.0  0.21358  0.76765  0.00716  1.0000
  H   H2371     1.0  0.19104  0.79983  0.32316  1.0000
  H   H2372     1.0  0.14428  0.78357  0.98352  1.0000
  S   S325      1.0  0.09041  0.76888  0.34723  1.0000
  H   H2373     1.0  0.21906  0.77130  0.32072  1.0000
  C   C1366     1.0  0.13396  0.81474  0.98489  1.0000
  H   H2374     1.0  0.22080  0.82686  0.24702  1.0000
  H   H2375     1.0  0.23939  0.77965  0.26763  1.0000
  H   H2376     1.0  0.19525  0.82455  0.30075  1.0000
  H   H2377     1.0  0.12080  0.95003  0.21989  1.0000
  H   H2378     1.0  0.15853  0.75766  0.98625  1.0000
  C   C1367     1.0  0.01290  0.74923  0.07759  1.0000
  H   H2379     1.0  0.12796  0.75145  0.24488  1.0000
  H   H2380     1.0  0.10450  0.76034  0.10437  1.0000
  C   C1368     1.0  0.03096  0.75714  0.44882  1.0000
  H   H2381     1.0  0.17644  0.75119  0.99272  1.0000
  H   H2382     1.0  0.23842  0.84454  0.01617  1.0000
  H   H2383     1.0  0.17380  0.86967  0.39750  1.0000
  C   C1369     1.0  0.15435  0.76929  0.01179  1.0000
  H   H2384     1.0  0.21581  0.88159  0.23587  1.0000
  H   H2385     1.0  0.15598  0.87675  0.33401  1.0000
  S   S326      1.0  0.21791  0.83668  0.31002  1.0000
  H   H2386     1.0  0.21138  0.85585  0.23982  1.0000
  N   N73       1.0  0.16371  0.77475  0.99541  1.0000
  H   H2387     1.0  0.24000  0.81519  0.15409  1.0000
  H   H2388     1.0  0.18473  0.97615  0.16476  1.0000
  H   H2389     1.0  0.05787  0.78882  0.11461  1.0000
  C   C1370     1.0  0.15043  0.88031  0.98572  1.0000
  C   C1371     1.0  0.16654  0.87107  0.38889  1.0000
  H   H2390     1.0  0.07635  0.74482  0.12226  1.0000
  H   H2391     1.0  0.23861  0.87819  0.26185  1.0000
  H   H2392     1.0  0.15412  0.85921  0.42058  1.0000
  H   H2393     1.0  0.03054  0.75067  0.19477  1.0000
  H   H2394     1.0  0.21020  0.80163  0.31202  1.0000
  C   C1372     1.0  0.19709  0.82033  0.28985  1.0000
  H   H2395     1.0  0.17718  0.80948  0.30084  1.0000
  H   H2396     1.0  0.01377  0.74994  0.40241  1.0000
  C   C1373     1.0  0.06492  0.75637  0.24488  1.0000
  C   C1374     1.0  0.23574  0.73850  0.06036  1.0000
  N   N74       1.0  0.14838  0.96215  0.20275  1.0000
  C   C1375     1.0  0.23715  0.89098  0.15930  1.0000
  H   H2397     1.0  0.13599  0.74580  0.99957  1.0000
  H   H2398     1.0  0.11367  0.78102  0.10437  1.0000
  H   H2399     1.0  0.17182  0.85450  0.34993  1.0000
  H   H2400     1.0  0.20993  0.81702  0.28512  1.0000
  C   C1376     1.0  0.22898  0.84274  0.13865  1.0000
  H   H2401     1.0  0.19179  0.83074  0.26668  1.0000
  H   H2402     1.0  0.20472  0.76116  0.08264  1.0000
  H   H2403     1.0  0.12046  0.80671  0.09958  1.0000
  C   C1377     1.0  0.17733  0.78097  0.99598  1.0000
  H   H2404     1.0  0.21825  0.83386  0.05856  1.0000
  H   H2405     1.0  0.08907  0.78570  0.12461  1.0000
  H   H2406     1.0  0.17693  0.78381  0.31749  1.0000
  C   C1378     1.0  0.07781  0.75479  0.39215  1.0000
  C   C1379     1.0  0.08683  0.74642  0.11264  1.0000
  H   H2407     1.0  0.17177  0.95101  0.19198  1.0000
  H   H2408     1.0  0.18878  0.91989  0.36035  1.0000
  H   H2409     1.0  0.20889  0.81488  0.11408  1.0000
  C   C1380     1.0  0.20179  0.79367  0.31598  1.0000
  H   H2410     1.0  0.19598  0.78218  0.09731  1.0000
  H   H2411     1.0  0.19560  0.84415  0.27592  1.0000
  H   H2412     1.0  0.15553  0.98082  0.17094  1.0000
  N   N75       1.0  0.19789  0.79073  0.30200  1.0000
  H   H2413     1.0  0.17849  0.84444  0.37546  1.0000
  H   H2414     1.0  0.13811  0.73551  0.12743  1.0000
  C   C1381     1.0  0.18700  0.77937  0.30835  1.0000
  H   H2415     1.0  0.15452  0.75555  0.12007  1.0000
  H   H2416     1.0  0.18706  0.80509  0.28257  1.0000
  H   H2417     1.0  0.14182  0.88935  0.99170  1.0000
  H   H2418     1.0  0.16376  0.76234  0.29569  1.0000
  H   H2419     1.0  0.21408  0.80005  0.26857  1.0000
  C   C1382     1.0  0.21382  0.78749  0.27374  1.0000
  C   C1383     1.0  0.23636  0.79072  0.05098  1.0000
  C   C1384     1.0  0.13466  0.73872  0.29974  1.0000
  H   H2420     1.0  0.15656  0.88400  0.36374  1.0000
  H   H2421     1.0  0.19311  0.76780  0.31440  1.0000
  N   N76       1.0  0.23333  0.83804  0.07127  1.0000
  H   H2422     1.0  0.22647  0.83247  0.13630  1.0000
  H   H2423     1.0  0.20922  0.83985  0.08413  1.0000
  H   H2424     1.0  0.12349  0.73633  0.22890  1.0000
  H   H2425     1.0  0.19548  0.81848  0.10126  1.0000
  C   C1385     1.0  0.20712  0.81176  0.10377  1.0000
  C   C1386     1.0  0.16240  0.96856  0.17323  1.0000
  H   H2426     1.0  0.16991  0.97089  0.19276  1.0000
  H   H2427     1.0  0.15308  0.97611  0.22562  1.0000
  H   H2428     1.0  0.17318  0.79036  0.00281  1.0000
  H   H2429     1.0  0.00891  0.75799  0.06742  1.0000
  H   H2430     1.0  0.21940  0.86139  0.06498  1.0000
  C   C1387     1.0  0.12031  0.93447  0.20609  1.0000
  H   H2431     1.0  0.06625  0.78166  0.13985  1.0000
  C   C1388     1.0  0.21536  0.78359  0.33903  1.0000
  H   H2432     1.0  0.02854  0.75504  0.43830  1.0000
  H   H2433     1.0  0.17395  0.78647  0.28925  1.0000
  H   H2434     1.0  0.15230  0.95469  0.24960  1.0000
  H   H2435     1.0  0.12509  0.97600  0.22647  1.0000
  C   C1389     1.0  0.23926  0.88740  0.17473  1.0000
  C   C1390     1.0  0.05364  0.74562  0.40573  1.0000
  H   H2436     1.0  0.17359  0.75421  0.31185  1.0000
  H   H2437     1.0  0.19528  0.75874  0.99761  1.0000
  C   C1391     1.0  0.18012  0.77566  0.29627  1.0000
  C   C1392     1.0  0.16371  0.96284  0.19076  1.0000
  C   C1393     1.0  0.10878  0.80483  0.10679  1.0000
  H   H2438     1.0  0.21140  0.82669  0.37365  1.0000
  C   C1394     1.0  0.16157  0.86209  0.35616  1.0000
  H   H2439     1.0  0.19430  0.88495  0.07000  1.0000
  H   H2440     1.0  0.04250  0.74677  0.41409  1.0000
  S   S327      1.0  0.12694  0.76263  0.35147  1.0000
  H   H2441     1.0  0.00880  0.78074  0.33682  1.0000
  C   C1395     1.0  0.23092  0.83363  0.05729  1.0000
  C   C1396     1.0  0.20881  0.94351  0.18581  1.0000
  C   C1397     1.0  0.19059  0.76895  0.00327  1.0000
  H   H2442     1.0  0.14889  0.94277  0.19272  1.0000
  H   H2443     1.0  0.22878  0.82951  0.02951  1.0000
  C   C1398     1.0  0.12941  0.94250  0.21227  1.0000
  H   H2444     1.0  0.08710  0.74497  0.26938  1.0000
  H   H2445     1.0  0.19913  0.93710  0.18960  1.0000
  H   H2446     1.0  0.06610  0.75308  0.34621  1.0000
  H   H2447     1.0  0.11310  0.92758  0.21617  1.0000
  H   H2448     1.0  0.19500  0.82150  0.38912  1.0000
  H   H2449     1.0  0.17540  0.76792  0.09830  1.0000
  C   C1399     1.0  0.13212  0.73980  0.99265  1.0000
  C   C1400     1.0  0.15935  0.75184  0.02025  1.0000
  C   C1401     1.0  0.19406  0.90727  0.36046  1.0000
  C   C1402     1.0  0.10440  0.79181  0.10227  1.0000
  S   S328      1.0  0.09650  0.74822  0.06742  1.0000
  H   H2450     1.0  0.19698  0.87811  0.35758  1.0000
  H   H2451     1.0  0.13300  0.95900  0.18976  1.0000
  H   H2452     1.0  0.08777  0.79639  0.05989  1.0000
  H   H2453     1.0  0.20670  0.85783  0.13426  1.0000
  C   C1403     1.0  0.22111  0.83278  0.08552  1.0000
  C   C1404     1.0  0.15070  0.74883  0.03749  1.0000
  C   C1405     1.0  0.18991  0.83413  0.27803  1.0000
  H   H2454     1.0  0.12852  0.92633  0.19875  1.0000
  H   H2455     1.0  0.20715  0.79904  0.10682  1.0000
  H   H2456     1.0  0.22724  0.89994  0.15606  1.0000
  C   C1406     1.0  0.15493  0.85995  0.39610  1.0000
  C   C1407     1.0  0.16447  0.73982  0.10338  1.0000
  H   H2457     1.0  0.15407  0.83776  0.98307  1.0000
  H   H2458     1.0  0.11602  0.75684  0.22129  1.0000
  H   H2459     1.0  0.20319  0.90323  0.36761  1.0000
  C   C1408     1.0  0.02848  0.74336  0.28921  1.0000
  H   H2460     1.0  0.16439  0.76441  0.07893  1.0000
  C   C1409     1.0  0.99137  0.77010  0.13443  1.0000
  H   H2461     1.0  0.06773  0.73946  0.18478  1.0000
  H   H2462     1.0  0.04456  0.76981  0.15674  1.0000
  H   H2463     1.0  0.06034  0.76475  0.41035  1.0000
  H   H2464     1.0  0.04989  0.75312  0.46023  1.0000
  H   H2465     1.0  0.22593  0.85490  0.03923  1.0000
  C   C1410     1.0  0.19715  0.84577  0.38513  1.0000
  H   H2466     1.0  0.02332  0.75156  0.45954  1.0000
  H   H2467     1.0  0.12673  0.75538  0.12350  1.0000
  H   H2468     1.0  0.13880  0.74760  0.30237  1.0000
  C   C1411     1.0  0.08234  0.78003  0.09105  1.0000
  H   H2469     1.0  0.13668  0.93312  0.21973  1.0000
  H   H2470     1.0  0.21475  0.77033  0.10099  1.0000
  H   H2471     1.0  0.07875  0.77921  0.99391  1.0000
  H   H2472     1.0  0.07969  0.74494  0.43503  1.0000
  S   S329      1.0  0.10632  0.74277  0.03105  1.0000
  C   C1412     1.0  0.21619  0.97268  0.12304  1.0000
  H   H2473     1.0  0.19387  0.85194  0.36136  1.0000
  C   C1413     1.0  0.18283  0.76501  0.04797  1.0000
  C   C1414     1.0  0.07137  0.74061  0.17185  1.0000
  C   C1415     1.0  0.22872  0.77775  0.26527  1.0000
  C   C1416     1.0  0.13868  0.97870  0.20187  1.0000
  C   C1417     1.0  0.20044  0.75784  0.09547  1.0000
  N   N77       1.0  0.17689  0.86936  0.37301  1.0000
  H   H2474     1.0  0.17383  0.88064  0.34913  1.0000
  C   C1418     1.0  0.18627  0.85272  0.37318  1.0000
  C   C1419     1.0  0.21303  0.78375  0.29170  1.0000
  H   H2475     1.0  0.18593  0.95624  0.16346  1.0000
  H   H2476     1.0  0.08521  0.97651  0.24384  1.0000
  H   H2477     1.0  0.02177  0.74380  0.31403  1.0000
  C   C1420     1.0  0.11286  0.97677  0.26270  1.0000
  H   H2478     1.0  0.21223  0.82369  0.39391  1.0000
  H   H2479     1.0  0.02798  0.76111  0.30144  1.0000
  H   H2480     1.0  0.06827  0.76532  0.21942  1.0000
  S   S330      1.0  0.11517  0.73638  0.32943  1.0000
  H   H2481     1.0  0.02790  0.77000  0.44816  1.0000
  C   C1421     1.0  0.02643  0.74080  0.25868  1.0000
  H   H2482     1.0  0.08356  0.74770  0.10140  1.0000
  C   C1422     1.0  0.08777  0.78634  0.98751  1.0000
  H   H2483     1.0  0.08153  0.74135  0.30510  1.0000
  H   H2484     1.0  0.17274  0.90204  0.35951  1.0000
  H   H2485     1.0  0.20827  0.74662  0.09987  1.0000
  C   C1423     1.0  0.22532  0.82769  0.23417  1.0000
  C   C1424     1.0  0.22161  0.93661  0.17300  1.0000
  H   H2486     1.0  0.23978  0.86036  0.05873  1.0000
  H   H2487     1.0  0.23067  0.88379  0.08855  1.0000
  H   H2488     1.0  0.18243  0.75420  0.04476  1.0000
  H   H2489     1.0  0.16928  0.74695  0.07253  1.0000
  H   H2490     1.0  0.22857  0.76504  0.26915  1.0000
  H   H2491     1.0  0.17135  0.94411  0.24084  1.0000
  H   H2492     1.0  0.22242  0.85745  0.11707  1.0000
  C   C1425     1.0  0.23559  0.84430  0.04082  1.0000
  H   H2493     1.0  0.02131  0.75372  0.08121  1.0000
  H   H2494     1.0  0.21308  0.97513  0.13466  1.0000
  H   H2495     1.0  0.23583  0.75050  0.05298  1.0000
  H   H2496     1.0  0.06137  0.73646  0.33071  1.0000
  H   H2497     1.0  0.21611  0.93761  0.16312  1.0000
  S   S331      1.0  0.23735  0.86341  0.30755  1.0000
  H   H2498     1.0  0.17724  0.97265  0.14986  1.0000
  H   H2499     1.0  0.21923  0.86127  0.09163  1.0000
  H   H2500     1.0  0.23551  0.82157  0.19347  1.0000
  C   C1426     1.0  0.23080  0.85569  0.06862  1.0000
  H   H2501     1.0  0.23476  0.84522  0.27366  1.0000
  H   H2502     1.0  0.01645  0.74932  0.28727  1.0000
  H   H2503     1.0  0.23028  0.95780  0.16176  1.0000
  C   C1427     1.0  0.17861  0.96836  0.16223  1.0000
  H   H2504     1.0  0.10267  0.74419  0.23298  1.0000
  H   H2505     1.0  0.00146  0.74382  0.24458  1.0000
  H   H2506     1.0  0.23967  0.77434  0.08894  1.0000
  C   C1428     1.0  0.10057  0.98245  0.25469  1.0000
  H   H2507     1.0  0.06093  0.74162  0.16716  1.0000
  H   H2508     1.0  0.23822  0.83968  0.25520  1.0000
  C   C1429     1.0  0.23121  0.87952  0.07802  1.0000
  C   C1430     1.0  0.08231  0.73732  0.29435  1.0000
  C   C1431     1.0  0.23044  0.86217  0.08287  1.0000
  C   C1432     1.0  0.16618  0.83165  0.98291  1.0000
  C   C1433     1.0  0.12317  0.98098  0.21436  1.0000
  C   C1434     1.0  0.23703  0.81668  0.18306  1.0000
  C   C1435     1.0  0.23674  0.84964  0.26071  1.0000
  H   H2509     1.0  0.22766  0.96295  0.08169  1.0000
  C   C1436     1.0  0.23427  0.97230  0.09779  1.0000
  H   H2510     1.0  0.23412  0.94496  0.14027  1.0000
  Fe  Fe167     1.0  0.00923  0.73830  0.18409  1.0000
  C   C1437     1.0  0.23823  0.83587  0.02756  1.0000
  H   H2511     1.0  0.23811  0.80513  0.27531  1.0000
  H   H2512     1.0  0.99505  0.78816  0.24020  1.0000
  C   C1438     1.0  0.04024  0.73670  0.12952  1.0000
  H   H2513     1.0  0.15464  0.73636  0.04326  1.0000
  C   C1439     1.0  0.23529  0.94548  0.16739  1.0000
  C   C1440     1.0  0.99162  0.77878  0.23707  1.0000
  C   C1441     1.0  0.14091  0.73414  0.28523  1.0000
  C   C1442     1.0  0.19741  0.81585  0.98259  1.0000
  Fe  Fe168     1.0  0.24059  0.83728  0.31511  1.0000
  H   H2514     1.0  0.23834  0.94620  0.17821  1.0000
  H   H2515     1.0  0.24011  0.81226  0.29908  1.0000
  H   H2516     1.0  0.05991  0.73453  0.21402  1.0000
  H   H2517     1.0  0.20955  0.80985  0.98243  1.0000
  H   H2518     1.0  0.15910  0.73459  0.09705  1.0000
  C   C1443     1.0  0.07958  0.73631  0.99965  1.0000
  H   H2519     1.0  0.20309  0.73435  0.08384  1.0000
  H   H2520     1.0  0.13519  0.98342  0.19034  1.0000
  H   H2521     1.0  0.01910  0.73806  0.07377  1.0000
  H   H2522     1.0  0.24097  0.92440  0.14645  1.0000
  H   H2523     1.0  0.24042  0.85569  0.08858  1.0000
  C   C1444     1.0  0.00391  0.73413  0.10525  1.0000
  H   H2524     1.0  0.17514  0.87606  0.95966  1.0000
  H   H2525     1.0  0.10288  0.81083  0.97040  1.0000
  S   S332      1.0  0.01379  0.75548  0.59508  1.0000
  H   H2526     1.0  0.02135  0.78637  0.62396  1.0000
  C   C1445     1.0  0.18278  0.75123  0.96197  1.0000
  H   H2527     1.0  0.23208  0.82441  0.68856  1.0000
  S   S333      1.0  0.16123  0.98187  0.83160  1.0000
  S   S334      1.0  0.11626  0.75787  0.89848  1.0000
  H   H2528     1.0  0.12990  0.85628  0.93310  1.0000
  Fe  Fe169     1.0  0.16621  0.79325  0.92856  1.0000
  C   C1446     1.0  0.04049  0.75565  0.84243  1.0000
  S   S335      1.0  0.15059  0.77601  0.94072  1.0000
  Fe  Fe170     1.0  0.16960  0.82669  0.91297  1.0000
  H   H2529     1.0  0.18949  0.76880  0.96900  1.0000
  S   S336      1.0  0.15525  0.85032  0.90382  1.0000
  C   C1447     1.0  0.02698  0.79275  0.62889  1.0000
  S   S337      1.0  0.18539  0.85303  0.68189  1.0000
  H   H2530     1.0  0.03884  0.78572  0.63006  1.0000
  S   S338      1.0  0.17059  0.80611  0.90334  1.0000
  S   S339      1.0  0.16293  0.81444  0.93821  1.0000
  Fe  Fe171     1.0  0.16622  0.95610  0.83174  1.0000
  S   S340      1.0  0.15549  0.94052  0.85359  1.0000
  C   C1448     1.0  0.15651  0.75269  0.67642  1.0000
  Fe  Fe172     1.0  0.17592  0.93029  0.81334  1.0000
  S   S341      1.0  0.16552  0.91278  0.83364  1.0000
  Fe  Fe173     1.0  0.14528  0.93316  0.83757  1.0000
  S   S342      1.0  0.11932  0.93399  0.84557  1.0000
  Fe  Fe174     1.0  0.17666  0.92182  0.84764  1.0000
  S   S343      1.0  0.18956  0.90576  0.86609  1.0000
  S   S344      1.0  0.15469  0.94985  0.81607  1.0000
  S   S345      1.0  0.18856  0.93806  0.82704  1.0000
  S   S346      1.0  0.07695  0.93945  0.76130  1.0000
  Fe  Fe175     1.0  0.11445  0.90728  0.75441  1.0000
  S   S347      1.0  0.09153  0.90133  0.76851  1.0000
  S   S348      1.0  0.13637  0.88863  0.75048  1.0000
  Fe  Fe176     1.0  0.08124  0.91941  0.74949  1.0000
  S   S349      1.0  0.06182  0.91686  0.73978  1.0000
  Fe  Fe177     1.0  0.08935  0.92167  0.77913  1.0000
  S   S350      1.0  0.07924  0.92149  0.80476  1.0000
  S   S351      1.0  0.10445  0.92399  0.73439  1.0000
  S   S352      1.0  0.11326  0.92598  0.76670  1.0000
  Fe  Fe178     1.0  0.16085  0.85333  0.68139  1.0000
  S   S353      1.0  0.16070  0.83016  0.69793  1.0000
  S   S354      1.0  0.14000  0.87268  0.68624  1.0000
  Fe  Fe179     1.0  0.16830  0.82036  0.67616  1.0000
  S   S355      1.0  0.15190  0.80373  0.68105  1.0000
  S   S356      1.0  0.99191  0.81886  0.78887  1.0000
  S   S357      1.0  0.16733  0.84405  0.65952  1.0000
  Fe  Fe180     1.0  0.99928  0.83183  0.76404  1.0000
  C   C1449     1.0  0.07037  0.73984  0.79954  1.0000
  H   H2531     1.0  0.23767  0.86310  0.61939  1.0000
  Fe  Fe181     1.0  0.02548  0.84776  0.74211  1.0000
  S   S358      1.0  0.01690  0.84930  0.72052  1.0000
  S   S359      1.0  0.04919  0.85024  0.74403  1.0000
  C   C1450     1.0  0.22398  0.85027  0.71066  1.0000
  Fe  Fe182     1.0  0.01294  0.82492  0.73151  1.0000
  S   S360      1.0  0.01911  0.80346  0.72147  1.0000
  H   H2532     1.0  0.20657  0.86427  0.83206  1.0000
  S   S361      1.0  0.02362  0.82268  0.75157  1.0000
  H   H2533     1.0  0.14781  0.75364  0.65626  1.0000
  H   H2534     1.0  0.15492  0.91904  0.91165  1.0000
  S   S362      1.0  0.02674  0.74836  0.78873  1.0000
  Fe  Fe183     1.0  0.99262  0.85645  0.73530  1.0000
  H   H2535     1.0  0.22656  0.86076  0.70221  1.0000
  H   H2536     1.0  0.13604  0.91350  0.91718  1.0000
  H   H2537     1.0  0.23447  0.83201  0.90321  1.0000
  H   H2538     1.0  0.01311  0.79203  0.57780  1.0000
  Fe  Fe184     1.0  0.08056  0.76290  0.62841  1.0000
  S   S363      1.0  0.06036  0.76648  0.64884  1.0000
  S   S364      1.0  0.07960  0.75453  0.60738  1.0000
  Fe  Fe185     1.0  0.10263  0.77309  0.64218  1.0000
  S   S365      1.0  0.08414  0.77743  0.66366  1.0000
  S   S366      1.0  0.12746  0.77681  0.63709  1.0000
  Fe  Fe186     1.0  0.07821  0.75497  0.66368  1.0000
  H   H2539     1.0  0.06999  0.74296  0.84200  1.0000
  Fe  Fe187     1.0  0.06799  0.78852  0.64693  1.0000
  S   S367      1.0  0.05057  0.81116  0.64923  1.0000
  S   S368      1.0  0.09805  0.74951  0.64346  1.0000
  S   S369      1.0  0.08688  0.78602  0.62529  1.0000
  C   C1451     1.0  0.01722  0.79379  0.64543  1.0000
  H   H2540     1.0  0.16829  0.89163  0.90939  1.0000
  H   H2541     1.0  0.22588  0.74140  0.78574  1.0000
  C   C1452     1.0  0.99766  0.79273  0.68836  1.0000
  C   C1453     1.0  0.02810  0.80604  0.70147  1.0000
  C   C1454     1.0  0.02704  0.82100  0.69158  1.0000
  C   C1455     1.0  0.03370  0.82264  0.67542  1.0000
  C   C1456     1.0  0.04172  0.80932  0.66927  1.0000
  C   C1457     1.0  0.04284  0.79440  0.67923  1.0000
  C   C1458     1.0  0.03600  0.79277  0.69528  1.0000
  H   H2542     1.0  0.02095  0.83127  0.69634  1.0000
  H   H2543     1.0  0.03287  0.83419  0.66775  1.0000
  H   H2544     1.0  0.04888  0.78405  0.67459  1.0000
  H   H2545     1.0  0.03687  0.78118  0.70290  1.0000
  H   H2546     1.0  0.99987  0.79283  0.81411  1.0000
  C   C1459     1.0  0.00487  0.79344  0.77540  1.0000
  C   C1460     1.0  0.01279  0.77785  0.77538  1.0000
  C   C1461     1.0  0.01607  0.76759  0.78930  1.0000
  H   H2547     1.0  0.19909  0.94691  0.90131  1.0000
  C   C1462     1.0  0.22383  0.92754  0.84482  1.0000
  H   H2548     1.0  0.01592  0.85449  0.78712  1.0000
  H   H2549     1.0  0.01633  0.77376  0.76454  1.0000
  H   H2550     1.0  0.04579  0.74779  0.57689  1.0000
  H   H2551     1.0  0.19811  0.84156  0.87363  1.0000
  C   C1463     1.0  0.14439  0.79919  0.66723  1.0000
  C   C1464     1.0  0.15388  0.79625  0.65286  1.0000
  C   C1465     1.0  0.14831  0.78995  0.64341  1.0000
  C   C1466     1.0  0.13311  0.78693  0.64805  1.0000
  C   C1467     1.0  0.12328  0.79081  0.66195  1.0000
  C   C1468     1.0  0.12902  0.79659  0.67166  1.0000
  H   H2552     1.0  0.16579  0.79805  0.64943  1.0000
  H   H2553     1.0  0.15598  0.78703  0.63265  1.0000
  H   H2554     1.0  0.11149  0.78876  0.66555  1.0000
  H   H2555     1.0  0.12163  0.79877  0.68279  1.0000
  C   C1469     1.0  0.05837  0.89821  0.74141  1.0000
  C   C1470     1.0  0.06868  0.88436  0.74682  1.0000
  C   C1471     1.0  0.06563  0.86969  0.74777  1.0000
  C   C1472     1.0  0.05226  0.86881  0.74334  1.0000
  C   C1473     1.0  0.04184  0.88265  0.73817  1.0000
  C   C1474     1.0  0.04493  0.89730  0.73715  1.0000
  H   H2556     1.0  0.07913  0.88494  0.75002  1.0000
  H   H2557     1.0  0.07375  0.85902  0.75175  1.0000
  H   H2558     1.0  0.03152  0.88207  0.73471  1.0000
  H   H2559     1.0  0.03692  0.90798  0.73293  1.0000
  C   C1475     1.0  0.13672  0.88237  0.73376  1.0000
  C   C1476     1.0  0.15059  0.87348  0.72640  1.0000
  C   C1477     1.0  0.15138  0.86983  0.71213  1.0000
  C   C1478     1.0  0.13847  0.87550  0.70497  1.0000
  C   C1479     1.0  0.12442  0.88387  0.71263  1.0000
  C   C1480     1.0  0.12344  0.88694  0.72721  1.0000
  H   H2560     1.0  0.16082  0.86978  0.73151  1.0000
  H   H2561     1.0  0.16215  0.86303  0.70652  1.0000
  H   H2562     1.0  0.11431  0.88801  0.70730  1.0000
  H   H2563     1.0  0.11240  0.89291  0.73332  1.0000
  H   H2564     1.0  0.05422  0.83307  0.59800  1.0000
  C   C1481     1.0  0.09103  0.92505  0.81542  1.0000
  C   C1482     1.0  0.08365  0.93013  0.82942  1.0000
  C   C1483     1.0  0.09252  0.93292  0.83839  1.0000
  C   C1484     1.0  0.10890  0.93058  0.83353  1.0000
  C   C1485     1.0  0.11642  0.92545  0.81953  1.0000
  C   C1486     1.0  0.10746  0.92265  0.81048  1.0000
  H   H2565     1.0  0.07100  0.93188  0.83337  1.0000
  H   H2566     1.0  0.18985  0.85173  0.95276  1.0000
  H   H2567     1.0  0.12909  0.92348  0.81580  1.0000
  H   H2568     1.0  0.11330  0.91836  0.79989  1.0000
  H   H2569     1.0  0.01594  0.81650  0.61905  1.0000
  H   H2570     1.0  0.02388  0.74714  0.75470  1.0000
  H   H2571     1.0  0.21522  0.81215  0.84735  1.0000
  S   S370      1.0  0.20133  0.80623  0.95551  1.0000
  H   H2572     1.0  0.18064  0.86946  0.92118  1.0000
  Fe  Fe188     1.0  0.18608  0.82863  0.69627  1.0000
  H   H2573     1.0  0.03401  0.81448  0.62441  1.0000
  C   C1487     1.0  0.02816  0.80927  0.61842  1.0000
  H   H2574     1.0  0.04163  0.80729  0.56953  1.0000
  H   H2575     1.0  0.17218  0.84074  0.73745  1.0000
  C   C1488     1.0  0.16540  0.86508  0.89257  1.0000
  C   C1489     1.0  0.15740  0.87857  0.88369  1.0000
  C   C1490     1.0  0.16491  0.89094  0.87529  1.0000
  C   C1491     1.0  0.18040  0.88997  0.87592  1.0000
  C   C1492     1.0  0.18845  0.87647  0.88479  1.0000
  C   C1493     1.0  0.18100  0.86397  0.89297  1.0000
  H   H2576     1.0  0.01666  0.80173  0.60018  1.0000
  H   H2577     1.0  0.15854  0.90139  0.86865  1.0000
  H   H2578     1.0  0.20041  0.87573  0.88538  1.0000
  H   H2579     1.0  0.18715  0.85373  0.89997  1.0000
  H   H2580     1.0  0.18462  0.84375  0.93924  1.0000
  H   H2581     1.0  0.01179  0.77338  0.70244  1.0000
  N   N78       1.0  0.10127  0.77704  0.97745  1.0000
  C   C1494     1.0  0.11937  0.84095  0.73326  1.0000
  C   C1495     1.0  0.12455  0.76397  0.91054  1.0000
  C   C1496     1.0  0.13201  0.77668  0.90446  1.0000
  C   C1497     1.0  0.13979  0.78073  0.91372  1.0000
  C   C1498     1.0  0.14010  0.77208  0.92905  1.0000
  C   C1499     1.0  0.13206  0.75983  0.93528  1.0000
  C   C1500     1.0  0.12429  0.75577  0.92608  1.0000
  H   H2582     1.0  0.13213  0.78314  0.89246  1.0000
  H   H2583     1.0  0.14568  0.79040  0.90889  1.0000
  H   H2584     1.0  0.13222  0.75311  0.94709  1.0000
  H   H2585     1.0  0.99217  0.79418  0.67838  1.0000
  Fe  Fe189     1.0  0.10121  0.94224  0.74794  1.0000
  C   C1501     1.0  0.03229  0.75392  0.59877  1.0000
  C   C1502     1.0  0.03298  0.75712  0.61281  1.0000
  C   C1503     1.0  0.04745  0.75711  0.61565  1.0000
  C   C1504     1.0  0.06132  0.75408  0.60440  1.0000
  H   H2586     1.0  0.99267  0.85107  0.70305  1.0000
  H   H2587     1.0  0.17143  0.77527  0.96207  1.0000
  H   H2588     1.0  0.02225  0.75969  0.62147  1.0000
  H   H2589     1.0  0.04785  0.75941  0.62655  1.0000
  H   H2590     1.0  0.21309  0.83834  0.93597  1.0000
  H   H2591     1.0  0.17297  0.76284  0.65615  1.0000
  C   C1505     1.0  0.15632  0.89376  0.91689  1.0000
  H   H2592     1.0  0.14951  0.88604  0.91536  1.0000
  H   H2593     1.0  0.03488  0.78804  0.59719  1.0000
  C   C1506     1.0  0.11650  0.96518  0.86764  1.0000
  C   C1507     1.0  0.14843  0.91074  0.91064  1.0000
  H   H2594     1.0  0.15538  0.89482  0.66287  1.0000
  C   C1508     1.0  0.08752  0.82416  0.70964  1.0000
  H   H2595     1.0  0.20131  0.88797  0.84178  1.0000
  H   H2596     1.0  0.22096  0.92322  0.86981  1.0000
  C   C1509     1.0  0.23437  0.88946  0.64134  1.0000
  C   C1510     1.0  0.18273  0.91752  0.65323  1.0000
  C   C1511     1.0  0.22207  0.88496  0.65360  1.0000
  H   H2597     1.0  0.23373  0.79326  0.75245  1.0000
  C   C1512     1.0  0.01812  0.86644  0.78145  1.0000
  H   H2598     1.0  0.21030  0.92838  0.64910  1.0000
  H   H2599     1.0  0.21878  0.83902  0.83126  1.0000
  C   C1513     1.0  0.17480  0.82403  0.97070  1.0000
  C   C1514     1.0  0.12392  0.74964  0.68251  1.0000
  H   H2600     1.0  0.14842  0.91847  0.72175  1.0000
  S   S371      1.0  0.21231  0.84937  0.64118  1.0000
  H   H2601     1.0  0.14645  0.96533  0.77590  1.0000
  C   C1515     1.0  0.22102  0.93354  0.85977  1.0000
  H   H2602     1.0  0.17073  0.94885  0.87767  1.0000
  H   H2603     1.0  0.07807  0.89753  0.68659  1.0000
  H   H2604     1.0  0.19215  0.73638  0.88435  1.0000
  C   C1516     1.0  0.17259  0.96082  0.87189  1.0000
  C   C1517     1.0  0.19082  0.98322  0.83316  1.0000
  H   H2605     1.0  0.01514  0.74541  0.49178  1.0000
  C   C1518     1.0  0.22789  0.74877  0.87444  1.0000
  H   H2606     1.0  0.02514  0.86628  0.76932  1.0000
  H   H2607     1.0  0.06188  0.73704  0.86208  1.0000
  H   H2608     1.0  0.24024  0.80015  0.79255  1.0000
  H   H2609     1.0  0.00230  0.80122  0.76457  1.0000
  C   C1519     1.0  0.22702  0.73872  0.88932  1.0000
  H   H2610     1.0  0.15685  0.74554  0.68846  1.0000
  C   C1520     1.0  0.21415  0.96219  0.87359  1.0000
  C   C1521     1.0  0.07213  0.81907  0.71862  1.0000
  H   H2611     1.0  0.17859  0.89703  0.80858  1.0000
  H   H2612     1.0  0.09076  0.78811  0.81802  1.0000
  C   C1522     1.0  0.20898  0.78920  0.77442  1.0000
  C   C1523     1.0  0.20520  0.94574  0.86210  1.0000
  H   H2613     1.0  0.09112  0.75371  0.88290  1.0000
  C   C1524     1.0  0.01118  0.77291  0.80334  1.0000
  H   H2614     1.0  0.16406  0.86137  0.96619  1.0000
  H   H2615     1.0  0.06272  0.79395  0.57915  1.0000
  H   H2616     1.0  0.16016  0.92784  0.67766  1.0000
  C   C1525     1.0  0.12887  0.85470  0.94592  1.0000
  N   N79       1.0  0.07792  0.75213  0.85755  1.0000
  C   C1526     1.0  0.06542  0.74725  0.85307  1.0000
  H   H2617     1.0  0.11921  0.74477  0.97489  1.0000
  C   C1527     1.0  0.07043  0.75813  0.87252  1.0000
  C   C1528     1.0  0.08471  0.76486  0.84504  1.0000
  C   C1529     1.0  0.08599  0.76462  0.82764  1.0000
  C   C1530     1.0  0.05009  0.75992  0.85147  1.0000
  C   C1531     1.0  0.22960  0.76522  0.74847  1.0000
  H   H2618     1.0  0.09664  0.77565  0.80403  1.0000
  C   C1532     1.0  0.23216  0.84362  0.72279  1.0000
  C   C1533     1.0  0.11172  0.79349  0.75298  1.0000
  H   H2619     1.0  0.99514  0.82365  0.68613  1.0000
  H   H2620     1.0  0.13083  0.95761  0.75832  1.0000
  H   H2621     1.0  0.14059  0.93835  0.76550  1.0000
  H   H2622     1.0  0.21392  0.93380  0.89119  1.0000
  H   H2623     1.0  0.20801  0.96795  0.89711  1.0000
  H   H2624     1.0  0.12969  0.96567  0.84390  1.0000
  H   H2625     1.0  0.19047  0.92513  0.88586  1.0000
  H   H2626     1.0  0.07631  0.79052  0.96064  1.0000
  H   H2627     1.0  0.07752  0.77668  0.84661  1.0000
  H   H2628     1.0  0.09659  0.76471  0.84646  1.0000
  H   H2629     1.0  0.07415  0.76836  0.82484  1.0000
  H   H2630     1.0  0.09120  0.75282  0.82509  1.0000
  H   H2631     1.0  0.99892  0.75397  0.77165  1.0000
  H   H2632     1.0  0.19522  0.97283  0.82827  1.0000
  H   H2633     1.0  0.08656  0.77310  0.87104  1.0000
  H   H2634     1.0  0.13215  0.75796  0.97165  1.0000
  H   H2635     1.0  0.21287  0.85899  0.93207  1.0000
  H   H2636     1.0  0.12330  0.78736  0.74698  1.0000
  H   H2637     1.0  0.07154  0.74298  0.81011  1.0000
  H   H2638     1.0  0.21298  0.89095  0.82209  1.0000
  H   H2639     1.0  0.18045  0.92134  0.64110  1.0000
  C   C1534     1.0  0.21918  0.77417  0.72345  1.0000
  H   H2640     1.0  0.99989  0.85078  0.68234  1.0000
  H   H2641     1.0  0.20951  0.78446  0.74347  1.0000
  H   H2642     1.0  0.15591  0.73808  0.88504  1.0000
  H   H2643     1.0  0.12704  0.74364  0.65480  1.0000
  H   H2644     1.0  0.21767  0.89096  0.66324  1.0000
  C   C1535     1.0  0.22277  0.74502  0.90273  1.0000
  H   H2645     1.0  0.21450  0.92143  0.84559  1.0000
  C   C1536     1.0  0.19418  0.91620  0.90921  1.0000
  H   H2646     1.0  0.19596  0.93964  0.86258  1.0000
  C   C1537     1.0  0.22451  0.76510  0.87298  1.0000
  Fe  Fe190     1.0  0.01183  0.74070  0.57957  1.0000
  C   C1538     1.0  0.15075  0.88492  0.96812  1.0000
  N   N80       1.0  0.09964  0.84893  0.69758  1.0000
  H   H2647     1.0  0.19338  0.90740  0.68186  1.0000
  H   H2648     1.0  0.07388  0.80616  0.72037  1.0000
  H   H2649     1.0  0.18824  0.73636  0.90438  1.0000
  C   C1539     1.0  0.17213  0.75426  0.89160  1.0000
  H   H2650     1.0  0.01378  0.76509  0.81410  1.0000
  H   H2651     1.0  0.13642  0.84925  0.64859  1.0000
  C   C1540     1.0  0.18972  0.85315  0.94023  1.0000
  H   H2652     1.0  0.10617  0.73467  0.83868  1.0000
  C   C1541     1.0  0.18044  0.76649  0.89226  1.0000
  H   H2653     1.0  0.10045  0.97494  0.81665  1.0000
  H   H2654     1.0  0.23244  0.88220  0.77711  1.0000
  C   C1542     1.0  0.22962  0.83083  0.86650  1.0000
  H   H2655     1.0  0.00810  0.91721  0.80437  1.0000
  H   H2656     1.0  0.07285  0.78137  0.93883  1.0000
  C   C1543     1.0  0.19356  0.79009  0.78680  1.0000
  H   H2657     1.0  0.14840  0.97086  0.86990  1.0000
  H   H2658     1.0  0.13756  0.90757  0.67849  1.0000
  C   C1544     1.0  0.18474  0.93261  0.65672  1.0000
  H   H2659     1.0  0.08667  0.93678  0.84924  1.0000
  C   C1545     1.0  0.15249  0.93244  0.73560  1.0000
  H   H2660     1.0  0.16965  0.75724  0.87965  1.0000
  H   H2661     1.0  0.16075  0.75531  0.90019  1.0000
  H   H2662     1.0  0.07751  0.98115  0.84018  1.0000
  H   H2663     1.0  0.21633  0.96923  0.86130  1.0000
  H   H2664     1.0  0.14893  0.98156  0.79245  1.0000
  C   C1546     1.0  0.12606  0.84454  0.65606  1.0000
  H   H2665     1.0  0.19438  0.90915  0.65210  1.0000
  C   C1547     1.0  0.20679  0.85033  0.93107  1.0000
  H   H2666     1.0  0.05258  0.77167  0.84542  1.0000
  C   C1548     1.0  0.08216  0.79775  0.58556  1.0000
  H   H2667     1.0  0.15782  0.91084  0.64658  1.0000
  H   H2668     1.0  0.19877  0.87943  0.69525  1.0000
  H   H2669     1.0  0.18283  0.76445  0.90413  1.0000
  H   H2670     1.0  0.16567  0.89485  0.62599  1.0000
  H   H2671     1.0  0.06270  0.82477  0.71191  1.0000
  C   C1549     1.0  0.22720  0.83796  0.88099  1.0000
  C   C1550     1.0  0.22518  0.98074  0.88198  1.0000
  C   C1551     1.0  0.04622  0.75027  0.58776  1.0000
  N   N81       1.0  0.18514  0.86194  0.76665  1.0000
  C   C1552     1.0  0.20032  0.86763  0.76070  1.0000
  C   C1553     1.0  0.18496  0.85206  0.78310  1.0000
  C   C1554     1.0  0.18424  0.85257  0.75565  1.0000
  C   C1555     1.0  0.17102  0.87549  0.76725  1.0000
  C   C1556     1.0  0.17101  0.88774  0.77629  1.0000
  C   C1557     1.0  0.20206  0.87929  0.74449  1.0000
  C   C1558     1.0  0.16990  0.84469  0.76074  1.0000
  C   C1559     1.0  0.19694  0.83604  0.78452  1.0000
  C   C1560     1.0  0.19566  0.82713  0.80165  1.0000
  C   C1561     1.0  0.15579  0.90037  0.77684  1.0000
  C   C1562     1.0  0.21704  0.88551  0.74069  1.0000
  C   C1563     1.0  0.17112  0.83405  0.74984  1.0000
  H   H2672     1.0  0.21055  0.85755  0.75952  1.0000
  H   H2673     1.0  0.20216  0.87312  0.76942  1.0000
  H   H2674     1.0  0.18754  0.85855  0.79053  1.0000
  H   H2675     1.0  0.17300  0.84985  0.78902  1.0000
  H   H2676     1.0  0.19525  0.84347  0.75358  1.0000
  H   H2677     1.0  0.18360  0.86023  0.74381  1.0000
  H   H2678     1.0  0.16940  0.88179  0.75519  1.0000
  H   H2679     1.0  0.16005  0.87107  0.77298  1.0000
  H   H2680     1.0  0.18096  0.89372  0.77062  1.0000
  H   H2681     1.0  0.17184  0.88206  0.78861  1.0000
  H   H2682     1.0  0.20288  0.87333  0.73502  1.0000
  H   H2683     1.0  0.19204  0.88958  0.74417  1.0000
  H   H2684     1.0  0.15881  0.85374  0.76026  1.0000
  H   H2685     1.0  0.16894  0.83736  0.77283  1.0000
  H   H2686     1.0  0.19504  0.82839  0.77789  1.0000
  H   H2687     1.0  0.20910  0.83786  0.77999  1.0000
  H   H2688     1.0  0.19794  0.83412  0.80879  1.0000
  H   H2689     1.0  0.18379  0.82448  0.80671  1.0000
  H   H2690     1.0  0.15419  0.90640  0.76478  1.0000
  H   H2691     1.0  0.14548  0.89508  0.78328  1.0000
  H   H2692     1.0  0.15624  0.90919  0.78304  1.0000
  H   H2693     1.0  0.22753  0.87566  0.74066  1.0000
  C   C1564     1.0  0.14901  0.93083  0.72063  1.0000
  H   H2694     1.0  0.03786  0.74389  0.84828  1.0000
  H   H2695     1.0  0.18149  0.82412  0.75071  1.0000
  H   H2696     1.0  0.16039  0.82916  0.75324  1.0000
  H   H2697     1.0  0.14843  0.91240  0.89802  1.0000
  N   N82       1.0  0.20150  0.95323  0.87604  1.0000
  H   H2698     1.0  0.06967  0.87271  0.70257  1.0000
  C   C1565     1.0  0.18915  0.88810  0.70088  1.0000
  H   H2699     1.0  0.20066  0.94866  0.64860  1.0000
  N   N83       1.0  0.03698  0.89470  0.79265  1.0000
  C   C1566     1.0  0.03047  0.88773  0.78313  1.0000
  C   C1567     1.0  0.04030  0.91059  0.78349  1.0000
  C   C1568     1.0  0.05246  0.88383  0.79530  1.0000
  C   C1569     1.0  0.02632  0.89589  0.80855  1.0000
  C   C1570     1.0  0.00893  0.90440  0.80882  1.0000
  C   C1571     1.0  0.02699  0.87115  0.79089  1.0000
  C   C1572     1.0  0.06206  0.88958  0.80355  1.0000
  C   C1573     1.0  0.02863  0.92123  0.77313  1.0000
  C   C1574     1.0  0.03108  0.93807  0.76778  1.0000
  C   C1575     1.0  0.21934  0.85682  0.85137  1.0000
  H   H2700     1.0  0.09442  0.78756  0.94586  1.0000
  C   C1576     1.0  0.07714  0.87741  0.80610  1.0000
  H   H2701     1.0  0.03882  0.88694  0.77162  1.0000
  H   H2702     1.0  0.01947  0.89546  0.77997  1.0000
  H   H2703     1.0  0.04133  0.91740  0.79155  1.0000
  H   H2704     1.0  0.05199  0.90913  0.77513  1.0000
  H   H2705     1.0  0.06020  0.88158  0.78384  1.0000
  H   H2706     1.0  0.05060  0.87218  0.80264  1.0000
  H   H2707     1.0  0.02656  0.88400  0.81638  1.0000
  H   H2708     1.0  0.03077  0.90232  0.81463  1.0000
  H   H2709     1.0  0.02255  0.79967  0.65124  1.0000
  H   H2710     1.0  0.00659  0.87475  0.78089  1.0000
  H   H2711     1.0  0.03811  0.86216  0.79137  1.0000
  H   H2712     1.0  0.01966  0.87070  0.80295  1.0000
  H   H2713     1.0  0.05529  0.89167  0.81527  1.0000
  H   H2714     1.0  0.06542  0.90066  0.79635  1.0000
  H   H2715     1.0  0.03054  0.91663  0.76244  1.0000
  H   H2716     1.0  0.01620  0.92171  0.77921  1.0000
  H   H2717     1.0  0.04335  0.93828  0.76119  1.0000
  H   H2718     1.0  0.02305  0.94520  0.75987  1.0000
  H   H2719     1.0  0.02855  0.94349  0.77805  1.0000
  H   H2720     1.0  0.15625  0.86186  0.92933  1.0000
  C   C1577     1.0  0.99902  0.90215  0.82562  1.0000
  H   H2721     1.0  0.15132  0.92990  0.66183  1.0000
  C   C1578     1.0  0.15067  0.74455  0.66680  1.0000
  H   H2722     1.0  0.02918  0.76441  0.84220  1.0000
  H   H2723     1.0  0.03357  0.78258  0.57224  1.0000
  H   H2724     1.0  0.07430  0.86655  0.81450  1.0000
  H   H2725     1.0  0.08435  0.87439  0.79483  1.0000
  H   H2726     1.0  0.08422  0.88230  0.81105  1.0000
  N   N84       1.0  0.07103  0.78172  0.77228  1.0000
  C   C1579     1.0  0.05711  0.79029  0.78264  1.0000
  C   C1580     1.0  0.07651  0.76534  0.78149  1.0000
  C   C1581     1.0  0.08428  0.79026  0.76835  1.0000
  C   C1582     1.0  0.06758  0.78126  0.75701  1.0000
  C   C1583     1.0  0.05074  0.78009  0.75735  1.0000
  C   C1584     1.0  0.05244  0.80832  0.77652  1.0000
  C   C1585     1.0  0.10044  0.78225  0.75940  1.0000
  C   C1586     1.0  0.06448  0.75459  0.78779  1.0000
  H   H2727     1.0  0.10816  0.77237  0.81839  1.0000
  C   C1587     1.0  0.04976  0.77766  0.74164  1.0000
  C   C1588     1.0  0.03663  0.81541  0.78609  1.0000
  C   C1589     1.0  0.08599  0.78164  0.95548  1.0000
  H   H2728     1.0  0.05949  0.78841  0.79453  1.0000
  H   H2729     1.0  0.04649  0.78548  0.78482  1.0000
  N   N85       1.0  0.23297  0.76872  0.76242  1.0000
  H   H2730     1.0  0.08064  0.76609  0.79170  1.0000
  H   H2731     1.0  0.08615  0.79222  0.77926  1.0000
  H   H2732     1.0  0.08111  0.80217  0.76085  1.0000
  H   H2733     1.0  0.06961  0.79205  0.74792  1.0000
  H   H2734     1.0  0.07593  0.77133  0.75214  1.0000
  H   H2735     1.0  0.04218  0.79106  0.75951  1.0000
  H   H2736     1.0  0.04687  0.77032  0.76665  1.0000
  H   H2737     1.0  0.06124  0.81419  0.77759  1.0000
  H   H2738     1.0  0.05181  0.81118  0.76396  1.0000
  H   H2739     1.0  0.19590  0.78467  0.79876  1.0000
  C   C1590     1.0  0.06069  0.75045  0.59053  1.0000
  H   H2740     1.0  0.05292  0.76050  0.79392  1.0000
  H   H2741     1.0  0.06287  0.75057  0.77794  1.0000
  H   H2742     1.0  0.06067  0.76853  0.87060  1.0000
  C   C1591     1.0  0.21652  0.86669  0.83506  1.0000
  C   C1592     1.0  0.03241  0.74027  0.74635  1.0000
  H   H2743     1.0  0.03760  0.77690  0.74215  1.0000
  H   H2744     1.0  0.05266  0.78773  0.73195  1.0000
  H   H2745     1.0  0.05785  0.76659  0.73899  1.0000
  H   H2746     1.0  0.03350  0.82825  0.78121  1.0000
  H   H2747     1.0  0.02725  0.81008  0.78546  1.0000
  H   H2748     1.0  0.03715  0.81348  0.79859  1.0000
  H   H2749     1.0  0.15984  0.79380  0.97525  1.0000
  S   S372      1.0  0.99824  0.74898  0.56047  1.0000
  H   H2750     1.0  0.10704  0.80382  0.74427  1.0000
  C   C1593     1.0  0.99121  0.74584  0.77896  1.0000
  H   H2751     1.0  0.06825  0.82224  0.73030  1.0000
  C   C1594     1.0  0.07884  0.77290  0.94795  1.0000
  H   H2752     1.0  0.18120  0.96736  0.88882  1.0000
  H   H2753     1.0  0.02145  0.81737  0.57410  1.0000
  C   C1595     1.0  0.10638  0.80446  0.96071  1.0000
  H   H2754     1.0  0.03918  0.74835  0.73717  1.0000
  C   C1596     1.0  0.00625  0.77554  0.69230  1.0000
  H   H2755     1.0  0.99208  0.82318  0.70625  1.0000
  H   H2756     1.0  0.19986  0.93937  0.63371  1.0000
  C   C1597     1.0  0.11888  0.81187  0.94795  1.0000
  H   H2757     1.0  0.11424  0.82468  0.94415  1.0000
  H   H2758     1.0  0.15836  0.93405  0.71025  1.0000
  H   H2759     1.0  0.15939  0.87942  0.64223  1.0000
  C   C1598     1.0  0.12558  0.95695  0.78826  1.0000
  H   H2760     1.0  0.10415  0.76216  0.96131  1.0000
  H   H2761     1.0  0.99796  0.76762  0.69518  1.0000
  C   C1599     1.0  0.08059  0.87521  0.70375  1.0000
  H   H2762     1.0  0.23480  0.82494  0.74312  1.0000
  H   H2763     1.0  0.18571  0.78390  0.78448  1.0000
  H   H2764     1.0  0.11906  0.78149  0.95644  1.0000
  H   H2765     1.0  0.06800  0.89873  0.70649  1.0000
  H   H2766     1.0  0.09594  0.80666  0.95574  1.0000
  H   H2767     1.0  0.18123  0.87918  0.65418  1.0000
  H   H2768     1.0  0.14301  0.92864  0.74541  1.0000
  C   C1600     1.0  0.23699  0.73930  0.77683  1.0000
  H   H2769     1.0  0.06497  0.74901  0.88184  1.0000
  C   C1601     1.0  0.09734  0.75657  0.70084  1.0000
  H   H2770     1.0  0.23074  0.76923  0.71641  1.0000
  H   H2771     1.0  0.20612  0.90902  0.90558  1.0000
  H   H2772     1.0  0.11354  0.79762  0.76267  1.0000
  C   C1602     1.0  0.18232  0.73737  0.89486  1.0000
  C   C1603     1.0  0.00333  0.78860  0.80334  1.0000
  H   H2773     1.0  0.12957  0.81016  0.95247  1.0000
  H   H2774     1.0  0.21469  0.84056  0.88702  1.0000
  H   H2775     1.0  0.17465  0.94244  0.65417  1.0000
  H   H2776     1.0  0.24064  0.75947  0.74125  1.0000
  H   H2777     1.0  0.09586  0.76882  0.69378  1.0000
  H   H2778     1.0  0.15287  0.89704  0.96369  1.0000
  C   C1604     1.0  0.21559  0.87256  0.65369  1.0000
  C   C1605     1.0  0.21797  0.77188  0.77479  1.0000
  H   H2779     1.0  0.16746  0.97133  0.73387  1.0000
  H   H2780     1.0  0.01686  0.78175  0.65263  1.0000
  H   H2781     1.0  0.20733  0.85118  0.91847  1.0000
  N   N86       1.0  0.03670  0.80979  0.60145  1.0000
  H   H2782     1.0  0.13745  0.93851  0.71885  1.0000
  C   C1606     1.0  0.02940  0.80081  0.59455  1.0000
  H   H2783     1.0  0.18740  0.80255  0.78645  1.0000
  H   H2784     1.0  0.11619  0.85691  0.95170  1.0000
  C   C1607     1.0  0.18033  0.86964  0.93344  1.0000
  H   H2785     1.0  0.18712  0.87850  0.93261  1.0000
  C   C1608     1.0  0.02491  0.79397  0.57097  1.0000
  H   H2786     1.0  0.05862  0.80738  0.60813  1.0000
  H   H2787     1.0  0.05524  0.78956  0.60712  1.0000
  C   C1609     1.0  0.02983  0.80593  0.57663  1.0000
  C   C1610     1.0  0.05384  0.80219  0.60113  1.0000
  H   H2788     1.0  0.99199  0.79552  0.71216  1.0000
  H   H2789     1.0  0.08901  0.89636  0.70100  1.0000
  H   H2790     1.0  0.02158  0.83210  0.59391  1.0000
  H   H2791     1.0  0.03566  0.83816  0.61130  1.0000
  H   H2792     1.0  0.20257  0.93334  0.75610  1.0000
  H   H2793     1.0  0.08969  0.79794  0.57358  1.0000
  H   H2794     1.0  0.08489  0.78567  0.59272  1.0000
  C   C1611     1.0  0.22576  0.83298  0.84034  1.0000
  H   H2795     1.0  0.06314  0.81432  0.57681  1.0000
  C   C1612     1.0  0.15701  0.89098  0.93440  1.0000
  H   H2796     1.0  0.07637  0.84695  0.69782  1.0000
  C   C1613     1.0  0.03439  0.82688  0.59305  1.0000
  N   N87       1.0  0.16357  0.87434  0.94228  1.0000
  H   H2797     1.0  0.08207  0.98078  0.78528  1.0000
  C   C1614     1.0  0.06485  0.80251  0.58463  1.0000
  S   S373      1.0  0.18808  0.92532  0.78944  1.0000
  S   S374      1.0  0.19641  0.81929  0.71786  1.0000
  H   H2798     1.0  0.22049  0.76757  0.78678  1.0000
  C   C1615     1.0  0.12058  0.97391  0.85049  1.0000
  H   H2799     1.0  0.16404  0.89899  0.93512  1.0000
  H   H2800     1.0  0.17285  0.94482  0.76391  1.0000
  H   H2801     1.0  0.16224  0.95313  0.72399  1.0000
  Fe  Fe191     1.0  0.19597  0.79951  0.90477  1.0000
  H   H2802     1.0  0.07141  0.74794  0.58183  1.0000
  H   H2803     1.0  0.23140  0.84909  0.87741  1.0000
  H   H2804     1.0  0.22565  0.81654  0.81837  1.0000
  H   H2805     1.0  0.18560  0.90858  0.91222  1.0000
  C   C1616     1.0  0.21087  0.97379  0.88454  1.0000
  H   H2806     1.0  0.12775  0.75322  0.69141  1.0000
  H   H2807     1.0  0.21599  0.76612  0.91165  1.0000
  H   H2808     1.0  0.14530  0.87953  0.88338  1.0000
  H   H2809     1.0  0.20665  0.86894  0.66345  1.0000
  H   H2810     1.0  0.03950  0.82828  0.58027  1.0000
  H   H2811     1.0  0.21614  0.79592  0.77706  1.0000
  Fe  Fe192     1.0  0.19240  0.84169  0.66126  1.0000
  H   H2812     1.0  0.16937  0.82428  0.96147  1.0000
  C   C1617     1.0  0.04136  0.83750  0.59891  1.0000
  S   S375      1.0  0.19175  0.78499  0.92923  1.0000
  H   H2813     1.0  0.08816  0.76409  0.94221  1.0000
  C   C1618     1.0  0.16396  0.87352  0.95910  1.0000
  H   H2814     1.0  0.07005  0.76683  0.95692  1.0000
  H   H2815     1.0  0.13480  0.86443  0.96190  1.0000
  H   H2816     1.0  0.21432  0.81297  0.74095  1.0000
  H   H2817     1.0  0.18898  0.95225  0.73659  1.0000
  H   H2818     1.0  0.18442  0.93679  0.73096  1.0000
  H   H2819     1.0  0.11901  0.86248  0.66931  1.0000
  S   S376      1.0  0.19414  0.81681  0.67585  1.0000
  C   C1619     1.0  0.14380  0.98271  0.74314  1.0000
  H   H2820     1.0  0.20455  0.81586  0.80230  1.0000
  H   H2821     1.0  0.14486  0.89539  0.94062  1.0000
  C   C1620     1.0  0.22847  0.83028  0.73385  1.0000
  C   C1621     1.0  0.19946  0.92894  0.74733  1.0000
  H   H2822     1.0  0.20522  0.95504  0.85112  1.0000
  H   H2823     1.0  0.12925  0.83154  0.65785  1.0000
  C   C1622     1.0  0.18571  0.94064  0.74103  1.0000
  H   H2824     1.0  0.20993  0.92746  0.73756  1.0000
  H   H2825     1.0  0.22402  0.93740  0.83433  1.0000
  H   H2826     1.0  0.18174  0.74464  0.66804  1.0000
  C   C1623     1.0  0.03883  0.85430  0.58909  1.0000
  C   C1624     1.0  0.23638  0.82668  0.89299  1.0000
  C   C1625     1.0  0.19037  0.89388  0.80183  1.0000
  H   H2827     1.0  0.11833  0.74612  0.93096  1.0000
  H   H2828     1.0  0.19644  0.91730  0.75292  1.0000
  H   H2829     1.0  0.04486  0.85451  0.57659  1.0000
  C   C1626     1.0  0.19764  0.90548  0.79111  1.0000
  H   H2830     1.0  0.11626  0.84920  0.64974  1.0000
  H   H2831     1.0  0.06269  0.77967  0.89194  1.0000
  C   C1627     1.0  0.11288  0.78668  0.96683  1.0000
  H   H2832     1.0  0.22221  0.73728  0.91425  1.0000
  H   H2833     1.0  0.02442  0.79831  0.55836  1.0000
  H   H2834     1.0  0.09796  0.84528  0.67555  1.0000
  N   N88       1.0  0.21910  0.83953  0.85504  1.0000
  H   H2835     1.0  0.13440  0.84236  0.95072  1.0000
  H   H2836     1.0  0.09144  0.81940  0.69882  1.0000
  Fe  Fe193     1.0  0.18892  0.80724  0.93682  1.0000
  C   C1628     1.0  0.22093  0.86470  0.64134  1.0000
  C   C1629     1.0  0.20941  0.82946  0.71995  1.0000
  H   H2837     1.0  0.11138  0.82991  0.68533  1.0000
  H   H2838     1.0  0.19249  0.86917  0.81194  1.0000
  C   C1630     1.0  0.12139  0.84947  0.67182  1.0000
  H   H2839     1.0  0.16379  0.97118  0.75402  1.0000
  C   C1631     1.0  0.10700  0.84288  0.68264  1.0000
  S   S377      1.0  0.19541  0.82122  0.91233  1.0000
  C   C1632     1.0  0.19823  0.87808  0.80362  1.0000
  S   S378      1.0  0.22269  0.75128  0.81922  1.0000
  H   H2840     1.0  0.17199  0.74802  0.96142  1.0000
  C   C1633     1.0  0.08510  0.84232  0.70551  1.0000
  H   H2841     1.0  0.17561  0.96158  0.85901  1.0000
  H   H2842     1.0  0.13171  0.84478  0.67739  1.0000
  H   H2843     1.0  0.17032  0.84138  0.87295  1.0000
  C   C1634     1.0  0.21703  0.82333  0.73249  1.0000
  H   H2844     1.0  0.17810  0.93658  0.89992  1.0000
  H   H2845     1.0  0.20953  0.76504  0.77469  1.0000
  H   H2846     1.0  0.09632  0.81865  0.71708  1.0000
  H   H2847     1.0  0.16569  0.84456  0.85409  1.0000
  C   C1635     1.0  0.21266  0.90120  0.78186  1.0000
  H   H2848     1.0  0.07905  0.84638  0.71658  1.0000
  C   C1636     1.0  0.09522  0.86674  0.69310  1.0000
  H   H2849     1.0  0.08047  0.77295  0.89940  1.0000
  H   H2850     1.0  0.10829  0.97333  0.87495  1.0000
  H   H2851     1.0  0.22033  0.78445  0.80789  1.0000
  C   C1637     1.0  0.15319  0.94962  0.73460  1.0000
  H   H2852     1.0  0.11642  0.83066  0.70926  1.0000
  H   H2853     1.0  0.20685  0.84808  0.69955  1.0000
  H   H2854     1.0  0.21833  0.89347  0.72887  1.0000
  H   H2855     1.0  0.17685  0.82573  0.86232  1.0000
  C   C1638     1.0  0.11169  0.84357  0.70767  1.0000
  H   H2856     1.0  0.16814  0.88935  0.68409  1.0000
  H   H2857     1.0  0.10033  0.74110  0.86424  1.0000
  C   C1639     1.0  0.15700  0.97246  0.87564  1.0000
  H   H2858     1.0  0.00499  0.80038  0.64498  1.0000
  H   H2859     1.0  0.06735  0.75988  0.90354  1.0000
  H   H2860     1.0  0.23425  0.79733  0.82856  1.0000
  H   H2861     1.0  0.09252  0.87070  0.68115  1.0000
  H   H2862     1.0  0.10538  0.87185  0.69222  1.0000
  H   H2863     1.0  0.12211  0.84878  0.70159  1.0000
  H   H2864     1.0  0.08510  0.80603  0.59078  1.0000
  H   H2865     1.0  0.16258  0.74170  0.92525  1.0000
  C   C1640     1.0  0.17035  0.94155  0.75400  1.0000
  H   H2866     1.0  0.16815  0.92948  0.75892  1.0000
  H   H2867     1.0  0.10308  0.96823  0.84299  1.0000
  C   C1641     1.0  0.17482  0.83862  0.86110  1.0000
  H   H2868     1.0  0.23230  0.81544  0.89733  1.0000
  C   C1642     1.0  0.21267  0.84316  0.70921  1.0000
  C   C1643     1.0  0.10635  0.84784  0.72399  1.0000
  H   H2869     1.0  0.12228  0.82792  0.73541  1.0000
  H   H2870     1.0  0.09581  0.84330  0.73111  1.0000
  H   H2871     1.0  0.15223  0.97054  0.88853  1.0000
  H   H2872     1.0  0.02578  0.73554  0.74074  1.0000
  H   H2873     1.0  0.11101  0.95532  0.86856  1.0000
  H   H2874     1.0  0.04379  0.86166  0.59362  1.0000
  H   H2875     1.0  0.17288  0.77838  0.88961  1.0000
  H   H2876     1.0  0.22510  0.77282  0.86144  1.0000
  H   H2877     1.0  0.08115  0.87137  0.71628  1.0000
  H   H2878     1.0  0.18711  0.85734  0.85156  1.0000
  H   H2879     1.0  0.11542  0.84450  0.74476  1.0000
  H   H2880     1.0  0.13015  0.84544  0.72674  1.0000
  H   H2881     1.0  0.10382  0.86076  0.72261  1.0000
  C   C1644     1.0  0.07235  0.76937  0.89450  1.0000
  H   H2882     1.0  0.13072  0.87821  0.94397  1.0000
  H   H2883     1.0  0.19164  0.76609  0.88332  1.0000
  H   H2884     1.0  0.13892  0.88523  0.96670  1.0000
  H   H2885     1.0  0.12232  0.78608  0.97278  1.0000
  S   S379      1.0  0.21445  0.79192  0.88441  1.0000
  C   C1645     1.0  0.14274  0.91422  0.68357  1.0000
  H   H2886     1.0  0.10604  0.77188  0.76743  1.0000
  H   H2887     1.0  0.19380  0.84145  0.84115  1.0000
  H   H2888     1.0  0.23534  0.97140  0.88523  1.0000
  C   C1646     1.0  0.17843  0.76551  0.96943  1.0000
  H   H2889     1.0  0.19381  0.89224  0.70876  1.0000
  H   H2890     1.0  0.00672  0.79990  0.68436  1.0000
  H   H2891     1.0  0.23107  0.85832  0.85160  1.0000
  H   H2892     1.0  0.21661  0.89212  0.74950  1.0000
  C   C1647     1.0  0.19001  0.84438  0.85290  1.0000
  H   H2893     1.0  0.10250  0.75576  0.71089  1.0000
  H   H2894     1.0  0.12620  0.95712  0.80026  1.0000
  C   C1648     1.0  0.21984  0.77143  0.88641  1.0000
  C   C1649     1.0  0.21912  0.76135  0.90128  1.0000
  C   C1650     1.0  0.20182  0.94113  0.89126  1.0000
  H   H2895     1.0  0.22214  0.88735  0.83842  1.0000
  H   H2896     1.0  0.20293  0.82408  0.86697  1.0000
  S   S380      1.0  0.22328  0.85402  0.79822  1.0000
  H   H2897     1.0  0.21178  0.76526  0.72769  1.0000
  C   C1651     1.0  0.19979  0.93752  0.64637  1.0000
  H   H2898     1.0  0.21318  0.78450  0.71566  1.0000
  H   H2899     1.0  0.14693  0.90638  0.69408  1.0000
  C   C1652     1.0  0.16412  0.90167  0.65513  1.0000
  H   H2900     1.0  0.18976  0.75402  0.94979  1.0000
  C   C1653     1.0  0.09065  0.73780  0.86143  1.0000
  C   C1654     1.0  0.10584  0.97943  0.84322  1.0000
  H   H2901     1.0  0.01570  0.77268  0.68206  1.0000
  H   H2902     1.0  0.04261  0.76072  0.86335  1.0000
  C   C1655     1.0  0.16957  0.88472  0.63526  1.0000
  H   H2903     1.0  0.18738  0.97638  0.86876  1.0000
  H   H2904     1.0  0.22721  0.86386  0.82584  1.0000
  H   H2905     1.0  0.20605  0.79512  0.76290  1.0000
  H   H2906     1.0  0.09918  0.77836  0.74932  1.0000
  H   H2907     1.0  0.17949  0.88221  0.70811  1.0000
  H   H2908     1.0  0.17858  0.87574  0.62949  1.0000
  C   C1656     1.0  0.20273  0.83686  0.86278  1.0000
  C   C1657     1.0  0.15455  0.86290  0.94164  1.0000
  C   C1658     1.0  0.23249  0.82761  0.67574  1.0000
  C   C1659     1.0  0.13672  0.86617  0.94896  1.0000
  N   N89       1.0  0.15601  0.95279  0.74899  1.0000
  C   C1660     1.0  0.17667  0.88993  0.64592  1.0000
  C   C1661     1.0  0.22064  0.88537  0.78384  1.0000
  C   C1662     1.0  0.07889  0.89303  0.69911  1.0000
  C   C1663     1.0  0.21349  0.87382  0.79489  1.0000
  H   H2909     1.0  0.16374  0.92412  0.73731  1.0000
  H   H2910     1.0  0.14988  0.94464  0.78426  1.0000
  H   H2911     1.0  0.04700  0.75548  0.83012  1.0000
  C   C1664     1.0  0.08140  0.76346  0.87956  1.0000
  H   H2912     1.0  0.14843  0.76424  0.67746  1.0000
  C   C1665     1.0  0.15858  0.96933  0.74507  1.0000
  H   H2913     1.0  0.21835  0.91015  0.77359  1.0000
  H   H2914     1.0  0.08679  0.75871  0.77420  1.0000
  H   H2915     1.0  0.08554  0.75368  0.70552  1.0000
  H   H2916     1.0  0.18524  0.93113  0.66911  1.0000
  C   C1666     1.0  0.09374  0.97380  0.76343  1.0000
  C   C1667     1.0  0.12934  0.92727  0.68922  1.0000
  C   C1668     1.0  0.17287  0.75585  0.66835  1.0000
  C   C1669     1.0  0.22137  0.77931  0.73726  1.0000
  H   H2917     1.0  0.18678  0.89503  0.63843  1.0000
  H   H2918     1.0  0.11821  0.96829  0.78334  1.0000
  H   H2919     1.0  0.22279  0.83785  0.67313  1.0000
  H   H2920     1.0  0.99891  0.88952  0.83065  1.0000
  S   S381      1.0  0.10854  0.96505  0.73554  1.0000
  H   H2921     1.0  0.22842  0.78847  0.73219  1.0000
  H   H2922     1.0  0.12401  0.93493  0.67930  1.0000
  C   C1670     1.0  0.17685  0.89662  0.67707  1.0000
  C   C1671     1.0  0.18584  0.96488  0.87681  1.0000
  H   H2923     1.0  0.17617  0.76269  0.67493  1.0000
  H   H2924     1.0  0.13361  0.93453  0.69451  1.0000
  C   C1672     1.0  0.23724  0.76247  0.81100  1.0000
  C   C1673     1.0  0.14209  0.95456  0.77779  1.0000
  S   S382      1.0  0.00152  0.85697  0.75606  1.0000
  H   H2925     1.0  0.19362  0.92039  0.91981  1.0000
  H   H2926     1.0  0.22810  0.81853  0.87117  1.0000
  H   H2927     1.0  0.12217  0.80650  0.93754  1.0000
  H   H2928     1.0  0.09161  0.96204  0.76777  1.0000
  H   H2929     1.0  0.18692  0.88831  0.67162  1.0000
  H   H2930     1.0  0.12006  0.92198  0.69829  1.0000
  C   C1674     1.0  0.19022  0.93007  0.89579  1.0000
  H   H2931     1.0  0.15932  0.85089  0.94794  1.0000
  H   H2932     1.0  0.17394  0.91054  0.69457  1.0000
  C   C1675     1.0  0.10785  0.74507  0.69069  1.0000
  C   C1676     1.0  0.00031  0.79892  0.78931  1.0000
  C   C1677     1.0  0.19044  0.81617  0.97048  1.0000
  C   C1678     1.0  0.14187  0.95073  0.76221  1.0000
  N   N90       1.0  0.17012  0.90933  0.66449  1.0000
  C   C1679     1.0  0.15637  0.92106  0.67145  1.0000
  C   C1680     1.0  0.18318  0.90204  0.68842  1.0000
  H   H2933     1.0  0.00373  0.90664  0.83322  1.0000
  C   C1681     1.0  0.09599  0.77591  0.81637  1.0000
  H   H2934     1.0  0.12160  0.76041  0.67323  1.0000
  H   H2935     1.0  0.11984  0.94732  0.78914  1.0000
  H   H2936     1.0  0.23532  0.91903  0.84328  1.0000
  H   H2937     1.0  0.02607  0.85947  0.58984  1.0000
  H   H2938     1.0  0.12730  0.96016  0.87236  1.0000
  C   C1682     1.0  0.21308  0.88430  0.83436  1.0000
  C   C1683     1.0  0.23337  0.86911  0.62904  1.0000
  C   C1684     1.0  0.23347  0.81013  0.82670  1.0000
  H   H2939     1.0  0.10153  0.74543  0.68166  1.0000
  H   H2940     1.0  0.14173  0.81960  0.97383  1.0000
  H   H2941     1.0  0.00351  0.89997  0.80183  1.0000
  C   C1685     1.0  0.23266  0.77876  0.80560  1.0000
  H   H2942     1.0  0.21071  0.86259  0.86060  1.0000
  C   C1686     1.0  0.22695  0.81514  0.84246  1.0000
  H   H2943     1.0  0.12675  0.97416  0.81658  1.0000
  C   C1687     1.0  0.09469  0.77005  0.96799  1.0000
  H   H2944     1.0  0.22204  0.75644  0.75250  1.0000
  H   H2945     1.0  0.14188  0.95715  0.73192  1.0000
  H   H2946     1.0  0.22553  0.95395  0.87510  1.0000
  H   H2947     1.0  0.23115  0.74403  0.86401  1.0000
  C   C1688     1.0  0.10180  0.97838  0.74796  1.0000
  H   H2948     1.0  0.07432  0.97091  0.81843  1.0000
  H   H2949     1.0  0.13467  0.98223  0.75422  1.0000
  H   H2950     1.0  0.13867  0.98185  0.73371  1.0000
  S   S383      1.0  0.01496  0.73528  0.83592  1.0000
  H   H2951     1.0  0.23113  0.93870  0.85859  1.0000
  H   H2952     1.0  0.18998  0.74104  0.96877  1.0000
  H   H2953     1.0  0.23775  0.83533  0.83485  1.0000
  H   H2954     1.0  0.23065  0.81752  0.67231  1.0000
  H   H2955     1.0  0.08655  0.76267  0.97607  1.0000
  S   S384      1.0  0.02287  0.73991  0.52179  1.0000
  H   H2956     1.0  0.23495  0.80798  0.85037  1.0000
  S   S385      1.0  0.07100  0.73848  0.68663  1.0000
  C   C1689     1.0  0.24015  0.88141  0.62906  1.0000
  H   H2957     1.0  0.06795  0.73917  0.49207  1.0000
  H   H2958     1.0  0.16080  0.73588  0.66190  1.0000
  H   H2959     1.0  0.05686  0.98382  0.82674  1.0000
  H   H2960     1.0  0.12582  0.98370  0.85011  1.0000
  C   C1690     1.0  0.06911  0.98323  0.81975  1.0000
  N   N91       1.0  0.13673  0.73722  0.67549  1.0000
  H   H2961     1.0  0.06830  0.73472  0.63633  1.0000
  H   H2962     1.0  0.00773  0.73548  0.62887  1.0000
  Fe  Fe194     1.0  0.10793  0.73557  0.91089  1.0000
  H   H2963     1.0  0.23464  0.73513  0.76746  1.0000
  H   H2964     1.0  0.20091  0.98380  0.88206  1.0000
  H   H2965     1.0  0.99877  0.73434  0.78313  1.0000
  C   C1691     1.0  0.47092  0.02327  0.24488  1.0000
  C   C1692     1.0  0.24340  0.01989  0.08565  1.0000
  H   H2966     1.0  0.29993  0.00681  0.25587  1.0000
  H   H2967     1.0  0.42346  0.02990  0.21567  1.0000
  H   H2968     1.0  0.28637  0.12853  0.04734  1.0000
  S   S386      1.0  0.33913  0.05362  0.46800  1.0000
  C   C1693     1.0  0.30550  0.11837  0.12422  1.0000
  H   H2969     1.0  0.35946  0.99084  0.41427  1.0000
  Fe  Fe195     1.0  0.25181  0.09240  0.19602  1.0000
  H   H2970     1.0  0.24579  0.07527  0.24672  1.0000
  C   C1694     1.0  0.30606  0.02377  0.27344  1.0000
  C   C1695     1.0  0.31170  0.00985  0.25106  1.0000
  Fe  Fe196     1.0  0.28819  0.03662  0.41954  1.0000
  S   S387      1.0  0.27711  0.01880  0.41622  1.0000
  S   S388      1.0  0.28796  0.03422  0.44526  1.0000
  Fe  Fe197     1.0  0.29808  0.04793  0.38414  1.0000
  S   S389      1.0  0.28822  0.03064  0.37829  1.0000
  S   S390      1.0  0.31035  0.06336  0.36317  1.0000
  Fe  Fe198     1.0  0.26740  0.03763  0.39715  1.0000
  S   S391      1.0  0.26023  0.13690  0.15135  1.0000
  H   H2971     1.0  0.44164  0.01894  0.26062  1.0000
  S   S392      1.0  0.27656  0.05613  0.40194  1.0000
  S   S393      1.0  0.31041  0.03031  0.40208  1.0000
  Fe  Fe199     1.0  0.38176  0.04144  0.26662  1.0000
  S   S394      1.0  0.36916  0.03729  0.25042  1.0000
  S   S395      1.0  0.40152  0.05450  0.25793  1.0000
  Fe  Fe200     1.0  0.36124  0.02585  0.29580  1.0000
  H   H2972     1.0  0.36857  0.01866  0.22481  1.0000
  H   H2973     1.0  0.37928  0.00249  0.45291  1.0000
  H   H2974     1.0  0.25755  0.15191  0.09500  1.0000
  Fe  Fe201     1.0  0.34707  0.04433  0.26795  1.0000
  S   S396      1.0  0.32401  0.06007  0.26353  1.0000
  H   H2975     1.0  0.48624  0.99982  0.28040  1.0000
  S   S397      1.0  0.35955  0.05080  0.28268  1.0000
  S   S398      1.0  0.45260  0.03483  0.29955  1.0000
  H   H2976     1.0  0.28053  0.09368  0.09498  1.0000
  N   N92       1.0  0.35272  0.00636  0.44092  1.0000
  H   H2977     1.0  0.24882  0.20584  0.17748  1.0000
  S   S399      1.0  0.25705  0.02406  0.16105  1.0000
  C   C1696     1.0  0.44275  0.98621  0.47890  1.0000
  H   H2978     1.0  0.34402  0.01497  0.24322  1.0000
  Fe  Fe202     1.0  0.26409  0.12089  0.17468  1.0000
  S   S400      1.0  0.31343  0.98919  0.39859  1.0000
  H   H2979     1.0  0.29207  0.01364  0.33236  1.0000
  Fe  Fe203     1.0  0.28484  0.09528  0.19450  1.0000
  S   S401      1.0  0.26461  0.09048  0.21455  1.0000
  S   S402      1.0  0.30944  0.08092  0.19549  1.0000
  H   H2980     1.0  0.31555  0.01508  0.27872  1.0000
  H   H2981     1.0  0.34581  0.99361  0.27275  1.0000
  C   C1697     1.0  0.43109  0.00593  0.24122  1.0000
  H   H2982     1.0  0.45592  0.02040  0.23175  1.0000
  S   S403      1.0  0.27268  0.09491  0.17609  1.0000
  S   S404      1.0  0.27806  0.12160  0.19145  1.0000
  S   S405      1.0  0.28110  0.20207  0.12804  1.0000
  H   H2983     1.0  0.26525  0.08195  0.07529  1.0000
  C   C1698     1.0  0.26544  0.15527  0.14567  1.0000
  C   C1699     1.0  0.27685  0.15801  0.15165  1.0000
  C   C1700     1.0  0.28149  0.17247  0.14618  1.0000
  C   C1701     1.0  0.27466  0.18429  0.13482  1.0000
  C   C1702     1.0  0.26298  0.18169  0.12909  1.0000
  C   C1703     1.0  0.25842  0.16717  0.13448  1.0000
  H   H2984     1.0  0.28234  0.14888  0.16025  1.0000
  H   H2985     1.0  0.29051  0.17446  0.15066  1.0000
  C   C1704     1.0  0.24807  0.08623  0.29785  1.0000
  H   H2986     1.0  0.40719  0.04169  0.22687  1.0000
  H   H2987     1.0  0.28074  0.09258  0.06806  1.0000
  Fe  Fe204     1.0  0.26820  0.22279  0.11256  1.0000
  C   C1705     1.0  0.41902  0.98422  0.29893  1.0000
  H   H2988     1.0  0.27412  0.16680  0.10447  1.0000
  H   H2989     1.0  0.46890  0.99368  0.44590  1.0000
  C   C1706     1.0  0.24700  0.15931  0.19211  1.0000
  C   C1707     1.0  0.44910  0.00821  0.25653  1.0000
  H   H2990     1.0  0.29717  0.07170  0.15590  1.0000
  H   H2991     1.0  0.27047  0.07491  0.15245  1.0000
  C   C1708     1.0  0.26217  0.04513  0.17458  1.0000
  C   C1709     1.0  0.25734  0.05715  0.18299  1.0000
  H   H2992     1.0  0.30050  0.03481  0.25095  1.0000
  C   C1710     1.0  0.26557  0.14193  0.10101  1.0000
  H   H2993     1.0  0.35750  0.99026  0.34420  1.0000
  H   H2994     1.0  0.27439  0.04182  0.16889  1.0000
  H   H2995     1.0  0.26582  0.06309  0.18378  1.0000
  H   H2996     1.0  0.25146  0.08828  0.30790  1.0000
  C   C1711     1.0  0.36174  0.01136  0.22256  1.0000
  H   H2997     1.0  0.27833  0.16341  0.07634  1.0000
  H   H2998     1.0  0.30939  0.10643  0.12167  1.0000
  C   C1712     1.0  0.32000  0.06505  0.24467  1.0000
  C   C1713     1.0  0.33073  0.05923  0.23212  1.0000
  C   C1714     1.0  0.32731  0.06393  0.21707  1.0000
  C   C1715     1.0  0.31325  0.07458  0.21451  1.0000
  C   C1716     1.0  0.30255  0.08033  0.22711  1.0000
  C   C1717     1.0  0.30589  0.07551  0.24215  1.0000
  H   H2999     1.0  0.34169  0.05122  0.23398  1.0000
  H   H3000     1.0  0.33563  0.05947  0.20734  1.0000
  H   H3001     1.0  0.29185  0.08878  0.22524  1.0000
  H   H3002     1.0  0.29760  0.08016  0.25179  1.0000
  C   C1718     1.0  0.41652  0.04819  0.26873  1.0000
  C   C1719     1.0  0.41551  0.03631  0.28237  1.0000
  C   C1720     1.0  0.42725  0.03173  0.29110  1.0000
  C   C1721     1.0  0.43987  0.03926  0.28658  1.0000
  C   C1722     1.0  0.44118  0.05087  0.27272  1.0000
  C   C1723     1.0  0.42953  0.05530  0.26380  1.0000
  H   H3003     1.0  0.40556  0.03082  0.28639  1.0000
  H   H3004     1.0  0.42650  0.02244  0.30156  1.0000
  H   H3005     1.0  0.45090  0.05677  0.26915  1.0000
  H   H3006     1.0  0.43044  0.06448  0.25324  1.0000
  H   H3007     1.0  0.42865  0.03094  0.24100  1.0000
  H   H3008     1.0  0.37501  0.07247  0.34888  1.0000
  C   C1724     1.0  0.39255  0.06167  0.31374  1.0000
  C   C1725     1.0  0.32391  0.05099  0.35146  1.0000
  C   C1726     1.0  0.33213  0.03650  0.35856  1.0000
  C   C1727     1.0  0.34295  0.02653  0.34932  1.0000
  C   C1728     1.0  0.34537  0.03085  0.33293  1.0000
  C   C1729     1.0  0.33710  0.04530  0.32576  1.0000
  C   C1730     1.0  0.32650  0.05547  0.33504  1.0000
  H   H3009     1.0  0.33028  0.03302  0.37121  1.0000
  H   H3010     1.0  0.37675  0.07925  0.28030  1.0000
  H   H3011     1.0  0.33874  0.04864  0.31313  1.0000
  H   H3012     1.0  0.32007  0.06664  0.32953  1.0000
  H   H3013     1.0  0.27110  0.09207  0.12645  1.0000
  H   H3014     1.0  0.34478  0.01860  0.40433  1.0000
  C   C1731     1.0  0.32458  0.04821  0.46218  1.0000
  C   C1732     1.0  0.31555  0.03767  0.47229  1.0000
  C   C1733     1.0  0.30431  0.03354  0.46698  1.0000
  C   C1734     1.0  0.30215  0.03974  0.45150  1.0000
  C   C1735     1.0  0.31111  0.05034  0.44144  1.0000
  C   C1736     1.0  0.32226  0.05454  0.44677  1.0000
  C   C1737     1.0  0.42132  0.02292  0.24109  1.0000
  H   H3015     1.0  0.32782  0.98981  0.45001  1.0000
  H   H3016     1.0  0.30932  0.05543  0.42962  1.0000
  H   H3017     1.0  0.32912  0.06279  0.43891  1.0000
  C   C1738     1.0  0.28873  0.18167  0.08825  1.0000
  C   C1739     1.0  0.28046  0.07163  0.14279  1.0000
  H   H3018     1.0  0.42278  0.99903  0.24095  1.0000
  H   H3019     1.0  0.48800  0.04800  0.41487  1.0000
  H   H3020     1.0  0.35108  0.99564  0.46574  1.0000
  N   N93       1.0  0.24980  0.06886  0.29945  1.0000
  H   H3021     1.0  0.25330  0.15301  0.18249  1.0000
  H   H3022     1.0  0.38294  0.03419  0.31915  1.0000
  C   C1740     1.0  0.41411  0.02953  0.22660  1.0000
  C   C1741     1.0  0.48082  0.98593  0.44427  1.0000
  H   H3023     1.0  0.33566  0.00552  0.42855  1.0000
  H   H3024     1.0  0.25225  0.06681  0.14698  1.0000
  C   C1742     1.0  0.29101  0.12756  0.11759  1.0000
  H   H3025     1.0  0.42030  0.03020  0.33192  1.0000
  H   H3026     1.0  0.28128  0.12140  0.12390  1.0000
  N   N94       1.0  0.43907  0.99820  0.25488  1.0000
  H   H3027     1.0  0.30597  0.13139  0.09418  1.0000
  H   H3028     1.0  0.28502  0.05362  0.11812  1.0000
  H   H3029     1.0  0.30257  0.11718  0.13719  1.0000
  H   H3030     1.0  0.29800  0.14528  0.05698  1.0000
  H   H3031     1.0  0.29520  0.05015  0.20456  1.0000
  H   H3032     1.0  0.27091  0.02430  0.12483  1.0000
  C   C1743     1.0  0.33493  0.98719  0.45895  1.0000
  H   H3033     1.0  0.36698  0.98801  0.36860  1.0000
  H   H3034     1.0  0.40326  0.03125  0.31737  1.0000
  H   H3035     1.0  0.28694  0.02742  0.23647  1.0000
  H   H3036     1.0  0.49020  0.04103  0.47342  1.0000
  H   H3037     1.0  0.26146  0.10203  0.07739  1.0000
  H   H3038     1.0  0.39497  0.99459  0.34535  1.0000
  C   C1744     1.0  0.39183  0.03404  0.32557  1.0000
  H   H3039     1.0  0.36872  0.08009  0.33049  1.0000
  H   H3040     1.0  0.35064  0.02910  0.44567  1.0000
  H   H3041     1.0  0.26238  0.06858  0.26645  1.0000
  C   C1745     1.0  0.24577  0.18761  0.08222  1.0000
  H   H3042     1.0  0.39685  0.07528  0.28206  1.0000
  H   H3043     1.0  0.25276  0.06530  0.37104  1.0000
  S   S406      1.0  0.27200  0.22837  0.08617  1.0000
  C   C1746     1.0  0.32706  0.99293  0.34446  1.0000
  H   H3044     1.0  0.46479  0.99968  0.31554  1.0000
  C   C1747     1.0  0.29717  0.13321  0.06386  1.0000
  H   H3045     1.0  0.30750  0.02166  0.33412  1.0000
  H   H3046     1.0  0.29038  0.05455  0.22386  1.0000
  H   H3047     1.0  0.41084  0.99548  0.30093  1.0000
  H   H3048     1.0  0.36301  0.01335  0.20966  1.0000
  H   H3049     1.0  0.24657  0.17949  0.16163  1.0000
  H   H3050     1.0  0.27203  0.14099  0.07136  1.0000
  C   C1748     1.0  0.29711  0.12376  0.05230  1.0000
  H   H3051     1.0  0.27020  0.05451  0.32155  1.0000
  C   C1749     1.0  0.28196  0.13378  0.07702  1.0000
  C   C1750     1.0  0.37289  0.05421  0.33833  1.0000
  C   C1751     1.0  0.24571  0.17701  0.18611  1.0000
  H   H3052     1.0  0.33159  0.00385  0.34146  1.0000
  H   H3053     1.0  0.28380  0.05865  0.14457  1.0000
  H   H3054     1.0  0.37330  0.05594  0.21817  1.0000
  C   C1752     1.0  0.37713  0.06639  0.20983  1.0000
  H   H3055     1.0  0.36218  0.01789  0.41004  1.0000
  H   H3056     1.0  0.25366  0.04691  0.45548  1.0000
  H   H3057     1.0  0.24444  0.03137  0.08693  1.0000
  N   N95       1.0  0.26454  0.07239  0.12261  1.0000
  C   C1753     1.0  0.27198  0.05539  0.12191  1.0000
  H   H3058     1.0  0.45579  0.00182  0.26586  1.0000
  C   C1754     1.0  0.34922  0.02200  0.41292  1.0000
  C   C1755     1.0  0.36771  0.07101  0.34158  1.0000
  H   H3059     1.0  0.25292  0.07742  0.10318  1.0000
  H   H3060     1.0  0.25447  0.12641  0.09490  1.0000
  S   S407      1.0  0.24344  0.16424  0.07004  1.0000
  C   C1756     1.0  0.34444  0.01585  0.23065  1.0000
  S   S408      1.0  0.24203  0.04004  0.39610  1.0000
  H   H3061     1.0  0.33942  0.99317  0.23685  1.0000
  C   C1757     1.0  0.42662  0.99593  0.26978  1.0000
  H   H3062     1.0  0.40023  0.06194  0.33948  1.0000
  H   H3063     1.0  0.47979  0.02675  0.23412  1.0000
  H   H3064     1.0  0.25397  0.17874  0.08833  1.0000
  C   C1758     1.0  0.38106  0.06474  0.30279  1.0000
  H   H3065     1.0  0.24734  0.08616  0.26778  1.0000
  N   N96       1.0  0.28203  0.13997  0.09089  1.0000
  S   S409      1.0  0.37864  0.99140  0.25645  1.0000
  H   H3066     1.0  0.38827  0.02761  0.43950  1.0000
  H   H3067     1.0  0.37818  0.02074  0.34638  1.0000
  C   C1759     1.0  0.28624  0.15588  0.08435  1.0000
  H   H3068     1.0  0.37279  0.03759  0.45320  1.0000
  H   H3069     1.0  0.31967  0.00063  0.25796  1.0000
  H   H3070     1.0  0.27578  0.05008  0.21676  1.0000
  C   C1760     1.0  0.27507  0.08478  0.09348  1.0000
  C   C1761     1.0  0.28575  0.16525  0.09641  1.0000
  H   H3071     1.0  0.30486  0.03522  0.27635  1.0000
  C   C1762     1.0  0.26067  0.08232  0.10722  1.0000
  S   S410      1.0  0.34687  0.01999  0.28262  1.0000
  H   H3072     1.0  0.33172  0.02281  0.43511  1.0000
  C   C1763     1.0  0.24967  0.07187  0.44638  1.0000
  C   C1764     1.0  0.24985  0.05515  0.44491  1.0000
  H   H3073     1.0  0.24713  0.01932  0.07304  1.0000
  C   C1765     1.0  0.37098  0.01387  0.45406  1.0000
  C   C1766     1.0  0.24419  0.00681  0.45115  1.0000
  H   H3074     1.0  0.27986  0.12165  0.08098  1.0000
  H   H3075     1.0  0.39760  0.01994  0.34836  1.0000
  H   H3076     1.0  0.43897  0.99462  0.28804  1.0000
  H   H3077     1.0  0.25803  0.23038  0.17269  1.0000
  C   C1767     1.0  0.27030  0.09072  0.07763  1.0000
  Fe  Fe205     1.0  0.36991  0.01326  0.26621  1.0000
  H   H3078     1.0  0.34531  0.99412  0.31805  1.0000
  C   C1768     1.0  0.41840  0.04270  0.33235  1.0000
  H   H3079     1.0  0.39731  0.04348  0.35110  1.0000
  S   S411      1.0  0.35883  0.01790  0.32180  1.0000
  H   H3080     1.0  0.28764  0.13924  0.12056  1.0000
  H   H3081     1.0  0.32101  0.03012  0.25091  1.0000
  Fe  Fe206     1.0  0.29873  0.01364  0.39778  1.0000
  H   H3082     1.0  0.41948  0.00749  0.27204  1.0000
  H   H3083     1.0  0.45115  0.99416  0.47404  1.0000
  C   C1769     1.0  0.26688  0.04830  0.11082  1.0000
  H   H3084     1.0  0.39279  0.07312  0.31583  1.0000
  N   N97       1.0  0.34730  0.10051  0.22857  1.0000
  C   C1770     1.0  0.33544  0.10398  0.21850  1.0000
  C   C1771     1.0  0.35876  0.08503  0.22691  1.0000
  C   C1772     1.0  0.33835  0.09889  0.24551  1.0000
  C   C1773     1.0  0.35585  0.11365  0.22490  1.0000
  C   C1774     1.0  0.36444  0.11870  0.20763  1.0000
  C   C1775     1.0  0.32236  0.11909  0.21955  1.0000
  C   C1776     1.0  0.34847  0.09287  0.25820  1.0000
  C   C1777     1.0  0.36369  0.08089  0.21044  1.0000
  H   H3085     1.0  0.30782  0.12782  0.06884  1.0000
  C   C1778     1.0  0.36998  0.13386  0.20513  1.0000
  C   C1779     1.0  0.31208  0.12197  0.20775  1.0000
  C   C1780     1.0  0.33806  0.09198  0.27474  1.0000
  H   H3086     1.0  0.32949  0.09398  0.22166  1.0000
  H   H3087     1.0  0.34119  0.10479  0.20590  1.0000
  H   H3088     1.0  0.36965  0.08430  0.23079  1.0000
  H   H3089     1.0  0.35362  0.07504  0.23492  1.0000
  H   H3090     1.0  0.33022  0.09082  0.24815  1.0000
  H   H3091     1.0  0.33071  0.11036  0.24764  1.0000
  H   H3092     1.0  0.34766  0.12424  0.22868  1.0000
  H   H3093     1.0  0.36505  0.11035  0.23191  1.0000
  H   H3094     1.0  0.35679  0.12091  0.19925  1.0000
  H   H3095     1.0  0.37511  0.10956  0.20472  1.0000
  H   H3096     1.0  0.31447  0.11803  0.23141  1.0000
  H   H3097     1.0  0.32745  0.12957  0.21694  1.0000
  H   H3098     1.0  0.35636  0.10081  0.25674  1.0000
  H   H3099     1.0  0.35579  0.08093  0.25761  1.0000
  H   H3100     1.0  0.35362  0.07822  0.20769  1.0000
  H   H3101     1.0  0.36746  0.09060  0.20094  1.0000
  H   H3102     1.0  0.30758  0.12446  0.04245  1.0000
  C   C1781     1.0  0.39674  0.00434  0.33493  1.0000
  C   C1782     1.0  0.27593  0.07933  0.12664  1.0000
  H   H3103     1.0  0.37799  0.13231  0.21304  1.0000
  H   H3104     1.0  0.37648  0.13701  0.19277  1.0000
  H   H3105     1.0  0.35977  0.14370  0.20738  1.0000
  H   H3106     1.0  0.30652  0.11187  0.20996  1.0000
  H   H3107     1.0  0.30259  0.13264  0.20893  1.0000
  H   H3108     1.0  0.31918  0.12376  0.19551  1.0000
  H   H3109     1.0  0.33021  0.08372  0.27711  1.0000
  H   H3110     1.0  0.34553  0.08765  0.28359  1.0000
  H   H3111     1.0  0.33077  0.10376  0.27617  1.0000
  H   H3112     1.0  0.28719  0.07847  0.11770  1.0000
  H   H3113     1.0  0.33446  0.01050  0.46137  1.0000
  H   H3114     1.0  0.29477  0.01990  0.27867  1.0000
  H   H3115     1.0  0.41813  0.98974  0.26851  1.0000
  H   H3116     1.0  0.29027  0.02299  0.21751  1.0000
  H   H3117     1.0  0.28415  0.07372  0.09311  1.0000
  H   H3118     1.0  0.28830  0.18810  0.09722  1.0000
  H   H3119     1.0  0.31371  0.99715  0.21800  1.0000
  C   C1783     1.0  0.34163  0.01407  0.42989  1.0000
  H   H3120     1.0  0.34265  0.07450  0.34293  1.0000
  C   C1784     1.0  0.24300  0.06583  0.28740  1.0000
  H   H3121     1.0  0.38066  0.06403  0.19781  1.0000
  H   H3122     1.0  0.42528  0.03653  0.35492  1.0000
  C   C1785     1.0  0.46549  0.99618  0.32813  1.0000
  H   H3123     1.0  0.47173  0.04624  0.46716  1.0000
  H   H3124     1.0  0.27019  0.02588  0.10477  1.0000
  H   H3125     1.0  0.27073  0.05402  0.09833  1.0000
  H   H3126     1.0  0.41146  0.02315  0.25151  1.0000
  H   H3127     1.0  0.35097  0.04489  0.39769  1.0000
  H   H3128     1.0  0.39034  0.00373  0.32637  1.0000
  H   H3129     1.0  0.24882  0.20604  0.09108  1.0000
  C   C1786     1.0  0.29364  0.02976  0.22412  1.0000
  S   S412      1.0  0.24222  0.11831  0.19329  1.0000
  C   C1787     1.0  0.43469  0.98699  0.46586  1.0000
  H   H3130     1.0  0.31535  0.03458  0.22530  1.0000
  H   H3131     1.0  0.38834  0.02219  0.46014  1.0000
  C   C1788     1.0  0.35999  0.01895  0.44224  1.0000
  H   H3132     1.0  0.24573  0.12976  0.12927  1.0000
  H   H3133     1.0  0.26498  0.14530  0.11205  1.0000
  H   H3134     1.0  0.33864  0.00281  0.21702  1.0000
  H   H3135     1.0  0.34744  0.08590  0.35361  1.0000
  C   C1789     1.0  0.33497  0.00463  0.22931  1.0000
  H   H3136     1.0  0.29029  0.99512  0.37959  1.0000
  C   C1790     1.0  0.25116  0.03760  0.17327  1.0000
  H   H3137     1.0  0.34853  0.06517  0.36145  1.0000
  H   H3138     1.0  0.38753  0.06822  0.21277  1.0000
  C   C1791     1.0  0.39065  0.02007  0.34000  1.0000
  H   H3139     1.0  0.29760  0.11123  0.05821  1.0000
  H   H3140     1.0  0.48414  0.03913  0.44029  1.0000
  H   H3141     1.0  0.42273  0.04932  0.32036  1.0000
  H   H3142     1.0  0.24526  0.08615  0.13663  1.0000
  C   C1792     1.0  0.34513  0.03997  0.40986  1.0000
  H   H3143     1.0  0.42792  0.99911  0.46213  1.0000
  C   C1793     1.0  0.25791  0.12755  0.10533  1.0000
  C   C1794     1.0  0.26710  0.06119  0.29697  1.0000
  H   H3144     1.0  0.29771  0.99963  0.23435  1.0000
  H   H3145     1.0  0.34902  0.04430  0.41816  1.0000
  C   C1795     1.0  0.46153  0.01329  0.24164  1.0000
  H   H3146     1.0  0.36390  0.01271  0.46631  1.0000
  C   C1796     1.0  0.24953  0.07317  0.26995  1.0000
  C   C1797     1.0  0.29292  0.05297  0.30607  1.0000
  H   H3147     1.0  0.40951  0.00272  0.32945  1.0000
  H   H3148     1.0  0.29648  0.01053  0.35132  1.0000
  H   H3149     1.0  0.36706  0.02375  0.43065  1.0000
  C   C1798     1.0  0.34337  0.00049  0.45710  1.0000
  C   C1799     1.0  0.27551  0.06098  0.30986  1.0000
  H   H3150     1.0  0.25631  0.09110  0.28714  1.0000
  C   C1800     1.0  0.31009  0.02564  0.25558  1.0000
  H   H3151     1.0  0.38197  0.08927  0.29214  1.0000
  H   H3152     1.0  0.26909  0.04891  0.29563  1.0000
  H   H3153     1.0  0.27365  0.06731  0.28568  1.0000
  H   H3154     1.0  0.27514  0.06922  0.44104  1.0000
  H   H3155     1.0  0.30187  0.99065  0.43275  1.0000
  Fe  Fe207     1.0  0.25676  0.11669  0.21025  1.0000
  H   H3156     1.0  0.42784  0.05577  0.34318  1.0000
  C   C1801     1.0  0.31167  0.02481  0.22314  1.0000
  H   H3157     1.0  0.34930  0.01538  0.35494  1.0000
  H   H3158     1.0  0.40607  0.02228  0.22649  1.0000
  H   H3159     1.0  0.36429  0.05263  0.33249  1.0000
  H   H3160     1.0  0.29866  0.05303  0.31542  1.0000
  H   H3161     1.0  0.30497  0.07391  0.13505  1.0000
  H   H3162     1.0  0.24515  0.05299  0.28820  1.0000
  H   H3163     1.0  0.26647  0.06388  0.46177  1.0000
  H   H3164     1.0  0.29430  0.04058  0.30549  1.0000
  H   H3165     1.0  0.29902  0.05932  0.29468  1.0000
  H   H3166     1.0  0.25771  0.19073  0.12027  1.0000
  H   H3167     1.0  0.45332  0.99778  0.33539  1.0000
  H   H3168     1.0  0.24953  0.16512  0.12985  1.0000
  H   H3169     1.0  0.34004  0.02819  0.22505  1.0000
  H   H3170     1.0  0.38255  0.05405  0.29839  1.0000
  C   C1802     1.0  0.24516  0.20860  0.16610  1.0000
  H   H3171     1.0  0.27958  0.18851  0.08148  1.0000
  S   S413      1.0  0.24190  0.22965  0.11663  1.0000
  H   H3172     1.0  0.31528  0.12468  0.11912  1.0000
  H   H3173     1.0  0.37123  0.04596  0.35001  1.0000
  H   H3174     1.0  0.29504  0.15924  0.10318  1.0000
  H   H3175     1.0  0.48131  0.01644  0.43353  1.0000
  H   H3176     1.0  0.30050  0.18092  0.08019  1.0000
  C   C1803     1.0  0.29415  0.12863  0.09961  1.0000
  H   H3177     1.0  0.26623  0.11662  0.10934  1.0000
  S   S414      1.0  0.38435  0.01679  0.28085  1.0000
  H   H3178     1.0  0.31742  0.02444  0.21063  1.0000
  C   C1804     1.0  0.40080  0.04976  0.33869  1.0000
  H   H3179     1.0  0.47001  0.00288  0.23790  1.0000
  C   C1805     1.0  0.42874  0.04340  0.34280  1.0000
  N   N98       1.0  0.38949  0.04991  0.32910  1.0000
  H   H3180     1.0  0.29840  0.15477  0.07704  1.0000
  C   C1806     1.0  0.29361  0.98800  0.44424  1.0000
  H   H3181     1.0  0.48979  0.99558  0.45818  1.0000
  H   H3182     1.0  0.29550  0.11641  0.09838  1.0000
  H   H3183     1.0  0.36861  0.06818  0.30884  1.0000
  C   C1807     1.0  0.26480  0.07228  0.45051  1.0000
  C   C1808     1.0  0.38439  0.07796  0.28848  1.0000
  H   H3184     1.0  0.25573  0.20372  0.15766  1.0000
  C   C1809     1.0  0.35056  0.07426  0.35045  1.0000
  C   C1810     1.0  0.38067  0.02610  0.45150  1.0000
  H   H3185     1.0  0.29139  0.09019  0.14287  1.0000
  C   C1811     1.0  0.27431  0.03077  0.11250  1.0000
  H   H3186     1.0  0.26983  0.04773  0.13392  1.0000
  N   N99       1.0  0.31724  0.00936  0.23382  1.0000
  H   H3187     1.0  0.37025  0.98501  0.44532  1.0000
  H   H3188     1.0  0.25148  0.01042  0.09217  1.0000
  H   H3189     1.0  0.46303  0.03410  0.24835  1.0000
  C   C1812     1.0  0.29437  0.07724  0.14415  1.0000
  H   H3190     1.0  0.40448  0.05771  0.30666  1.0000
  Fe  Fe208     1.0  0.47788  0.03767  0.29138  1.0000
  C   C1813     1.0  0.28850  0.04719  0.21687  1.0000
  C   C1814     1.0  0.24280  0.20312  0.08385  1.0000
  H   H3191     1.0  0.25785  0.17911  0.18256  1.0000
  H   H3192     1.0  0.36678  0.99881  0.22716  1.0000
  H   H3193     1.0  0.28734  0.02883  0.10903  1.0000
  H   H3194     1.0  0.25363  0.09419  0.10877  1.0000
  C   C1815     1.0  0.36571  0.99331  0.43521  1.0000
  H   H3195     1.0  0.44123  0.03832  0.33790  1.0000
  H   H3196     1.0  0.33225  0.04442  0.41105  1.0000
  H   H3197     1.0  0.37606  0.99800  0.42754  1.0000
  S   S415      1.0  0.24665  0.12800  0.23108  1.0000
  H   H3198     1.0  0.47696  0.01909  0.46256  1.0000
  H   H3199     1.0  0.25068  0.99736  0.45927  1.0000
  H   H3200     1.0  0.26425  0.08426  0.45177  1.0000
  H   H3201     1.0  0.32129  0.99126  0.35717  1.0000
  H   H3202     1.0  0.26659  0.22806  0.15264  1.0000
  C   C1816     1.0  0.31357  0.99631  0.33568  1.0000
  H   H3203     1.0  0.25945  0.05237  0.43471  1.0000
  C   C1817     1.0  0.49092  0.98848  0.27733  1.0000
  C   C1818     1.0  0.30171  0.01147  0.33856  1.0000
  H   H3204     1.0  0.25545  0.03795  0.31897  1.0000
  H   H3205     1.0  0.25858  0.02259  0.44967  1.0000
  H   H3206     1.0  0.43981  0.00598  0.22983  1.0000
  C   C1819     1.0  0.24296  0.12931  0.11822  1.0000
  C   C1820     1.0  0.31078  0.99700  0.23083  1.0000
  H   H3207     1.0  0.27484  0.07311  0.31076  1.0000
  C   C1821     1.0  0.24152  0.06142  0.19032  1.0000
  H   H3208     1.0  0.47723  0.01651  0.25441  1.0000
  H   H3209     1.0  0.25399  0.04976  0.11326  1.0000
  C   C1822     1.0  0.24175  0.06409  0.36952  1.0000
  C   C1823     1.0  0.25584  0.23316  0.16065  1.0000
  H   H3210     1.0  0.24957  0.18187  0.00398  1.0000
  S   S416      1.0  0.48921  0.05284  0.29889  1.0000
  H   H3211     1.0  0.24415  0.06607  0.32482  1.0000
  H   H3212     1.0  0.29360  0.99613  0.45145  1.0000
  C   C1824     1.0  0.24975  0.07369  0.13539  1.0000
  H   H3213     1.0  0.47160  0.00403  0.33058  1.0000
  C   C1825     1.0  0.24293  0.04414  0.32021  1.0000
  C   C1826     1.0  0.24581  0.02281  0.45219  1.0000
  H   H3214     1.0  0.24306  0.06505  0.08355  1.0000
  H   H3215     1.0  0.29733  0.02542  0.47489  1.0000
  C   C1827     1.0  0.48049  0.03637  0.47237  1.0000
  H   H3216     1.0  0.28155  0.99014  0.44230  1.0000
  H   H3217     1.0  0.24892  0.08041  0.43503  1.0000
  C   C1828     1.0  0.24187  0.22680  0.16069  1.0000
  H   H3218     1.0  0.48933  0.03087  0.40782  1.0000
  H   H3219     1.0  0.31803  0.99772  0.32280  1.0000
  H   H3220     1.0  0.45712  0.98437  0.23989  1.0000
  H   H3221     1.0  0.36565  0.98698  0.29354  1.0000
  H   H3222     1.0  0.24475  0.05633  0.25966  1.0000
  H   H3223     1.0  0.24920  0.00488  0.43900  1.0000
  C   C1829     1.0  0.48698  0.02400  0.46236  1.0000
  H   H3224     1.0  0.31384  0.99495  0.47598  1.0000
  C   C1830     1.0  0.43270  0.98730  0.28503  1.0000
  H   H3225     1.0  0.25364  0.15492  0.20166  1.0000
  H   H3226     1.0  0.24572  0.03594  0.42840  1.0000
  H   H3227     1.0  0.30708  0.98667  0.33998  1.0000
  C   C1831     1.0  0.24170  0.06918  0.25905  1.0000
  H   H3228     1.0  0.33896  0.98866  0.37026  1.0000
  C   C1832     1.0  0.32375  0.98457  0.47507  1.0000
  H   H3229     1.0  0.24261  0.19985  0.97989  1.0000
  H   H3230     1.0  0.35903  0.10274  0.55406  1.0000
  H   H3231     1.0  0.26314  0.04648  0.82881  1.0000
  H   H3232     1.0  0.37859  0.07639  0.57157  1.0000
  S   S417      1.0  0.47747  0.06525  0.52210  1.0000
  H   H3233     1.0  0.33179  0.09767  0.56341  1.0000
  H   H3234     1.0  0.35452  0.07280  0.54729  1.0000
  Fe  Fe209     1.0  0.47163  0.04140  0.52988  1.0000
  S   S418      1.0  0.44694  0.03687  0.53884  1.0000
  H   H3235     1.0  0.24398  0.08217  0.90515  1.0000
  C   C1833     1.0  0.25577  0.12495  0.68499  1.0000
  H   H3236     1.0  0.25787  0.04862  0.70892  1.0000
  Fe  Fe210     1.0  0.29645  0.04838  0.66473  1.0000
  S   S419      1.0  0.27221  0.04624  0.66531  1.0000
  S   S420      1.0  0.29568  0.05563  0.68692  1.0000
  Fe  Fe211     1.0  0.30978  0.03864  0.63304  1.0000
  S   S421      1.0  0.28639  0.03645  0.63110  1.0000
  S   S422      1.0  0.33152  0.03073  0.61519  1.0000
  Fe  Fe212     1.0  0.27690  0.05874  0.64015  1.0000
  S   S423      1.0  0.25850  0.07846  0.63026  1.0000
  Fe  Fe213     1.0  0.28389  0.02423  0.65650  1.0000
  S   S424      1.0  0.27602  0.00135  0.66727  1.0000
  S   S425      1.0  0.30068  0.06214  0.63973  1.0000
  S   S426      1.0  0.30785  0.02508  0.65811  1.0000
  Fe  Fe214     1.0  0.35898  0.03630  0.75150  1.0000
  S   S427      1.0  0.37652  0.04449  0.73015  1.0000
  S   S428      1.0  0.35702  0.01104  0.75945  1.0000
  Fe  Fe215     1.0  0.34681  0.06887  0.75901  1.0000
  S   S429      1.0  0.36382  0.07970  0.73821  1.0000
  S   S430      1.0  0.32597  0.07927  0.77636  1.0000
  Fe  Fe216     1.0  0.35708  0.06546  0.72517  1.0000
  S   S431      1.0  0.35228  0.07442  0.70062  1.0000
  Fe  Fe217     1.0  0.38183  0.05762  0.74517  1.0000
  S   S432      1.0  0.40782  0.05118  0.74592  1.0000
  S   S433      1.0  0.33913  0.05608  0.74549  1.0000
  S   S434      1.0  0.36520  0.04798  0.76698  1.0000
  H   H3237     1.0  0.28606  0.01151  0.57588  1.0000
  H   H3238     1.0  0.26339  0.16207  0.70430  1.0000
  S   S435      1.0  0.33340  0.03427  0.51552  1.0000
  S   S436      1.0  0.40211  0.04235  0.49389  1.0000
  C   C1834     1.0  0.27439  0.99235  0.65301  1.0000
  H   H3239     1.0  0.24616  0.04779  0.63822  1.0000
  S   S437      1.0  0.45889  0.08356  0.75168  1.0000
  H   H3240     1.0  0.40706  0.00739  0.72928  1.0000
  H   H3241     1.0  0.25422  0.09779  0.90172  1.0000
  H   H3242     1.0  0.24572  0.18607  0.86043  1.0000
  C   C1835     1.0  0.45962  0.01871  0.74564  1.0000
  H   H3243     1.0  0.42641  0.00440  0.49019  1.0000
  S   S438      1.0  0.24611  0.20618  0.81553  1.0000
  Fe  Fe218     1.0  0.28130  0.15882  0.79219  1.0000
  S   S439      1.0  0.26459  0.14679  0.78846  1.0000
  S   S440      1.0  0.30740  0.14948  0.78504  1.0000
  C   C1836     1.0  0.40888  0.07738  0.56932  1.0000
  C   C1837     1.0  0.38056  0.02884  0.57387  1.0000
  C   C1838     1.0  0.27179  0.09998  0.67930  1.0000
  H   H3244     1.0  0.39355  0.02482  0.57069  1.0000
  H   H3245     1.0  0.31221  0.07134  0.57203  1.0000
  H   H3246     1.0  0.36306  0.05015  0.57552  1.0000
  C   C1839     1.0  0.37803  0.07406  0.52022  1.0000
  S   S441      1.0  0.27023  0.18301  0.78027  1.0000
  C   C1840     1.0  0.32997  0.05247  0.56346  1.0000
  S   S442      1.0  0.33012  0.06162  0.54354  1.0000
  H   H3247     1.0  0.45313  0.01138  0.72808  1.0000
  H   H3248     1.0  0.38409  0.09097  0.55499  1.0000
  H   H3249     1.0  0.35938  0.10073  0.53473  1.0000
  C   C1841     1.0  0.30221  0.14766  0.73885  1.0000
  H   H3250     1.0  0.31721  0.03274  0.48418  1.0000
  H   H3251     1.0  0.28034  0.03961  0.57546  1.0000
  H   H3252     1.0  0.36534  0.07969  0.52157  1.0000
  C   C1842     1.0  0.48923  0.03195  0.69772  1.0000
  H   H3253     1.0  0.46621  0.09017  0.81496  1.0000
  H   H3254     1.0  0.25293  0.17054  0.91587  1.0000
  C   C1843     1.0  0.24524  0.22834  0.94007  1.0000
  C   C1844     1.0  0.24773  0.11171  0.87077  1.0000
  H   H3255     1.0  0.42240  0.00720  0.51718  1.0000
  H   H3256     1.0  0.45261  0.12355  0.78684  1.0000
  H   H3257     1.0  0.37935  0.06126  0.52156  1.0000
  H   H3258     1.0  0.37973  0.99204  0.62478  1.0000
  H   H3259     1.0  0.44994  0.15048  0.79273  1.0000
  H   H3260     1.0  0.38221  0.00504  0.71598  1.0000
  H   H3261     1.0  0.25996  0.11965  0.77691  1.0000
  H   H3262     1.0  0.31419  0.00807  0.56144  1.0000
  H   H3263     1.0  0.26515  0.19582  0.90085  1.0000
  H   H3264     1.0  0.27661  0.07916  0.70680  1.0000
  H   H3265     1.0  0.36042  0.99864  0.67351  1.0000
  H   H3266     1.0  0.28993  0.99516  0.69945  1.0000
  H   H3267     1.0  0.26154  0.10185  0.77095  1.0000
  H   H3268     1.0  0.29251  0.16577  0.71291  1.0000
  H   H3269     1.0  0.26524  0.12305  0.74771  1.0000
  H   H3270     1.0  0.26496  0.11388  0.65726  1.0000
  C   C1845     1.0  0.38797  0.99439  0.71112  1.0000
  S   S443      1.0  0.28107  0.22958  0.85365  1.0000
  Fe  Fe219     1.0  0.48088  0.06585  0.75713  1.0000
  Fe  Fe220     1.0  0.34658  0.04447  0.49156  1.0000
  H   H3271     1.0  0.25076  0.17994  0.97709  1.0000
  C   C1846     1.0  0.24422  0.00815  0.72909  1.0000
  C   C1847     1.0  0.32116  0.09895  0.77813  1.0000
  C   C1848     1.0  0.30684  0.10423  0.78800  1.0000
  C   C1849     1.0  0.30253  0.11973  0.79006  1.0000
  C   C1850     1.0  0.31257  0.13006  0.78232  1.0000
  C   C1851     1.0  0.32692  0.12481  0.77242  1.0000
  C   C1852     1.0  0.33117  0.10929  0.77022  1.0000
  H   H3272     1.0  0.29911  0.09626  0.79420  1.0000
  H   H3273     1.0  0.29162  0.12355  0.79796  1.0000
  H   H3274     1.0  0.33477  0.13274  0.76648  1.0000
  H   H3275     1.0  0.34228  0.10525  0.76265  1.0000
  C   C1853     1.0  0.41951  0.06145  0.75032  1.0000
  C   C1854     1.0  0.41870  0.07756  0.74430  1.0000
  C   C1855     1.0  0.43043  0.08450  0.74540  1.0000
  C   C1856     1.0  0.44315  0.07530  0.75219  1.0000
  C   C1857     1.0  0.44351  0.05940  0.75880  1.0000
  C   C1858     1.0  0.43166  0.05260  0.75800  1.0000
  H   H3276     1.0  0.40950  0.08450  0.73820  1.0000
  H   H3277     1.0  0.43003  0.09684  0.74031  1.0000
  H   H3278     1.0  0.45307  0.05224  0.76432  1.0000
  H   H3279     1.0  0.43214  0.04027  0.76300  1.0000
  H   H3280     1.0  0.38550  0.08996  0.52934  1.0000
  H   H3281     1.0  0.28187  0.09075  0.71715  1.0000
  H   H3282     1.0  0.31933  0.01327  0.57640  1.0000
  H   H3283     1.0  0.25824  0.11098  0.71492  1.0000
  C   C1859     1.0  0.41456  0.04073  0.50643  1.0000
  C   C1860     1.0  0.31204  0.05997  0.69039  1.0000
  C   C1861     1.0  0.31182  0.06055  0.70574  1.0000
  C   C1862     1.0  0.32422  0.06472  0.70897  1.0000
  C   C1863     1.0  0.33693  0.06843  0.69688  1.0000
  C   C1864     1.0  0.33707  0.06800  0.68146  1.0000
  C   C1865     1.0  0.32472  0.06364  0.67822  1.0000
  H   H3284     1.0  0.30201  0.05779  0.71518  1.0000
  H   H3285     1.0  0.32374  0.06538  0.72078  1.0000
  H   H3286     1.0  0.34680  0.07100  0.67201  1.0000
  H   H3287     1.0  0.32489  0.06336  0.66632  1.0000
  C   C1866     1.0  0.40688  0.99132  0.52263  1.0000
  H   H3288     1.0  0.25459  0.06433  0.69221  1.0000
  C   C1867     1.0  0.24717  0.09282  0.64099  1.0000
  C   C1868     1.0  0.35257  0.00404  0.74533  1.0000
  C   C1869     1.0  0.34865  0.01418  0.73155  1.0000
  C   C1870     1.0  0.34560  0.00817  0.72023  1.0000
  H   H3289     1.0  0.46019  0.98829  0.49624  1.0000
  Fe  Fe221     1.0  0.25005  0.15193  0.81147  1.0000
  H   H3290     1.0  0.34802  0.02664  0.72958  1.0000
  H   H3291     1.0  0.34260  0.01603  0.70959  1.0000
  H   H3292     1.0  0.46035  0.11624  0.53122  1.0000
  C   C1871     1.0  0.38624  0.08056  0.50343  1.0000
  C   C1872     1.0  0.26933  0.00145  0.63937  1.0000
  C   C1873     1.0  0.30047  0.00294  0.71409  1.0000
  S   S444      1.0  0.36613  0.02940  0.52835  1.0000
  C   C1874     1.0  0.44645  0.09057  0.79861  1.0000
  H   H3293     1.0  0.26500  0.00133  0.61717  1.0000
  H   H3294     1.0  0.26592  0.01408  0.63771  1.0000
  C   C1875     1.0  0.24878  0.13682  0.69590  1.0000
  C   C1876     1.0  0.37595  0.04674  0.57118  1.0000
  C   C1877     1.0  0.46995  0.10818  0.52481  1.0000
  C   C1878     1.0  0.32002  0.05333  0.59120  1.0000
  C   C1879     1.0  0.33033  0.03903  0.59542  1.0000
  C   C1880     1.0  0.34024  0.03137  0.58366  1.0000
  C   C1881     1.0  0.33992  0.03793  0.56775  1.0000
  H   H3295     1.0  0.31229  0.05933  0.60020  1.0000
  H   H3296     1.0  0.34829  0.02040  0.58688  1.0000
  H   H3297     1.0  0.34754  0.03188  0.55882  1.0000
  C   C1882     1.0  0.43503  0.03800  0.52598  1.0000
  C   C1883     1.0  0.42014  0.03445  0.53243  1.0000
  H   H3298     1.0  0.41661  0.03049  0.54502  1.0000
  H   H3299     1.0  0.26705  0.01229  0.71705  1.0000
  H   H3300     1.0  0.31685  0.00771  0.69175  1.0000
  H   H3301     1.0  0.37429  0.00280  0.69310  1.0000
  H   H3302     1.0  0.28725  0.98911  0.74169  1.0000
  H   H3303     1.0  0.46724  0.15486  0.79522  1.0000
  C   C1884     1.0  0.26289  0.09875  0.86801  1.0000
  H   H3304     1.0  0.37638  0.02373  0.58649  1.0000
  H   H3305     1.0  0.38226  0.99535  0.59628  1.0000
  Fe  Fe222     1.0  0.35593  0.01641  0.51732  1.0000
  C   C1885     1.0  0.38075  0.05440  0.55351  1.0000
  H   H3306     1.0  0.43618  0.99182  0.70723  1.0000
  H   H3307     1.0  0.47491  0.13598  0.77824  1.0000
  H   H3308     1.0  0.27796  0.08625  0.65412  1.0000
  H   H3309     1.0  0.26566  0.09375  0.82954  1.0000
  H   H3310     1.0  0.29939  0.09385  0.69492  1.0000
  C   C1886     1.0  0.47647  0.09188  0.80508  1.0000
  H   H3311     1.0  0.24476  0.02928  0.83369  1.0000
  C   C1887     1.0  0.28025  0.21584  0.83039  1.0000
  C   C1888     1.0  0.35407  0.00526  0.65030  1.0000
  C   C1889     1.0  0.38518  0.07805  0.55910  1.0000
  C   C1890     1.0  0.25351  0.17038  0.92799  1.0000
  H   H3312     1.0  0.47174  0.01164  0.74377  1.0000
  H   H3313     1.0  0.24644  0.09686  0.79864  1.0000
  C   C1891     1.0  0.27195  0.08784  0.71437  1.0000
  S   S445      1.0  0.35584  0.06008  0.50072  1.0000
  H   H3314     1.0  0.25965  0.06110  0.80120  1.0000
  C   C1892     1.0  0.40295  0.07083  0.55875  1.0000
  C   C1893     1.0  0.35436  0.02387  0.66668  1.0000
  S   S446      1.0  0.34389  0.98445  0.70789  1.0000
  C   C1894     1.0  0.27128  0.16897  0.70537  1.0000
  C   C1895     1.0  0.29214  0.07145  0.75372  1.0000
  H   H3315     1.0  0.28294  0.10814  0.74845  1.0000
  H   H3316     1.0  0.34461  0.01409  0.64495  1.0000
  H   H3317     1.0  0.36531  0.00867  0.64342  1.0000
  H   H3318     1.0  0.43343  0.04739  0.48729  1.0000
  H   H3319     1.0  0.25240  0.20569  0.95459  1.0000
  S   S447      1.0  0.24517  0.17592  0.75488  1.0000
  H   H3320     1.0  0.32362  0.10360  0.68512  1.0000
  H   H3321     1.0  0.36582  0.00896  0.61743  1.0000
  C   C1896     1.0  0.24492  0.21089  0.94586  1.0000
  H   H3322     1.0  0.41119  0.99854  0.70626  1.0000
  H   H3323     1.0  0.29933  0.00181  0.62559  1.0000
  C   C1897     1.0  0.24553  0.09043  0.65727  1.0000
  H   H3324     1.0  0.29239  0.98571  0.58310  1.0000
  H   H3325     1.0  0.42664  0.99079  0.53221  1.0000
  H   H3326     1.0  0.28431  0.16998  0.73975  1.0000
  H   H3327     1.0  0.26181  0.09151  0.86048  1.0000
  H   H3328     1.0  0.31176  0.02265  0.70296  1.0000
  H   H3329     1.0  0.38126  0.07774  0.49490  1.0000
  H   H3330     1.0  0.29107  0.01476  0.59250  1.0000
  H   H3331     1.0  0.36978  0.99028  0.56731  1.0000
  C   C1898     1.0  0.35492  0.09655  0.54749  1.0000
  H   H3332     1.0  0.24683  0.08592  0.92994  1.0000
  H   H3333     1.0  0.32870  0.99444  0.65498  1.0000
  H   H3334     1.0  0.35226  0.02543  0.67889  1.0000
  H   H3335     1.0  0.36656  0.02504  0.66060  1.0000
  H   H3336     1.0  0.28668  0.08732  0.82370  1.0000
  Fe  Fe223     1.0  0.25253  0.17101  0.77803  1.0000
  H   H3337     1.0  0.43723  0.01439  0.76125  1.0000
  H   H3338     1.0  0.24815  0.15809  0.67729  1.0000
  N   N100      1.0  0.35410  0.98892  0.64915  1.0000
  C   C1899     1.0  0.30230  0.12570  0.72809  1.0000
  H   H3339     1.0  0.27523  0.07448  0.83864  1.0000
  C   C1900     1.0  0.31454  0.11304  0.73656  1.0000
  C   C1901     1.0  0.32316  0.10042  0.72713  1.0000
  C   C1902     1.0  0.30488  0.17205  0.74549  1.0000
  H   H3340     1.0  0.30913  0.13143  0.71677  1.0000
  H   H3341     1.0  0.31002  0.15161  0.72738  1.0000
  H   H3342     1.0  0.31042  0.14039  0.74659  1.0000
  H   H3343     1.0  0.32350  0.11843  0.73805  1.0000
  H   H3344     1.0  0.30898  0.10698  0.74835  1.0000
  H   H3345     1.0  0.31475  0.09469  0.72509  1.0000
  H   H3346     1.0  0.33026  0.10548  0.71567  1.0000
  H   H3347     1.0  0.33125  0.09125  0.73382  1.0000
  H   H3348     1.0  0.29854  0.18184  0.75153  1.0000
  H   H3349     1.0  0.31448  0.16481  0.75152  1.0000
  N   N101      1.0  0.27580  0.16780  0.86776  1.0000
  C   C1903     1.0  0.26185  0.16298  0.86582  1.0000
  C   C1904     1.0  0.28472  0.15472  0.87862  1.0000
  C   C1905     1.0  0.26943  0.18177  0.87541  1.0000
  C   C1906     1.0  0.28653  0.17282  0.85219  1.0000
  C   C1907     1.0  0.29432  0.16027  0.84219  1.0000
  C   C1908     1.0  0.25117  0.17547  0.85545  1.0000
  C   C1909     1.0  0.28145  0.18766  0.88049  1.0000
  C   C1910     1.0  0.28543  0.13759  0.87804  1.0000
  C   C1911     1.0  0.29690  0.12582  0.88754  1.0000
  C   C1912     1.0  0.30245  0.16758  0.82566  1.0000
  H   H3350     1.0  0.39673  0.98774  0.76237  1.0000
  C   C1913     1.0  0.27300  0.20048  0.88976  1.0000
  H   H3351     1.0  0.25420  0.15950  0.87760  1.0000
  H   H3352     1.0  0.26558  0.15245  0.86065  1.0000
  H   H3353     1.0  0.29701  0.15618  0.87655  1.0000
  H   H3354     1.0  0.27930  0.15538  0.89114  1.0000
  H   H3355     1.0  0.26002  0.17910  0.88602  1.0000
  H   H3356     1.0  0.26400  0.19211  0.86724  1.0000
  H   H3357     1.0  0.28019  0.18336  0.84494  1.0000
  H   H3358     1.0  0.29640  0.17672  0.85394  1.0000
  H   H3359     1.0  0.28566  0.15442  0.84094  1.0000
  H   H3360     1.0  0.30349  0.15128  0.84768  1.0000
  C   C1914     1.0  0.29582  0.98974  0.70958  1.0000
  H   H3361     1.0  0.25796  0.17892  0.84334  1.0000
  H   H3362     1.0  0.28968  0.19284  0.87002  1.0000
  H   H3363     1.0  0.28842  0.17812  0.88806  1.0000
  H   H3364     1.0  0.27362  0.13476  0.88322  1.0000
  H   H3365     1.0  0.28912  0.13572  0.86589  1.0000
  H   H3366     1.0  0.29340  0.12695  0.90000  1.0000
  H   H3367     1.0  0.29687  0.11367  0.88723  1.0000
  H   H3368     1.0  0.30905  0.12775  0.88248  1.0000
  H   H3369     1.0  0.29380  0.17656  0.81943  1.0000
  H   H3370     1.0  0.31173  0.17315  0.82618  1.0000
  H   H3371     1.0  0.30802  0.15833  0.81872  1.0000
  C   C1915     1.0  0.37411  0.98580  0.49886  1.0000
  H   H3372     1.0  0.33744  0.98493  0.67149  1.0000
  S   S448      1.0  0.48270  0.05220  0.78160  1.0000
  H   H3373     1.0  0.28178  0.20507  0.89267  1.0000
  H   H3374     1.0  0.26584  0.21042  0.88269  1.0000
  H   H3375     1.0  0.24628  0.11854  0.85881  1.0000
  H   H3376     1.0  0.41016  0.07359  0.54668  1.0000
  H   H3377     1.0  0.48116  0.99477  0.50505  1.0000
  H   H3378     1.0  0.42160  0.07208  0.56876  1.0000
  C   C1916     1.0  0.30712  0.01426  0.69951  1.0000
  H   H3379     1.0  0.45619  0.10285  0.77559  1.0000
  H   H3380     1.0  0.49000  0.04380  0.69812  1.0000
  C   C1917     1.0  0.34458  0.99241  0.57244  1.0000
  C   C1918     1.0  0.46172  0.11845  0.79405  1.0000
  C   C1919     1.0  0.31160  0.00673  0.57446  1.0000
  S   S449      1.0  0.26788  0.16169  0.81646  1.0000
  C   C1920     1.0  0.25654  0.21092  0.82677  1.0000
  H   H3381     1.0  0.38113  0.98519  0.71723  1.0000
  H   H3382     1.0  0.39331  0.04924  0.54930  1.0000
  H   H3383     1.0  0.26568  0.98823  0.71161  1.0000
  H   H3384     1.0  0.39800  0.07111  0.52982  1.0000
  C   C1921     1.0  0.33696  0.10135  0.55069  1.0000
  S   S450      1.0  0.48927  0.00760  0.77990  1.0000
  N   N102      1.0  0.43629  0.98663  0.50858  1.0000
  C   C1922     1.0  0.31153  0.98693  0.60002  1.0000
  H   H3385     1.0  0.27009  0.06884  0.73507  1.0000
  H   H3386     1.0  0.28773  0.09647  0.85708  1.0000
  C   C1923     1.0  0.40537  0.98862  0.71284  1.0000
  Fe  Fe224     1.0  0.34448  0.04813  0.52484  1.0000
  H   H3387     1.0  0.40244  0.07444  0.58173  1.0000
  H   H3388     1.0  0.28329  0.11633  0.65917  1.0000
  C   C1924     1.0  0.45073  0.99321  0.50551  1.0000
  N   N103      1.0  0.26833  0.11100  0.69020  1.0000
  C   C1925     1.0  0.37235  0.99053  0.60468  1.0000
  N   N104      1.0  0.37792  0.07207  0.54941  1.0000
  H   H3389     1.0  0.34400  0.99713  0.62858  1.0000
  H   H3390     1.0  0.27510  0.13959  0.75888  1.0000
  H   H3391     1.0  0.40526  0.05787  0.56291  1.0000
  H   H3392     1.0  0.27526  0.11392  0.84812  1.0000
  Fe  Fe225     1.0  0.25530  0.18493  0.80434  1.0000
  H   H3393     1.0  0.48659  0.12204  0.52263  1.0000
  H   H3394     1.0  0.33229  0.09585  0.54390  1.0000
  H   H3395     1.0  0.29610  0.03528  0.55899  1.0000
  H   H3396     1.0  0.40742  0.09033  0.56535  1.0000
  H   H3397     1.0  0.27771  0.10447  0.77734  1.0000
  H   H3398     1.0  0.37510  0.02455  0.56675  1.0000
  C   C1926     1.0  0.32001  0.06013  0.57524  1.0000
  N   N105      1.0  0.46133  0.03283  0.71620  1.0000
  C   C1927     1.0  0.45430  0.03341  0.70271  1.0000
  H   H3399     1.0  0.27560  0.17595  0.69355  1.0000
  C   C1928     1.0  0.45983  0.06297  0.70493  1.0000
  C   C1929     1.0  0.43609  0.03891  0.70553  1.0000
  H   H3400     1.0  0.45740  0.02154  0.69994  1.0000
  H   H3401     1.0  0.45493  0.11685  0.80646  1.0000
  C   C1930     1.0  0.28888  0.05914  0.76891  1.0000
  H   H3402     1.0  0.25534  0.15799  0.93468  1.0000
  H   H3403     1.0  0.45941  0.04104  0.69173  1.0000
  C   C1931     1.0  0.46052  0.14552  0.79792  1.0000
  H   H3404     1.0  0.44826  0.06698  0.70150  1.0000
  C   C1932     1.0  0.48582  0.10951  0.52648  1.0000
  H   H3405     1.0  0.24998  0.18038  0.95343  1.0000
  H   H3406     1.0  0.43180  0.04917  0.71117  1.0000
  H   H3407     1.0  0.45157  0.99694  0.75707  1.0000
  C   C1933     1.0  0.35198  0.00770  0.66712  1.0000
  H   H3408     1.0  0.46752  0.01146  0.51211  1.0000
  H   H3409     1.0  0.36185  0.99478  0.59939  1.0000
  C   C1934     1.0  0.43638  0.98793  0.71992  1.0000
  H   H3410     1.0  0.45027  0.08051  0.80799  1.0000
  H   H3411     1.0  0.43045  0.02927  0.71342  1.0000
  H   H3412     1.0  0.34309  0.99833  0.58201  1.0000
  H   H3413     1.0  0.24571  0.12096  0.68362  1.0000
  C   C1935     1.0  0.28478  0.09539  0.65177  1.0000
  H   H3414     1.0  0.26153  0.09466  0.68120  1.0000
  C   C1936     1.0  0.43985  0.04258  0.50966  1.0000
  H   H3415     1.0  0.27948  0.11258  0.86693  1.0000
  C   C1937     1.0  0.42967  0.04382  0.49991  1.0000
  H   H3416     1.0  0.29272  0.21559  0.82649  1.0000
  Fe  Fe226     1.0  0.37672  0.04004  0.50354  1.0000
  H   H3417     1.0  0.39904  0.07519  0.50134  1.0000
  H   H3418     1.0  0.43506  0.05351  0.68212  1.0000
  H   H3419     1.0  0.48064  0.99001  0.67836  1.0000
  H   H3420     1.0  0.45135  0.04530  0.50460  1.0000
  H   H3421     1.0  0.27934  0.20602  0.81150  1.0000
  H   H3422     1.0  0.30172  0.10292  0.67451  1.0000
  H   H3423     1.0  0.45968  0.02953  0.74904  1.0000
  S   S451      1.0  0.48961  0.03191  0.51032  1.0000
  H   H3424     1.0  0.47196  0.12273  0.76148  1.0000
  C   C1938     1.0  0.27507  0.11782  0.75390  1.0000
  C   C1939     1.0  0.27161  0.22214  0.84355  1.0000
  C   C1940     1.0  0.46090  0.09503  0.78587  1.0000
  C   C1941     1.0  0.29449  0.01586  0.57957  1.0000
  H   H3425     1.0  0.25809  0.13923  0.70009  1.0000
  H   H3426     1.0  0.38914  0.00153  0.73825  1.0000
  H   H3427     1.0  0.25028  0.10000  0.70676  1.0000
  H   H3428     1.0  0.24955  0.06832  0.85972  1.0000
  H   H3429     1.0  0.28357  0.12770  0.68062  1.0000
  H   H3430     1.0  0.48406  0.02482  0.72260  1.0000
  H   H3431     1.0  0.29647  0.08975  0.65472  1.0000
  H   H3432     1.0  0.37424  0.05028  0.54721  1.0000
  H   H3433     1.0  0.27041  0.15553  0.73562  1.0000
  H   H3434     1.0  0.26535  0.09077  0.87914  1.0000
  H   H3435     1.0  0.34589  0.03331  0.66059  1.0000
  C   C1942     1.0  0.27719  0.10594  0.85952  1.0000
  H   H3436     1.0  0.30030  0.03854  0.57609  1.0000
  C   C1943     1.0  0.31224  0.11220  0.68718  1.0000
  C   C1944     1.0  0.29896  0.10528  0.68646  1.0000
  C   C1945     1.0  0.26819  0.11051  0.77084  1.0000
  H   H3437     1.0  0.28144  0.12007  0.70109  1.0000
  S   S452      1.0  0.36829  0.02536  0.49272  1.0000
  H   H3438     1.0  0.44787  0.00619  0.50091  1.0000
  C   C1946     1.0  0.28267  0.11671  0.68981  1.0000
  C   C1947     1.0  0.29275  0.03337  0.57202  1.0000
  C   C1948     1.0  0.40183  0.01032  0.75849  1.0000
  H   H3439     1.0  0.25235  0.07686  0.72776  1.0000
  H   H3440     1.0  0.43947  0.10066  0.80399  1.0000
  C   C1949     1.0  0.47091  0.13154  0.79105  1.0000
  H   H3441     1.0  0.46374  0.08672  0.69815  1.0000
  C   C1950     1.0  0.38539  0.07722  0.53229  1.0000
  H   H3442     1.0  0.28654  0.10102  0.63905  1.0000
  H   H3443     1.0  0.38423  0.99298  0.53881  1.0000
  H   H3444     1.0  0.25820  0.08775  0.73835  1.0000
  H   H3445     1.0  0.29885  0.04886  0.76812  1.0000
  C   C1951     1.0  0.26212  0.00341  0.72697  1.0000
  C   C1952     1.0  0.27594  0.10765  0.66151  1.0000
  C   C1953     1.0  0.43566  0.08536  0.79164  1.0000
  H   H3446     1.0  0.44762  0.05216  0.72730  1.0000
  C   C1954     1.0  0.31941  0.99557  0.60722  1.0000
  C   C1955     1.0  0.25556  0.22226  0.84857  1.0000
  H   H3447     1.0  0.48497  0.03254  0.68718  1.0000
  H   H3448     1.0  0.47461  0.03098  0.48435  1.0000
  H   H3449     1.0  0.33990  0.00715  0.67394  1.0000
  H   H3450     1.0  0.46819  0.09603  0.53003  1.0000
  H   H3451     1.0  0.45418  0.08104  0.71842  1.0000
  H   H3452     1.0  0.43422  0.03324  0.68433  1.0000
  H   H3453     1.0  0.41733  0.04674  0.69274  1.0000
  H   H3454     1.0  0.29473  0.06605  0.74343  1.0000
  C   C1956     1.0  0.26145  0.10296  0.70665  1.0000
  H   H3455     1.0  0.34334  0.00162  0.56154  1.0000
  H   H3456     1.0  0.31151  0.98428  0.75126  1.0000
  H   H3457     1.0  0.41023  0.01750  0.75056  1.0000
  H   H3458     1.0  0.45017  0.99405  0.52986  1.0000
  H   H3459     1.0  0.29050  0.00994  0.72117  1.0000
  H   H3460     1.0  0.42020  0.98637  0.49490  1.0000
  H   H3461     1.0  0.27275  0.14026  0.72618  1.0000
  C   C1957     1.0  0.43040  0.04334  0.69019  1.0000
  H   H3462     1.0  0.40121  0.99950  0.51311  1.0000
  H   H3463     1.0  0.28172  0.08130  0.75301  1.0000
  H   H3464     1.0  0.48150  0.12740  0.79613  1.0000
  H   H3465     1.0  0.47775  0.99587  0.52529  1.0000
  H   H3466     1.0  0.33198  0.98966  0.60660  1.0000
  H   H3467     1.0  0.48242  0.07999  0.80262  1.0000
  C   C1958     1.0  0.27943  0.14780  0.72832  1.0000
  H   H3468     1.0  0.38452  0.09352  0.50119  1.0000
  C   C1959     1.0  0.24809  0.21664  0.84025  1.0000
  C   C1960     1.0  0.45302  0.02274  0.73064  1.0000
  C   C1961     1.0  0.28396  0.13043  0.75326  1.0000
  H   H3469     1.0  0.39830  0.03350  0.52782  1.0000
  H   H3470     1.0  0.46123  0.98840  0.71447  1.0000
  H   H3471     1.0  0.26364  0.17537  0.92732  1.0000
  C   C1962     1.0  0.48194  0.11241  0.76087  1.0000
  H   H3472     1.0  0.45678  0.14191  0.81090  1.0000
  C   C1963     1.0  0.42352  0.99426  0.52055  1.0000
  C   C1964     1.0  0.38685  0.99863  0.69387  1.0000
  H   H3473     1.0  0.26042  0.13175  0.67314  1.0000
  H   H3474     1.0  0.28141  0.08971  0.68199  1.0000
  H   H3475     1.0  0.38180  0.05023  0.57853  1.0000
  H   H3476     1.0  0.46869  0.06009  0.69444  1.0000
  H   H3477     1.0  0.43299  0.99840  0.72516  1.0000
  H   H3478     1.0  0.26489  0.00392  0.73795  1.0000
  C   C1965     1.0  0.36040  0.07851  0.55274  1.0000
  C   C1966     1.0  0.24865  0.05747  0.70336  1.0000
  C   C1967     1.0  0.46342  0.07688  0.70865  1.0000
  C   C1968     1.0  0.26255  0.07988  0.72986  1.0000
  H   H3479     1.0  0.24887  0.22664  0.85891  1.0000
  C   C1969     1.0  0.28522  0.15814  0.71209  1.0000
  N   N106      1.0  0.47119  0.10272  0.79063  1.0000
  H   H3480     1.0  0.26440  0.17723  0.71314  1.0000
  N   N107      1.0  0.28498  0.05451  0.79923  1.0000
  C   C1970     1.0  0.28623  0.06224  0.81148  1.0000
  C   C1971     1.0  0.29765  0.03966  0.79905  1.0000
  C   C1972     1.0  0.28689  0.06589  0.78351  1.0000
  C   C1973     1.0  0.26915  0.05032  0.80287  1.0000
  C   C1974     1.0  0.26414  0.04023  0.81953  1.0000
  C   C1975     1.0  0.27297  0.07676  0.81472  1.0000
  C   C1976     1.0  0.31487  0.04193  0.79326  1.0000
  C   C1977     1.0  0.32654  0.02620  0.79262  1.0000
  C   C1978     1.0  0.47856  0.02478  0.71306  1.0000
  C   C1979     1.0  0.27535  0.08343  0.82744  1.0000
  H   H3481     1.0  0.29748  0.06633  0.80792  1.0000
  H   H3482     1.0  0.28682  0.05360  0.82285  1.0000
  H   H3483     1.0  0.29696  0.03208  0.81108  1.0000
  H   H3484     1.0  0.29579  0.03243  0.79187  1.0000
  H   H3485     1.0  0.29701  0.07137  0.78162  1.0000
  H   H3486     1.0  0.27651  0.07587  0.78331  1.0000
  H   H3487     1.0  0.46795  0.04859  0.72607  1.0000
  H   H3488     1.0  0.26892  0.04366  0.79433  1.0000
  C   C1980     1.0  0.33861  0.98509  0.65890  1.0000
  H   H3489     1.0  0.27272  0.02888  0.82151  1.0000
  H   H3490     1.0  0.27292  0.08624  0.80396  1.0000
  H   H3491     1.0  0.26123  0.07375  0.81878  1.0000
  H   H3492     1.0  0.31687  0.04944  0.78129  1.0000
  H   H3493     1.0  0.31786  0.04741  0.80129  1.0000
  H   H3494     1.0  0.32455  0.02054  0.78413  1.0000
  H   H3495     1.0  0.33874  0.02817  0.78861  1.0000
  H   H3496     1.0  0.32549  0.01818  0.80441  1.0000
  H   H3497     1.0  0.25755  0.22972  0.93487  1.0000
  H   H3498     1.0  0.27803  0.05548  0.76929  1.0000
  H   H3499     1.0  0.31008  0.17710  0.73312  1.0000
  H   H3500     1.0  0.31032  0.11476  0.69888  1.0000
  C   C1981     1.0  0.39624  0.99418  0.53832  1.0000
  C   C1982     1.0  0.27273  0.21032  0.82195  1.0000
  H   H3501     1.0  0.29500  0.11964  0.72473  1.0000
  C   C1983     1.0  0.29343  0.16217  0.74608  1.0000
  H   H3502     1.0  0.42536  0.08236  0.80092  1.0000
  H   H3503     1.0  0.47503  0.07351  0.71197  1.0000
  H   H3504     1.0  0.25019  0.12015  0.87619  1.0000
  H   H3505     1.0  0.33320  0.11431  0.54707  1.0000
  H   H3506     1.0  0.39552  0.00620  0.53959  1.0000
  S   S453      1.0  0.48769  0.03244  0.54691  1.0000
  H   H3507     1.0  0.30252  0.07602  0.75316  1.0000
  H   H3508     1.0  0.29245  0.12519  0.76113  1.0000
  C   C1984     1.0  0.45921  0.04888  0.71938  1.0000
  C   C1985     1.0  0.44995  0.00877  0.75937  1.0000
  H   H3509     1.0  0.48116  0.10791  0.81658  1.0000
  H   H3510     1.0  0.31303  0.12315  0.67800  1.0000
  H   H3511     1.0  0.35528  0.07546  0.56557  1.0000
  N   N108      1.0  0.29200  0.13790  0.73711  1.0000
  C   C1986     1.0  0.40981  0.03609  0.52273  1.0000
  H   H3512     1.0  0.29226  0.15066  0.70364  1.0000
  H   H3513     1.0  0.28767  0.15834  0.75857  1.0000
  H   H3514     1.0  0.44041  0.02859  0.73405  1.0000
  C   C1987     1.0  0.26879  0.99421  0.62774  1.0000
  H   H3515     1.0  0.30969  0.99782  0.72109  1.0000
  H   H3516     1.0  0.45399  0.00731  0.77030  1.0000
  H   H3517     1.0  0.31849  0.00811  0.60130  1.0000
  H   H3518     1.0  0.44206  0.07477  0.78680  1.0000
  S   S454      1.0  0.35555  0.99099  0.52713  1.0000
  H   H3519     1.0  0.25049  0.20536  0.93560  1.0000
  H   H3520     1.0  0.38962  0.01699  0.75801  1.0000
  C   C1988     1.0  0.45858  0.98999  0.51957  1.0000
  H   H3521     1.0  0.39313  0.00817  0.68714  1.0000
  C   C1989     1.0  0.48545  0.10406  0.77737  1.0000
  H   H3522     1.0  0.31770  0.00071  0.62979  1.0000
  H   H3523     1.0  0.48600  0.10572  0.53921  1.0000
  C   C1990     1.0  0.26852  0.98688  0.72318  1.0000
  H   H3524     1.0  0.25169  0.07958  0.66356  1.0000
  H   H3525     1.0  0.25303  0.11849  0.80584  1.0000
  H   H3526     1.0  0.29774  0.02100  0.69301  1.0000
  H   H3527     1.0  0.30618  0.98452  0.56491  1.0000
  H   H3528     1.0  0.46796  0.08417  0.78182  1.0000
  H   H3529     1.0  0.47980  0.01218  0.71309  1.0000
  C   C1991     1.0  0.48579  0.98560  0.76635  1.0000
  H   H3530     1.0  0.46917  0.11137  0.51226  1.0000
  H   H3531     1.0  0.47869  0.10414  0.75588  1.0000
  H   H3532     1.0  0.40336  0.00820  0.77070  1.0000
  C   C1992     1.0  0.40497  0.99468  0.75370  1.0000
  H   H3533     1.0  0.24200  0.06552  0.71140  1.0000
  C   C1993     1.0  0.35492  0.98950  0.63215  1.0000
  H   H3534     1.0  0.43131  0.09487  0.78210  1.0000
  H   H3535     1.0  0.24900  0.03273  0.65554  1.0000
  H   H3536     1.0  0.40077  0.98547  0.54824  1.0000
  H   H3537     1.0  0.24260  0.08137  0.88189  1.0000
  H   H3538     1.0  0.29857  0.98995  0.60455  1.0000
  C   C1994     1.0  0.43059  0.99137  0.49339  1.0000
  C   C1995     1.0  0.48751  0.09725  0.81193  1.0000
  H   H3539     1.0  0.25190  0.22895  0.78438  1.0000
  H   H3540     1.0  0.48257  0.08249  0.83548  1.0000
  C   C1996     1.0  0.40209  0.99726  0.73703  1.0000
  C   C1997     1.0  0.34677  0.99199  0.72253  1.0000
  N   N109      1.0  0.31528  0.98952  0.58232  1.0000
  C   C1998     1.0  0.31163  0.99506  0.62455  1.0000
  C   C1999     1.0  0.35335  0.98796  0.74777  1.0000
  H   H3541     1.0  0.38106  0.99318  0.50001  1.0000
  H   H3542     1.0  0.41723  0.98863  0.75452  1.0000
  C   C2000     1.0  0.24268  0.09436  0.90623  1.0000
  H   H3543     1.0  0.24476  0.04098  0.69256  1.0000
  C   C2001     1.0  0.24813  0.03646  0.82169  1.0000
  H   H3544     1.0  0.24852  0.02971  0.81301  1.0000
  H   H3545     1.0  0.39189  0.98817  0.68854  1.0000
  C   C2002     1.0  0.47207  0.99856  0.51515  1.0000
  C   C2003     1.0  0.36885  0.99589  0.62011  1.0000
  C   C2004     1.0  0.49039  0.98445  0.68466  1.0000
  S   S455      1.0  0.49077  0.04493  0.74605  1.0000
  C   C2005     1.0  0.24213  0.11480  0.81174  1.0000
  H   H3546     1.0  0.24213  0.15821  0.84969  1.0000
  Fe  Fe227     1.0  0.42469  0.43991  0.06125  1.0000
  S   S456      1.0  0.44937  0.42837  0.05152  1.0000
  S   S457      1.0  0.41709  0.46449  0.06584  1.0000
  Fe  Fe228     1.0  0.41127  0.41176  0.06210  1.0000
  S   S458      1.0  0.43504  0.39790  0.05232  1.0000
  S   S459      1.0  0.38702  0.40628  0.06816  1.0000
  Fe  Fe229     1.0  0.44378  0.40651  0.06872  1.0000
  S   S460      1.0  0.46042  0.39115  0.08414  1.0000
  Fe  Fe230     1.0  0.43860  0.42097  0.03609  1.0000
  S   S461      1.0  0.44831  0.42604  0.01017  1.0000
  S   S462      1.0  0.41971  0.41862  0.07988  1.0000
  S   S463      1.0  0.41428  0.43412  0.04441  1.0000
  H   H3547     1.0  0.28999  0.27040  0.03714  1.0000
  H   H3548     1.0  0.35687  0.26395  0.09899  1.0000
  C   C2006     1.0  0.34421  0.28407  0.05552  1.0000
  C   C2007     1.0  0.47171  0.45512  0.08574  1.0000
  H   H3549     1.0  0.43760  0.34391  0.02675  1.0000
  N   N110      1.0  0.47641  0.43778  0.08588  1.0000
  H   H3550     1.0  0.32272  0.31324  0.10509  1.0000
  Fe  Fe231     1.0  0.34568  0.35065  0.04952  1.0000
  S   S464      1.0  0.33835  0.32795  0.05315  1.0000
  S   S465      1.0  0.37013  0.34962  0.05225  1.0000
  Fe  Fe232     1.0  0.31614  0.36993  0.03817  1.0000
  S   S466      1.0  0.30634  0.34908  0.04057  1.0000
  S   S467      1.0  0.30364  0.39487  0.03019  1.0000
  Fe  Fe233     1.0  0.31414  0.34035  0.06336  1.0000
  S   S468      1.0  0.29741  0.32840  0.08348  1.0000
  Fe  Fe234     1.0  0.33108  0.33812  0.03020  1.0000
  H   H3551     1.0  0.30765  0.34194  0.01199  1.0000
  S   S469      1.0  0.32209  0.36222  0.06206  1.0000
  S   S470      1.0  0.34027  0.35988  0.02549  1.0000
  N   N111      1.0  0.28338  0.29147  0.01985  1.0000
  S   S471      1.0  0.28931  0.26666  0.06978  1.0000
  C   C2008     1.0  0.29384  0.31211  0.07912  1.0000
  C   C2009     1.0  0.30164  0.30759  0.06491  1.0000
  C   C2010     1.0  0.30013  0.29363  0.06221  1.0000
  C   C2011     1.0  0.29048  0.28431  0.07349  1.0000
  C   C2012     1.0  0.28214  0.28913  0.08745  1.0000
  C   C2013     1.0  0.28387  0.30300  0.09027  1.0000
  H   H3552     1.0  0.30930  0.31455  0.05619  1.0000
  H   H3553     1.0  0.30662  0.28997  0.05140  1.0000
  H   H3554     1.0  0.27457  0.28205  0.09618  1.0000
  H   H3555     1.0  0.27767  0.30654  0.10121  1.0000
  H   H3556     1.0  0.27572  0.41916  0.02932  1.0000
  H   H3557     1.0  0.29146  0.34845  0.99216  1.0000
  C   C2014     1.0  0.24830  0.30571  0.07433  1.0000
  H   H3558     1.0  0.24378  0.34988  0.08725  1.0000
  C   C2015     1.0  0.48061  0.38835  0.07549  1.0000
  H   H3559     1.0  0.45145  0.48143  0.09617  1.0000
  H   H3560     1.0  0.47111  0.37959  0.04736  1.0000
  C   C2016     1.0  0.31833  0.28242  0.11190  1.0000
  H   H3561     1.0  0.45516  0.34600  0.03093  1.0000
  H   H3562     1.0  0.36849  0.48149  0.05158  1.0000
  H   H3563     1.0  0.34317  0.29186  0.11409  1.0000
  H   H3564     1.0  0.30304  0.30239  0.00630  1.0000
  C   C2017     1.0  0.33254  0.28206  0.08474  1.0000
  C   C2018     1.0  0.48388  0.35561  0.98026  1.0000
  C   C2019     1.0  0.38275  0.39016  0.06400  1.0000
  C   C2020     1.0  0.36698  0.38900  0.06722  1.0000
  C   C2021     1.0  0.36296  0.37661  0.06372  1.0000
  C   C2022     1.0  0.37474  0.36515  0.05717  1.0000
  C   C2023     1.0  0.39056  0.36608  0.05432  1.0000
  C   C2024     1.0  0.39456  0.37866  0.05751  1.0000
  H   H3565     1.0  0.35780  0.39780  0.07236  1.0000
  H   H3566     1.0  0.35077  0.37589  0.06620  1.0000
  H   H3567     1.0  0.39976  0.35713  0.04945  1.0000
  H   H3568     1.0  0.40674  0.37938  0.05509  1.0000
  C   C2025     1.0  0.46458  0.42906  0.09760  1.0000
  C   C2026     1.0  0.42064  0.40290  0.00134  1.0000
  C   C2027     1.0  0.42963  0.40761  0.00881  1.0000
  C   C2028     1.0  0.43699  0.42016  0.00099  1.0000
  H   H3569     1.0  0.34000  0.27359  0.05576  1.0000
  C   C2029     1.0  0.45767  0.46812  0.01127  1.0000
  H   H3570     1.0  0.41516  0.39305  0.00738  1.0000
  H   H3571     1.0  0.43093  0.40146  0.02057  1.0000
  H   H3572     1.0  0.30703  0.28773  0.02297  1.0000
  H   H3573     1.0  0.44298  0.44798  0.09786  1.0000
  H   H3574     1.0  0.27697  0.28628  0.00079  1.0000
  C   C2030     1.0  0.34463  0.26454  0.10610  1.0000
  H   H3575     1.0  0.35515  0.28462  0.04625  1.0000
  C   C2031     1.0  0.33268  0.32069  0.98602  1.0000
  H   H3576     1.0  0.25700  0.38035  0.04433  1.0000
  H   H3577     1.0  0.33523  0.29481  0.05230  1.0000
  H   H3578     1.0  0.40810  0.46555  0.02985  1.0000
  H   H3579     1.0  0.45007  0.46080  0.05009  1.0000
  N   N112      1.0  0.41317  0.48354  0.00906  1.0000
  H   H3580     1.0  0.36807  0.24237  0.11976  1.0000
  H   H3581     1.0  0.25247  0.25591  0.05475  1.0000
  H   H3582     1.0  0.27012  0.32163  0.00000  1.0000
  H   H3583     1.0  0.31606  0.25756  0.11860  1.0000
  C   C2032     1.0  0.38475  0.42760  0.02477  1.0000
  N   N113      1.0  0.47293  0.37010  0.98532  1.0000
  H   H3584     1.0  0.46590  0.36606  0.03942  1.0000
  H   H3585     1.0  0.25431  0.37960  0.08682  1.0000
  H   H3586     1.0  0.29626  0.31410  0.02849  1.0000
  C   C2033     1.0  0.26046  0.40123  0.01037  1.0000
  H   H3587     1.0  0.48941  0.42770  0.04053  1.0000
  H   H3588     1.0  0.35493  0.31958  0.08547  1.0000
  H   H3589     1.0  0.35176  0.29385  0.07039  1.0000
  C   C2034     1.0  0.49064  0.44134  0.05640  1.0000
  H   H3590     1.0  0.26398  0.30637  0.03271  1.0000
  H   H3591     1.0  0.43661  0.47583  0.02748  1.0000
  H   H3592     1.0  0.27217  0.37945  0.00301  1.0000
  C   C2035     1.0  0.45312  0.35507  0.00643  1.0000
  C   C2036     1.0  0.48585  0.39524  0.05974  1.0000
  C   C2037     1.0  0.31213  0.33704  0.00167  1.0000
  H   H3593     1.0  0.27553  0.32371  0.04971  1.0000
  H   H3594     1.0  0.44562  0.43554  0.08455  1.0000
  H   H3595     1.0  0.32328  0.29248  0.08159  1.0000
  H   H3596     1.0  0.45963  0.45396  0.11074  1.0000
  C   C2038     1.0  0.30924  0.26942  0.11427  1.0000
  H   H3597     1.0  0.26198  0.33229  0.03660  1.0000
  H   H3598     1.0  0.36958  0.33717  0.01323  1.0000
  C   C2039     1.0  0.34228  0.29289  0.10184  1.0000
  H   H3599     1.0  0.38690  0.48022  0.05633  1.0000
  C   C2040     1.0  0.46866  0.45964  0.10178  1.0000
  Fe  Fe235     1.0  0.24510  0.25352  0.11565  1.0000
  H   H3600     1.0  0.25330  0.36200  0.05553  1.0000
  H   H3601     1.0  0.45747  0.45546  0.01588  1.0000
  H   H3602     1.0  0.43548  0.47633  0.99352  1.0000
  N   N114      1.0  0.24332  0.38099  0.06794  1.0000
  C   C2041     1.0  0.40524  0.47987  0.99828  1.0000
  H   H3603     1.0  0.25229  0.42282  0.01855  1.0000
  H   H3604     1.0  0.47965  0.45620  0.10622  1.0000
  C   C2042     1.0  0.35569  0.41155  0.99498  1.0000
  S   S472      1.0  0.24388  0.40360  0.00271  1.0000
  C   C2043     1.0  0.24420  0.46757  0.99932  1.0000
  H   H3605     1.0  0.37324  0.32133  0.00332  1.0000
  C   C2044     1.0  0.28706  0.39703  0.02264  1.0000
  C   C2045     1.0  0.30919  0.27879  0.00250  1.0000
  H   H3606     1.0  0.34723  0.32041  0.10602  1.0000
  S   S473      1.0  0.27114  0.24628  0.11352  1.0000
  C   C2046     1.0  0.32691  0.32688  0.99955  1.0000
  C   C2047     1.0  0.34598  0.25967  0.12358  1.0000
  H   H3607     1.0  0.39070  0.36595  0.02394  1.0000
  S   S474      1.0  0.33842  0.32187  0.01357  1.0000
  C   C2048     1.0  0.48567  0.40869  0.98332  1.0000
  H   H3608     1.0  0.33261  0.27967  0.00398  1.0000
  H   H3609     1.0  0.45662  0.37751  0.00568  1.0000
  N   N115      1.0  0.33444  0.28048  0.10117  1.0000
  C   C2049     1.0  0.26491  0.27376  0.03942  1.0000
  H   H3610     1.0  0.48761  0.37387  0.09673  1.0000
  H   H3611     1.0  0.49059  0.45378  0.05554  1.0000
  H   H3612     1.0  0.35706  0.38434  0.01638  1.0000
  H   H3613     1.0  0.43918  0.36292  0.02783  1.0000
  H   H3614     1.0  0.27821  0.38823  0.08461  1.0000
  C   C2050     1.0  0.26153  0.41240  0.01779  1.0000
  H   H3615     1.0  0.35466  0.29110  0.09501  1.0000
  H   H3616     1.0  0.33430  0.25975  0.13169  1.0000
  H   H3617     1.0  0.35165  0.26769  0.12630  1.0000
  H   H3618     1.0  0.45052  0.38482  0.98076  1.0000
  H   H3619     1.0  0.31383  0.41378  0.04471  1.0000
  C   C2051     1.0  0.38769  0.36810  0.01238  1.0000
  H   H3620     1.0  0.25330  0.24614  0.15637  1.0000
  H   H3621     1.0  0.46101  0.46066  0.08084  1.0000
  N   N116      1.0  0.35774  0.40877  0.01162  1.0000
  H   H3622     1.0  0.32545  0.42404  0.05002  1.0000
  C   C2052     1.0  0.33918  0.40416  0.03958  1.0000
  C   C2053     1.0  0.32426  0.41232  0.04956  1.0000
  C   C2054     1.0  0.46277  0.47742  0.10012  1.0000
  H   H3623     1.0  0.35688  0.23987  0.13976  1.0000
  C   C2055     1.0  0.44106  0.47823  0.01460  1.0000
  H   H3624     1.0  0.38390  0.35249  0.98824  1.0000
  C   C2056     1.0  0.24774  0.37476  0.05316  1.0000
  H   H3625     1.0  0.32233  0.40511  0.06174  1.0000
  H   H3626     1.0  0.35125  0.43749  0.98833  1.0000
  C   C2057     1.0  0.46423  0.36654  0.00223  1.0000
  C   C2058     1.0  0.47708  0.43575  0.06973  1.0000
  C   C2059     1.0  0.27487  0.41038  0.02376  1.0000
  C   C2060     1.0  0.37754  0.33157  0.00362  1.0000
  H   H3627     1.0  0.28411  0.32374  0.01456  1.0000
  H   H3628     1.0  0.34056  0.25520  0.10348  1.0000
  H   H3629     1.0  0.29362  0.38743  0.06723  1.0000
  H   H3630     1.0  0.47258  0.36205  0.01019  1.0000
  H   H3631     1.0  0.36651  0.38847  0.02889  1.0000
  H   H3632     1.0  0.47915  0.42032  0.98589  1.0000
  C   C2061     1.0  0.47363  0.37446  0.03691  1.0000
  C   C2062     1.0  0.43638  0.42595  0.10869  1.0000
  C   C2063     1.0  0.28364  0.38211  0.07473  1.0000
  H   H3633     1.0  0.37901  0.41785  0.00204  1.0000
  H   H3634     1.0  0.48093  0.46127  0.07772  1.0000
  H   H3635     1.0  0.28463  0.26688  0.02121  1.0000
  H   H3636     1.0  0.48750  0.30743  0.03257  1.0000
  H   H3637     1.0  0.34413  0.31284  0.98437  1.0000
  C   C2064     1.0  0.34752  0.28317  0.07144  1.0000
  H   H3638     1.0  0.47797  0.44765  0.03750  1.0000
  H   H3639     1.0  0.26132  0.29738  0.01238  1.0000
  H   H3640     1.0  0.44320  0.36037  0.00033  1.0000
  C   C2065     1.0  0.28597  0.38579  0.01531  1.0000
  H   H3641     1.0  0.26173  0.28019  0.04903  1.0000
  H   H3642     1.0  0.30310  0.28059  0.99287  1.0000
  C   C2066     1.0  0.35599  0.24306  0.12723  1.0000
  C   C2067     1.0  0.28156  0.27518  0.02917  1.0000
  H   H3643     1.0  0.30971  0.26657  0.00949  1.0000
  H   H3644     1.0  0.33074  0.31212  0.08493  1.0000
  H   H3645     1.0  0.29544  0.37558  0.01417  1.0000
  H   H3646     1.0  0.38945  0.32724  0.00626  1.0000
  H   H3647     1.0  0.46740  0.41662  0.09642  1.0000
  C   C2068     1.0  0.34588  0.42787  0.98838  1.0000
  H   H3648     1.0  0.31061  0.29372  0.10726  1.0000
  H   H3649     1.0  0.47071  0.38411  0.02684  1.0000
  H   H3650     1.0  0.27926  0.29639  0.04293  1.0000
  C   C2069     1.0  0.27454  0.32896  0.03733  1.0000
  S   S475      1.0  0.24669  0.26189  0.08976  1.0000
  H   H3651     1.0  0.43720  0.42598  0.12068  1.0000
  H   H3652     1.0  0.35007  0.40245  0.99401  1.0000
  H   H3653     1.0  0.41747  0.45553  0.99685  1.0000
  H   H3654     1.0  0.31866  0.38790  0.98491  1.0000
  C   C2070     1.0  0.25758  0.37666  0.07503  1.0000
  C   C2071     1.0  0.41878  0.41091  0.98616  1.0000
  C   C2072     1.0  0.44653  0.47144  0.05446  1.0000
  H   H3655     1.0  0.31899  0.28348  0.12364  1.0000
  C   C2073     1.0  0.39557  0.46018  0.99006  1.0000
  C   C2074     1.0  0.30075  0.29074  0.01317  1.0000
  C   C2075     1.0  0.27281  0.38802  0.00896  1.0000
  C   C2076     1.0  0.43006  0.47442  0.00637  1.0000
  H   H3656     1.0  0.34905  0.40344  0.04478  1.0000
  C   C2077     1.0  0.27700  0.30257  0.03103  1.0000
  H   H3657     1.0  0.37884  0.36126  0.01354  1.0000
  H   H3658     1.0  0.38298  0.46576  0.99379  1.0000
  H   H3659     1.0  0.28611  0.28360  0.12241  1.0000
  H   H3660     1.0  0.33814  0.39195  0.04063  1.0000
  C   C2078     1.0  0.29370  0.27201  0.12629  1.0000
  H   H3661     1.0  0.36733  0.41039  0.98662  1.0000
  H   H3662     1.0  0.36219  0.43181  0.00848  1.0000
  H   H3663     1.0  0.35712  0.27274  0.07365  1.0000
  C   C2079     1.0  0.34160  0.41286  0.02204  1.0000
  H   H3664     1.0  0.39002  0.39189  0.00728  1.0000
  C   C2080     1.0  0.34403  0.32163  0.09470  1.0000
  H   H3665     1.0  0.33363  0.42984  0.99540  1.0000
  C   C2081     1.0  0.48913  0.44004  0.04044  1.0000
  C   C2082     1.0  0.37331  0.41716  0.02700  1.0000
  H   H3666     1.0  0.35591  0.35922  0.99212  1.0000
  H   H3667     1.0  0.38825  0.42584  0.03604  1.0000
  H   H3668     1.0  0.39856  0.36391  0.00397  1.0000
  H   H3669     1.0  0.46953  0.47688  0.04631  1.0000
  H   H3670     1.0  0.32818  0.27195  0.08412  1.0000
  C   C2083     1.0  0.38146  0.38562  0.00657  1.0000
  C   C2084     1.0  0.28395  0.31743  0.02684  1.0000
  H   H3671     1.0  0.28818  0.36946  0.07949  1.0000
  H   H3672     1.0  0.26813  0.39674  0.05999  1.0000
  C   C2085     1.0  0.27412  0.29595  0.00713  1.0000
  H   H3673     1.0  0.25577  0.27846  0.03233  1.0000
  C   C2086     1.0  0.44716  0.43573  0.09621  1.0000
  H   H3674     1.0  0.25693  0.46211  0.99825  1.0000
  C   C2087     1.0  0.36508  0.39157  0.01657  1.0000
  C   C2088     1.0  0.43097  0.47609  0.06228  1.0000
  C   C2089     1.0  0.33377  0.31016  0.09639  1.0000
  H   H3675     1.0  0.37929  0.40486  0.03120  1.0000
  H   H3676     1.0  0.38108  0.38734  0.99411  1.0000
  C   C2090     1.0  0.45747  0.48066  0.05218  1.0000
  H   H3677     1.0  0.30650  0.26949  0.10305  1.0000
  C   C2091     1.0  0.32612  0.28041  0.99493  1.0000
  H   H3678     1.0  0.26223  0.36371  0.07731  1.0000
  H   H3679     1.0  0.27776  0.37806  0.05501  1.0000
  C   C2092     1.0  0.36817  0.41926  0.01150  1.0000
  C   C2093     1.0  0.27170  0.38402  0.06493  1.0000
  H   H3680     1.0  0.47746  0.40227  0.05270  1.0000
  H   H3681     1.0  0.33746  0.33387  0.09112  1.0000
  H   H3682     1.0  0.33252  0.41007  0.01768  1.0000
  C   C2094     1.0  0.44588  0.35181  0.02407  1.0000
  Fe  Fe236     1.0  0.27258  0.25263  0.08758  1.0000
  H   H3683     1.0  0.36303  0.42083  0.03619  1.0000
  H   H3684     1.0  0.43956  0.41364  0.10715  1.0000
  H   H3685     1.0  0.39656  0.44746  0.99116  1.0000
  H   H3686     1.0  0.33809  0.42574  0.02149  1.0000
  H   H3687     1.0  0.39553  0.42453  0.01578  1.0000
  H   H3688     1.0  0.42399  0.43101  0.10752  1.0000
  H   H3689     1.0  0.46595  0.44227  0.06602  1.0000
  H   H3690     1.0  0.29586  0.27140  0.13795  1.0000
  H   H3691     1.0  0.47769  0.42329  0.06993  1.0000
  H   H3692     1.0  0.28730  0.26274  0.12761  1.0000
  C   C2095     1.0  0.38143  0.47715  0.04833  1.0000
  C   C2096     1.0  0.43530  0.42803  0.98575  1.0000
  H   H3693     1.0  0.27929  0.33980  0.03339  1.0000
  H   H3694     1.0  0.46532  0.42831  0.10985  1.0000
  C   C2097     1.0  0.40563  0.47853  0.02619  1.0000
  H   H3695     1.0  0.25502  0.31515  0.07047  1.0000
  C   C2098     1.0  0.26783  0.31298  0.98135  1.0000
  H   H3696     1.0  0.45941  0.34364  0.00329  1.0000
  C   C2099     1.0  0.30298  0.34073  0.99043  1.0000
  Fe  Fe237     1.0  0.24575  0.23730  0.09042  1.0000
  H   H3697     1.0  0.24643  0.40642  0.07995  1.0000
  H   H3698     1.0  0.33055  0.35953  0.98717  1.0000
  C   C2100     1.0  0.49094  0.36618  0.03301  1.0000
  H   H3699     1.0  0.24551  0.30269  0.08740  1.0000
  C   C2101     1.0  0.48297  0.38150  0.98377  1.0000
  H   H3700     1.0  0.46754  0.39752  0.99878  1.0000
  H   H3701     1.0  0.33229  0.27086  0.98851  1.0000
  H   H3702     1.0  0.28839  0.31159  0.98924  1.0000
  H   H3703     1.0  0.37911  0.44017  0.02123  1.0000
  H   H3704     1.0  0.26644  0.24972  0.03799  1.0000
  H   H3705     1.0  0.46529  0.47121  0.01716  1.0000
  H   H3706     1.0  0.25519  0.31266  0.98599  1.0000
  C   C2102     1.0  0.40533  0.46227  0.00038  1.0000
  H   H3707     1.0  0.38394  0.46415  0.05008  1.0000
  H   H3708     1.0  0.38109  0.48207  0.02399  1.0000
  C   C2103     1.0  0.37829  0.34326  0.98777  1.0000
  H   H3709     1.0  0.46278  0.47017  0.99842  1.0000
  H   H3710     1.0  0.40043  0.45702  0.01276  1.0000
  H   H3711     1.0  0.43065  0.46155  0.01056  1.0000
  H   H3712     1.0  0.48530  0.33358  0.03699  1.0000
  H   H3713     1.0  0.24532  0.40402  0.05308  1.0000
  H   H3714     1.0  0.32625  0.29180  0.98635  1.0000
  C   C2104     1.0  0.27590  0.31129  0.99467  1.0000
  H   H3715     1.0  0.25581  0.29521  0.06992  1.0000
  C   C2105     1.0  0.47409  0.39814  0.98643  1.0000
  H   H3716     1.0  0.27321  0.25127  0.05438  1.0000
  H   H3717     1.0  0.48618  0.34811  0.05428  1.0000
  H   H3718     1.0  0.49068  0.37685  0.99242  1.0000
  C   C2106     1.0  0.36160  0.35076  0.98429  1.0000
  C   C2107     1.0  0.26427  0.25661  0.04707  1.0000
  H   H3719     1.0  0.35453  0.34157  0.98865  1.0000
  H   H3720     1.0  0.41104  0.48229  0.03378  1.0000
  H   H3721     1.0  0.30548  0.37757  0.98238  1.0000
  H   H3722     1.0  0.47743  0.34640  0.98162  1.0000
  H   H3723     1.0  0.24974  0.36928  0.02421  1.0000
  H   H3724     1.0  0.46083  0.48051  0.11164  1.0000
  H   H3725     1.0  0.44071  0.43796  0.97987  1.0000
  H   H3726     1.0  0.47152  0.48378  0.09146  1.0000
  H   H3727     1.0  0.35055  0.23441  0.12520  1.0000
  Fe  Fe238     1.0  0.42404  0.43813  0.92278  1.0000
  S   S476      1.0  0.43784  0.41879  0.93834  1.0000
  H   H3728     1.0  0.26267  0.33842  0.86578  1.0000
  Fe  Fe239     1.0  0.40352  0.41702  0.92112  1.0000
  S   S477      1.0  0.41592  0.39598  0.93628  1.0000
  S   S478      1.0  0.38172  0.41739  0.91324  1.0000
  Fe  Fe240     1.0  0.41448  0.41283  0.95084  1.0000
  C   C2108     1.0  0.46140  0.37767  0.97461  1.0000
  Fe  Fe241     1.0  0.43832  0.40356  0.92241  1.0000
  S   S479      1.0  0.45980  0.38540  0.91416  1.0000
  S   S480      1.0  0.40050  0.43352  0.93681  1.0000
  S   S481      1.0  0.42601  0.42335  0.90572  1.0000
  Fe  Fe242     1.0  0.30770  0.36767  0.90897  1.0000
  S   S482      1.0  0.29818  0.34591  0.91958  1.0000
  S   S483      1.0  0.29185  0.38938  0.89837  1.0000
  Fe  Fe243     1.0  0.33995  0.35181  0.91581  1.0000
  S   S484      1.0  0.33310  0.32846  0.92709  1.0000
  S   S485      1.0  0.36490  0.35387  0.91354  1.0000
  Fe  Fe244     1.0  0.32102  0.33342  0.90703  1.0000
  S   S486      1.0  0.32173  0.31725  0.89162  1.0000
  Fe  Fe245     1.0  0.31075  0.34307  0.93854  1.0000
  C   C2109     1.0  0.37239  0.33180  0.95888  1.0000
  S   S487      1.0  0.32977  0.35558  0.89475  1.0000
  S   S488      1.0  0.31852  0.36594  0.92897  1.0000
  Fe  Fe246     1.0  0.26333  0.26726  0.89164  1.0000
  S   S489      1.0  0.27176  0.27071  0.86541  1.0000
  S   S490      1.0  0.27154  0.27450  0.90960  1.0000
  H   H3729     1.0  0.42435  0.42997  0.96685  1.0000
  H   H3730     1.0  0.25496  0.31907  0.95090  1.0000
  H   H3731     1.0  0.46620  0.46899  0.91744  1.0000
  N   N117      1.0  0.25917  0.34262  0.89641  1.0000
  C   C2110     1.0  0.30878  0.33457  0.97690  1.0000
  H   H3732     1.0  0.33760  0.44078  0.96711  1.0000
  C   C2111     1.0  0.47797  0.38995  0.93166  1.0000
  H   H3733     1.0  0.27185  0.25910  0.83082  1.0000
  C   C2112     1.0  0.47211  0.43702  0.92335  1.0000
  H   H3734     1.0  0.37339  0.37125  0.94606  1.0000
  C   C2113     1.0  0.26584  0.43129  0.96551  1.0000
  H   H3735     1.0  0.38173  0.38135  0.81863  1.0000
  C   C2114     1.0  0.36978  0.32121  0.94974  1.0000
  C   C2115     1.0  0.25306  0.27547  0.82019  1.0000
  H   H3736     1.0  0.26000  0.30391  0.87845  1.0000
  H   H3737     1.0  0.25888  0.25408  0.78222  1.0000
  C   C2116     1.0  0.37759  0.37821  0.96564  1.0000
  H   H3738     1.0  0.46569  0.47178  0.89709  1.0000
  H   H3739     1.0  0.48921  0.35863  0.96743  1.0000
  C   C2117     1.0  0.28640  0.34797  0.87996  1.0000
  C   C2118     1.0  0.34498  0.42920  0.97145  1.0000
  H   H3740     1.0  0.26026  0.42834  0.97821  1.0000
  H   H3741     1.0  0.48159  0.44420  0.88320  1.0000
  H   H3742     1.0  0.26416  0.35859  0.87367  1.0000
  C   C2119     1.0  0.30753  0.30564  0.89670  1.0000
  C   C2120     1.0  0.30571  0.29883  0.88532  1.0000
  C   C2121     1.0  0.29462  0.28939  0.88905  1.0000
  C   C2122     1.0  0.28534  0.28658  0.90425  1.0000
  C   C2123     1.0  0.28718  0.29337  0.91565  1.0000
  C   C2124     1.0  0.29818  0.30291  0.91188  1.0000
  H   H3743     1.0  0.31297  0.30081  0.87357  1.0000
  H   H3744     1.0  0.29343  0.28410  0.88023  1.0000
  H   H3745     1.0  0.28014  0.29115  0.92747  1.0000
  H   H3746     1.0  0.29962  0.30794  0.92077  1.0000
  C   C2125     1.0  0.26216  0.32758  0.89095  1.0000
  H   H3747     1.0  0.26090  0.26594  0.79947  1.0000
  H   H3748     1.0  0.25155  0.36870  0.94119  1.0000
  H   H3749     1.0  0.38083  0.47486  0.91574  1.0000
  C   C2126     1.0  0.25163  0.26453  0.81041  1.0000
  H   H3750     1.0  0.46982  0.43658  0.96256  1.0000
  C   C2127     1.0  0.37460  0.36584  0.95841  1.0000
  H   H3751     1.0  0.48063  0.41464  0.89601  1.0000
  H   H3752     1.0  0.39013  0.37512  0.96657  1.0000
  H   H3753     1.0  0.26635  0.36478  0.88962  1.0000
  C   C2128     1.0  0.27247  0.38758  0.90742  1.0000
  C   C2129     1.0  0.26915  0.37856  0.92269  1.0000
  C   C2130     1.0  0.25399  0.37585  0.92945  1.0000
  C   C2131     1.0  0.25353  0.43573  0.95549  1.0000
  H   H3754     1.0  0.37868  0.30998  0.95087  1.0000
  C   C2132     1.0  0.26044  0.39441  0.89914  1.0000
  H   H3755     1.0  0.27828  0.37365  0.92934  1.0000
  H   H3756     1.0  0.35879  0.35293  0.94643  1.0000
  H   H3757     1.0  0.26297  0.40141  0.88733  1.0000
  C   C2133     1.0  0.37701  0.39945  0.91428  1.0000
  C   C2134     1.0  0.38866  0.38567  0.91369  1.0000
  C   C2135     1.0  0.38473  0.37173  0.91365  1.0000
  C   C2136     1.0  0.36911  0.37139  0.91451  1.0000
  C   C2137     1.0  0.35738  0.38504  0.91559  1.0000
  C   C2138     1.0  0.36137  0.39907  0.91527  1.0000
  H   H3758     1.0  0.40076  0.38585  0.91285  1.0000
  H   H3759     1.0  0.39385  0.36119  0.91282  1.0000
  H   H3760     1.0  0.34531  0.38490  0.91629  1.0000
  H   H3761     1.0  0.35231  0.40970  0.91574  1.0000
  H   H3762     1.0  0.48772  0.42648  0.93986  1.0000
  H   H3763     1.0  0.46567  0.40391  0.97863  1.0000
  S   S491      1.0  0.29695  0.33868  0.96337  1.0000
  C   C2139     1.0  0.42611  0.42348  0.97838  1.0000
  C   C2140     1.0  0.31681  0.38139  0.97707  1.0000
  H   H3764     1.0  0.26096  0.33761  0.94347  1.0000
  C   C2141     1.0  0.37455  0.39485  0.95562  1.0000
  H   H3765     1.0  0.38421  0.33440  0.95346  1.0000
  C   C2142     1.0  0.26947  0.27124  0.82364  1.0000
  H   H3766     1.0  0.42541  0.45475  0.94756  1.0000
  H   H3767     1.0  0.46051  0.44540  0.92340  1.0000
  N   N118      1.0  0.37283  0.38352  0.86590  1.0000
  C   C2143     1.0  0.38166  0.36676  0.87042  1.0000
  C   C2144     1.0  0.37978  0.39453  0.87052  1.0000
  C   C2145     1.0  0.35595  0.38457  0.87497  1.0000
  C   C2146     1.0  0.37259  0.38827  0.84863  1.0000
  C   C2147     1.0  0.38870  0.38759  0.83694  1.0000
  C   C2148     1.0  0.37503  0.35387  0.86779  1.0000
  C   C2149     1.0  0.34556  0.40136  0.87510  1.0000
  C   C2150     1.0  0.39785  0.39031  0.86937  1.0000
  C   C2151     1.0  0.40356  0.40403  0.87098  1.0000
  C   C2152     1.0  0.38679  0.39061  0.82004  1.0000
  C   C2153     1.0  0.38504  0.33754  0.87278  1.0000
  C   C2154     1.0  0.32857  0.40063  0.88352  1.0000
  H   H3768     1.0  0.38205  0.36397  0.88307  1.0000
  H   H3769     1.0  0.39416  0.36508  0.86414  1.0000
  H   H3770     1.0  0.37645  0.40676  0.86372  1.0000
  H   H3771     1.0  0.37472  0.39502  0.88310  1.0000
  H   H3772     1.0  0.35556  0.37835  0.88746  1.0000
  H   H3773     1.0  0.34974  0.37843  0.87031  1.0000
  H   H3774     1.0  0.36602  0.38111  0.84573  1.0000
  H   H3775     1.0  0.36591  0.40057  0.84568  1.0000
  H   H3776     1.0  0.39677  0.37598  0.83935  1.0000
  H   H3777     1.0  0.39418  0.39692  0.83745  1.0000
  H   H3778     1.0  0.36294  0.35380  0.87493  1.0000
  H   H3779     1.0  0.37490  0.35563  0.85521  1.0000
  H   H3780     1.0  0.34538  0.40846  0.86303  1.0000
  H   H3781     1.0  0.34984  0.40769  0.88141  1.0000
  H   H3782     1.0  0.40083  0.38018  0.87907  1.0000
  H   H3783     1.0  0.40466  0.38698  0.85818  1.0000
  H   H3784     1.0  0.39718  0.40771  0.88218  1.0000
  H   H3785     1.0  0.41632  0.40041  0.87100  1.0000
  H   H3786     1.0  0.40172  0.41421  0.86102  1.0000
  H   H3787     1.0  0.39847  0.39041  0.81184  1.0000
  C   C2155     1.0  0.46521  0.43644  0.95248  1.0000
  H   H3788     1.0  0.37901  0.40229  0.81680  1.0000
  H   H3789     1.0  0.27143  0.44135  0.96346  1.0000
  H   H3790     1.0  0.37997  0.32852  0.87094  1.0000
  H   H3791     1.0  0.39730  0.33657  0.86575  1.0000
  H   H3792     1.0  0.32797  0.39380  0.89583  1.0000
  H   H3793     1.0  0.32137  0.41268  0.88380  1.0000
  H   H3794     1.0  0.32336  0.39506  0.87728  1.0000
  H   H3795     1.0  0.38515  0.33508  0.88548  1.0000
  H   H3796     1.0  0.38626  0.33701  0.97872  1.0000
  H   H3797     1.0  0.35690  0.42829  0.96363  1.0000
  C   C2156     1.0  0.42787  0.46637  0.94314  1.0000
  H   H3798     1.0  0.36216  0.39886  0.95430  1.0000
  Fe  Fe247     1.0  0.26578  0.24741  0.86807  1.0000
  C   C2157     1.0  0.45654  0.36649  0.96738  1.0000
  H   H3799     1.0  0.27861  0.27220  0.81256  1.0000
  S   S492      1.0  0.43005  0.46218  0.91351  1.0000
  C   C2158     1.0  0.47451  0.44038  0.89520  1.0000
  H   H3800     1.0  0.28909  0.33820  0.87382  1.0000
  C   C2159     1.0  0.24670  0.23988  0.77667  1.0000
  H   H3801     1.0  0.45322  0.35613  0.97621  1.0000
  H   H3802     1.0  0.25546  0.41171  0.95415  1.0000
  H   H3803     1.0  0.49103  0.38289  0.97193  1.0000
  H   H3804     1.0  0.37107  0.32688  0.93709  1.0000
  C   C2160     1.0  0.46393  0.42586  0.88149  1.0000
  H   H3805     1.0  0.46043  0.41473  0.88256  1.0000
  C   C2161     1.0  0.42883  0.47485  0.95357  1.0000
  H   H3806     1.0  0.27468  0.32134  0.89027  1.0000
  H   H3807     1.0  0.25395  0.24037  0.76453  1.0000
  C   C2162     1.0  0.35939  0.34705  0.95884  1.0000
  H   H3808     1.0  0.27710  0.33179  0.91010  1.0000
  S   S493      1.0  0.25985  0.24283  0.89455  1.0000
  H   H3809     1.0  0.47307  0.42777  0.87052  1.0000
  C   C2163     1.0  0.34619  0.37173  0.96704  1.0000
  H   H3810     1.0  0.35791  0.31852  0.95435  1.0000
  H   H3811     1.0  0.45344  0.43566  0.88072  1.0000
  H   H3812     1.0  0.37215  0.32485  0.97108  1.0000
  C   C2164     1.0  0.43042  0.47280  0.92700  1.0000
  H   H3813     1.0  0.46933  0.42535  0.92578  1.0000
  H   H3814     1.0  0.27435  0.31979  0.93882  1.0000
  H   H3815     1.0  0.46312  0.44912  0.89614  1.0000
  C   C2165     1.0  0.26429  0.31379  0.86943  1.0000
  H   H3816     1.0  0.32703  0.36053  0.96822  1.0000
  H   H3817     1.0  0.46636  0.38623  0.96432  1.0000
  H   H3818     1.0  0.29194  0.34376  0.89023  1.0000
  H   H3819     1.0  0.25540  0.31923  0.89973  1.0000
  C   C2166     1.0  0.47033  0.42467  0.89580  1.0000
  H   H3820     1.0  0.37047  0.37835  0.97771  1.0000
  H   H3821     1.0  0.46650  0.36219  0.95812  1.0000
  H   H3822     1.0  0.42725  0.46960  0.96599  1.0000
  H   H3823     1.0  0.25952  0.43939  0.94304  1.0000
  H   H3824     1.0  0.37724  0.40307  0.96108  1.0000
  H   H3825     1.0  0.27026  0.27945  0.83035  1.0000
  H   H3826     1.0  0.34827  0.34292  0.96408  1.0000
  C   C2167     1.0  0.24524  0.39172  0.90593  1.0000
  H   H3827     1.0  0.39941  0.47950  0.90473  1.0000
  S   S494      1.0  0.40725  0.40525  0.97699  1.0000
  C   C2168     1.0  0.26476  0.33859  0.91159  1.0000
  H   H3828     1.0  0.46111  0.42179  0.90642  1.0000
  H   H3829     1.0  0.44557  0.38518  0.95040  1.0000
  C   C2169     1.0  0.48868  0.36760  0.91949  1.0000
  H   H3830     1.0  0.38241  0.39524  0.94384  1.0000
  H   H3831     1.0  0.30726  0.35620  0.86570  1.0000
  H   H3832     1.0  0.26473  0.34956  0.91489  1.0000
  H   H3833     1.0  0.34551  0.37778  0.95463  1.0000
  C   C2170     1.0  0.26836  0.35416  0.88480  1.0000
  H   H3834     1.0  0.26037  0.31496  0.85852  1.0000
  C   C2171     1.0  0.25783  0.32914  0.87516  1.0000
  H   H3835     1.0  0.29232  0.37088  0.87456  1.0000
  C   C2172     1.0  0.24655  0.25431  0.78235  1.0000
  H   H3836     1.0  0.28982  0.36526  0.85784  1.0000
  C   C2173     1.0  0.47654  0.38068  0.92238  1.0000
  C   C2174     1.0  0.29437  0.36092  0.86880  1.0000
  Fe  Fe248     1.0  0.24630  0.28063  0.86473  1.0000
  C   C2175     1.0  0.24588  0.42169  0.95769  1.0000
  H   H3837     1.0  0.46067  0.42558  0.95518  1.0000
  C   C2176     1.0  0.32371  0.32472  0.97457  1.0000
  H   H3838     1.0  0.38566  0.35678  0.95701  1.0000
  H   H3839     1.0  0.27514  0.42104  0.96239  1.0000
  C   C2177     1.0  0.44266  0.37488  0.95964  1.0000
  C   C2178     1.0  0.26183  0.32617  0.94069  1.0000
  H   H3840     1.0  0.25190  0.42522  0.92847  1.0000
  C   C2179     1.0  0.25531  0.32872  0.92610  1.0000
  H   H3841     1.0  0.46864  0.39981  0.93416  1.0000
  H   H3842     1.0  0.27735  0.31107  0.86670  1.0000
  C   C2180     1.0  0.47825  0.43707  0.93763  1.0000
  C   C2181     1.0  0.47340  0.47024  0.90526  1.0000
  H   H3843     1.0  0.45541  0.44683  0.95101  1.0000
  H   H3844     1.0  0.32812  0.31987  0.96414  1.0000
  H   H3845     1.0  0.25101  0.28793  0.81380  1.0000
  H   H3846     1.0  0.26863  0.32442  0.97298  1.0000
  H   H3847     1.0  0.31593  0.38933  0.96541  1.0000
  N   N119      1.0  0.36072  0.35859  0.96741  1.0000
  H   H3848     1.0  0.24454  0.27448  0.83165  1.0000
  N   N120      1.0  0.48304  0.44007  0.90750  1.0000
  H   H3849     1.0  0.43995  0.36680  0.95400  1.0000
  H   H3850     1.0  0.24459  0.44595  0.95911  1.0000
  H   H3851     1.0  0.27372  0.30348  0.97479  1.0000
  H   H3852     1.0  0.33962  0.41983  0.97076  1.0000
  H   H3853     1.0  0.48270  0.44778  0.93589  1.0000
  H   H3854     1.0  0.25206  0.43065  0.90032  1.0000
  H   H3855     1.0  0.25523  0.25213  0.81673  1.0000
  H   H3856     1.0  0.25608  0.31697  0.92414  1.0000
  H   H3857     1.0  0.48765  0.36034  0.91231  1.0000
  H   H3858     1.0  0.39992  0.46543  0.97750  1.0000
  H   H3859     1.0  0.24484  0.33179  0.87675  1.0000
  H   H3860     1.0  0.43208  0.37873  0.96851  1.0000
  H   H3861     1.0  0.24272  0.33467  0.92887  1.0000
  C   C2182     1.0  0.33018  0.36698  0.97527  1.0000
  H   H3862     1.0  0.34682  0.38087  0.97273  1.0000
  C   C2183     1.0  0.48737  0.45584  0.90380  1.0000
  C   C2184     1.0  0.24178  0.35007  0.89977  1.0000
  C   C2185     1.0  0.24203  0.38237  0.92106  1.0000
  H   H3863     1.0  0.24153  0.41792  0.97058  1.0000
  H   H3864     1.0  0.24297  0.28421  0.78523  1.0000
  H   H3865     1.0  0.24220  0.26486  0.77373  1.0000
  Fe  Fe249     1.0  0.45553  0.56363  0.03981  1.0000
  S   S495      1.0  0.47627  0.54589  0.04710  1.0000
  S   S496      1.0  0.45824  0.57787  0.01524  1.0000
  Fe  Fe250     1.0  0.43416  0.55682  0.07147  1.0000
  S   S497      1.0  0.45320  0.53833  0.08175  1.0000
  S   S498      1.0  0.40936  0.56228  0.08577  1.0000
  Fe  Fe251     1.0  0.46874  0.55558  0.06891  1.0000
  C   C2186     1.0  0.39895  0.51257  0.99915  1.0000
  Fe  Fe252     1.0  0.45914  0.53022  0.05912  1.0000
  C   C2187     1.0  0.27959  0.65834  0.12698  1.0000
  S   S499      1.0  0.44921  0.57468  0.06051  1.0000
  S   S500      1.0  0.43892  0.54729  0.04987  1.0000
  Fe  Fe253     1.0  0.30870  0.61054  0.06297  1.0000
  S   S501      1.0  0.29610  0.63139  0.04771  1.0000
  S   S502      1.0  0.29911  0.58844  0.07418  1.0000
  Fe  Fe254     1.0  0.33724  0.62497  0.05690  1.0000
  S   S503      1.0  0.32666  0.64694  0.04108  1.0000
  S   S504      1.0  0.36252  0.62293  0.05777  1.0000
  Fe  Fe255     1.0  0.30427  0.64565  0.05955  1.0000
  S   S505      1.0  0.28614  0.66645  0.06770  1.0000
  Fe  Fe256     1.0  0.31954  0.63075  0.03077  1.0000
  H   H3866     1.0  0.37148  0.57340  0.05257  1.0000
  S   S506      1.0  0.31527  0.62469  0.07615  1.0000
  S   S507      1.0  0.33159  0.60903  0.04543  1.0000
  S   S508      1.0  0.26312  0.57290  0.03132  1.0000
  H   H3867     1.0  0.48859  0.49839  0.98995  1.0000
  C   C2188     1.0  0.48413  0.50882  0.01419  1.0000
  H   H3868     1.0  0.35287  0.57731  0.03480  1.0000
  S   S509      1.0  0.29729  0.70532  0.11091  1.0000
  H   H3869     1.0  0.39710  0.53057  0.01174  1.0000
  S   S510      1.0  0.32742  0.62793  0.00553  1.0000
  H   H3870     1.0  0.42768  0.61171  0.99028  1.0000
  Fe  Fe257     1.0  0.27865  0.72654  0.11728  1.0000
  H   H3871     1.0  0.27357  0.50211  0.98259  1.0000
  H   H3872     1.0  0.46600  0.62603  0.02489  1.0000
  C   C2189     1.0  0.29210  0.64667  0.98183  1.0000
  H   H3873     1.0  0.42359  0.50330  0.99518  1.0000
  H   H3874     1.0  0.44793  0.55952  0.12066  1.0000
  N   N121      1.0  0.35005  0.55636  0.05303  1.0000
  H   H3875     1.0  0.32937  0.61315  0.98099  1.0000
  C   C2190     1.0  0.48081  0.63085  0.00113  1.0000
  H   H3876     1.0  0.25593  0.72601  0.04578  1.0000
  C   C2191     1.0  0.43497  0.57259  0.98576  1.0000
  H   H3877     1.0  0.48053  0.54010  0.00682  1.0000
  H   H3878     1.0  0.44757  0.58763  0.11066  1.0000
  H   H3879     1.0  0.26294  0.49989  0.01901  1.0000
  H   H3880     1.0  0.47173  0.55076  0.98044  1.0000
  H   H3881     1.0  0.26362  0.52677  0.09092  1.0000
  C   C2192     1.0  0.25530  0.52588  0.10256  1.0000
  H   H3882     1.0  0.44202  0.49071  0.01052  1.0000
  H   H3883     1.0  0.27050  0.63972  0.11516  1.0000
  H   H3884     1.0  0.29745  0.64988  0.00244  1.0000
  H   H3885     1.0  0.43360  0.51034  0.06928  1.0000
  C   C2193     1.0  0.44458  0.56559  0.10924  1.0000
  C   C2194     1.0  0.38769  0.48471  0.03122  1.0000
  H   H3886     1.0  0.29430  0.60576  0.99841  1.0000
  C   C2195     1.0  0.28984  0.67715  0.07946  1.0000
  C   C2196     1.0  0.30416  0.67360  0.08409  1.0000
  C   C2197     1.0  0.30638  0.68235  0.09367  1.0000
  C   C2198     1.0  0.29425  0.69451  0.09888  1.0000
  C   C2199     1.0  0.27995  0.69791  0.09432  1.0000
  C   C2200     1.0  0.27791  0.68952  0.08439  1.0000
  H   H3887     1.0  0.31351  0.66415  0.08029  1.0000
  H   H3888     1.0  0.31750  0.67962  0.09716  1.0000
  H   H3889     1.0  0.27047  0.70708  0.09837  1.0000
  H   H3890     1.0  0.26713  0.69286  0.08027  1.0000
  C   C2201     1.0  0.29007  0.58338  0.06189  1.0000
  C   C2202     1.0  0.28857  0.59307  0.04721  1.0000
  C   C2203     1.0  0.28038  0.58965  0.03797  1.0000
  C   C2204     1.0  0.27369  0.57642  0.04322  1.0000
  H   H3891     1.0  0.37498  0.58364  0.98400  1.0000
  C   C2205     1.0  0.28405  0.56969  0.06689  1.0000
  H   H3892     1.0  0.29363  0.60331  0.04293  1.0000
  H   H3893     1.0  0.27889  0.59755  0.02690  1.0000
  H   H3894     1.0  0.39966  0.51224  0.98681  1.0000
  H   H3895     1.0  0.42608  0.62901  0.99728  1.0000
  H   H3896     1.0  0.37910  0.56769  0.03400  1.0000
  C   C2206     1.0  0.39605  0.57820  0.07698  1.0000
  C   C2207     1.0  0.40132  0.58844  0.06303  1.0000
  C   C2208     1.0  0.39079  0.60188  0.05697  1.0000
  C   C2209     1.0  0.37483  0.60489  0.06450  1.0000
  C   C2210     1.0  0.36943  0.59429  0.07811  1.0000
  C   C2211     1.0  0.38006  0.58105  0.08442  1.0000
  H   H3897     1.0  0.41358  0.58621  0.05713  1.0000
  H   H3898     1.0  0.39504  0.61007  0.04647  1.0000
  H   H3899     1.0  0.35723  0.59673  0.08416  1.0000
  H   H3900     1.0  0.37594  0.57319  0.09526  1.0000
  H   H3901     1.0  0.27957  0.66588  0.13480  1.0000
  H   H3902     1.0  0.36008  0.56416  0.07819  1.0000
  H   H3903     1.0  0.27073  0.58179  0.12612  1.0000
  H   H3904     1.0  0.45521  0.56377  0.09970  1.0000
  H   H3905     1.0  0.25769  0.61963  0.10604  1.0000
  H   H3906     1.0  0.41017  0.53244  0.99256  1.0000
  H   H3907     1.0  0.47407  0.59155  0.06939  1.0000
  C   C2212     1.0  0.44322  0.57650  0.00737  1.0000
  C   C2213     1.0  0.48815  0.51123  0.98572  1.0000
  H   H3908     1.0  0.27004  0.72369  0.07099  1.0000
  H   H3909     1.0  0.45175  0.63483  0.99951  1.0000
  C   C2214     1.0  0.41668  0.57336  0.01083  1.0000
  C   C2215     1.0  0.42830  0.57566  0.01692  1.0000
  C   C2216     1.0  0.43461  0.61752  0.06116  1.0000
  H   H3910     1.0  0.40517  0.57265  0.01816  1.0000
  H   H3911     1.0  0.42571  0.57683  0.02898  1.0000
  H   H3912     1.0  0.25878  0.48736  0.00283  1.0000
  N   N122      1.0  0.42488  0.60877  0.09151  1.0000
  H   H3913     1.0  0.29419  0.59798  0.98217  1.0000
  H   H3914     1.0  0.32974  0.54667  0.05622  1.0000
  C   C2217     1.0  0.44634  0.57559  0.99163  1.0000
  H   H3915     1.0  0.34537  0.51002  0.06088  1.0000
  H   H3916     1.0  0.44530  0.59125  0.08422  1.0000
  H   H3917     1.0  0.27580  0.51587  0.02741  1.0000
  H   H3918     1.0  0.47407  0.64324  0.99946  1.0000
  H   H3919     1.0  0.25107  0.71599  0.06562  1.0000
  H   H3920     1.0  0.34757  0.53678  0.04544  1.0000
  N   N123      1.0  0.47561  0.62178  0.99255  1.0000
  H   H3921     1.0  0.41155  0.60679  0.11572  1.0000
  C   C2218     1.0  0.30336  0.70139  0.03793  1.0000
  H   H3922     1.0  0.32556  0.51922  0.06951  1.0000
  H   H3923     1.0  0.24528  0.53860  0.12101  1.0000
  C   C2219     1.0  0.34393  0.52982  0.07088  1.0000
  H   H3924     1.0  0.28169  0.65605  0.98207  1.0000
  H   H3925     1.0  0.33599  0.59410  0.01771  1.0000
  C   C2220     1.0  0.38305  0.60296  0.11609  1.0000
  H   H3926     1.0  0.35619  0.52542  0.07248  1.0000
  H   H3927     1.0  0.33868  0.50681  0.08193  1.0000
  H   H3928     1.0  0.37691  0.61552  0.11476  1.0000
  C   C2221     1.0  0.26428  0.51157  0.01141  1.0000
  H   H3929     1.0  0.43158  0.53857  0.00504  1.0000
  C   C2222     1.0  0.24793  0.64483  0.09735  1.0000
  H   H3930     1.0  0.35483  0.56037  0.02756  1.0000
  C   C2223     1.0  0.27597  0.56615  0.05749  1.0000
  H   H3931     1.0  0.45589  0.61544  0.01076  1.0000
  H   H3932     1.0  0.42745  0.58484  0.08964  1.0000
  H   H3933     1.0  0.44733  0.61520  0.08679  1.0000
  C   C2224     1.0  0.33005  0.58448  0.01904  1.0000
  H   H3934     1.0  0.39283  0.48636  0.99937  1.0000
  C   C2225     1.0  0.33801  0.51563  0.07072  1.0000
  H   H3935     1.0  0.42313  0.62859  0.11383  1.0000
  H   H3936     1.0  0.38604  0.59854  0.12785  1.0000
  C   C2226     1.0  0.26551  0.52159  0.02191  1.0000
  H   H3937     1.0  0.45768  0.57674  0.98408  1.0000
  C   C2227     1.0  0.24720  0.55564  0.09786  1.0000
  H   H3938     1.0  0.35002  0.54844  0.08599  1.0000
  H   H3939     1.0  0.40326  0.58814  0.10472  1.0000
  H   H3940     1.0  0.27196  0.63046  0.09327  1.0000
  C   C2228     1.0  0.24181  0.48502  0.99133  1.0000
  C   C2229     1.0  0.43289  0.61683  0.99692  1.0000
  C   C2230     1.0  0.34845  0.56114  0.08072  1.0000
  H   H3941     1.0  0.41424  0.49404  0.07330  1.0000
  C   C2231     1.0  0.40956  0.61034  0.10359  1.0000
  H   H3942     1.0  0.42782  0.58416  0.11880  1.0000
  C   C2232     1.0  0.33079  0.57287  0.03481  1.0000
  H   H3943     1.0  0.41506  0.50436  0.01509  1.0000
  H   H3944     1.0  0.43222  0.52014  0.01938  1.0000
  C   C2233     1.0  0.25123  0.57040  0.11522  1.0000
  S   S511      1.0  0.46724  0.50511  0.05584  1.0000
  H   H3945     1.0  0.30543  0.68889  0.04431  1.0000
  H   H3946     1.0  0.33572  0.57841  0.00918  1.0000
  C   C2234     1.0  0.25828  0.62364  0.08141  1.0000
  H   H3947     1.0  0.45895  0.53153  0.99049  1.0000
  H   H3948     1.0  0.47938  0.59829  0.00729  1.0000
  C   C2235     1.0  0.43722  0.49957  0.06503  1.0000
  H   H3949     1.0  0.31758  0.58980  0.01834  1.0000
  C   C2236     1.0  0.25216  0.72774  0.05802  1.0000
  H   H3950     1.0  0.25560  0.65636  0.13663  1.0000
  H   H3951     1.0  0.33555  0.58290  0.08831  1.0000
  H   H3952     1.0  0.31455  0.70539  0.03509  1.0000
  H   H3953     1.0  0.25089  0.53164  0.99806  1.0000
  H   H3954     1.0  0.24885  0.59588  0.11228  1.0000
  C   C2237     1.0  0.25322  0.54023  0.10927  1.0000
  N   N124      1.0  0.24661  0.64998  0.11221  1.0000
  H   H3955     1.0  0.43555  0.56020  0.10786  1.0000
  H   H3956     1.0  0.44699  0.64002  0.10095  1.0000
  H   H3957     1.0  0.43096  0.63144  0.08627  1.0000
  H   H3958     1.0  0.35442  0.59202  0.98492  1.0000
  C   C2238     1.0  0.41333  0.50085  0.00494  1.0000
  C   C2239     1.0  0.30092  0.64312  0.99343  1.0000
  C   C2240     1.0  0.42084  0.61433  0.07545  1.0000
  H   H3959     1.0  0.45441  0.54239  0.01373  1.0000
  C   C2241     1.0  0.43483  0.61915  0.09271  1.0000
  C   C2242     1.0  0.28763  0.59987  0.99405  1.0000
  H   H3960     1.0  0.28685  0.58830  0.00217  1.0000
  H   H3961     1.0  0.35991  0.56310  0.99461  1.0000
  S   S512      1.0  0.40647  0.56617  0.98860  1.0000
  C   C2243     1.0  0.45291  0.49460  0.05769  1.0000
  C   C2244     1.0  0.46257  0.52319  0.00100  1.0000
  C   C2245     1.0  0.43446  0.62085  0.10941  1.0000
  H   H3962     1.0  0.42781  0.53835  0.02564  1.0000
  C   C2246     1.0  0.24133  0.59955  0.06270  1.0000
  H   H3963     1.0  0.25203  0.65367  0.08680  1.0000
  C   C2247     1.0  0.44778  0.62830  0.10912  1.0000
  C   C2248     1.0  0.26083  0.60141  0.98941  1.0000
  C   C2249     1.0  0.24438  0.58428  0.09008  1.0000
  H   H3964     1.0  0.48187  0.59871  0.98717  1.0000
  H   H3965     1.0  0.48461  0.62853  0.03919  1.0000
  H   H3966     1.0  0.25090  0.67725  0.09249  1.0000
  H   H3967     1.0  0.38757  0.50990  0.00620  1.0000
  H   H3968     1.0  0.34269  0.56717  0.10353  1.0000
  H   H3969     1.0  0.32587  0.56659  0.09687  1.0000
  H   H3970     1.0  0.44515  0.60781  0.06158  1.0000
  H   H3971     1.0  0.26684  0.61237  0.08025  1.0000
  H   H3972     1.0  0.27142  0.55556  0.06126  1.0000
  H   H3973     1.0  0.43811  0.62843  0.06085  1.0000
  C   C2250     1.0  0.24729  0.58540  0.12185  1.0000
  H   H3974     1.0  0.33640  0.53455  0.08119  1.0000
  H   H3975     1.0  0.38917  0.53770  0.99425  1.0000
  C   C2251     1.0  0.34198  0.56586  0.06550  1.0000
  C   C2252     1.0  0.39885  0.52932  0.99948  1.0000
  C   C2253     1.0  0.34261  0.54260  0.05564  1.0000
  H   H3976     1.0  0.26585  0.61336  0.00490  1.0000
  C   C2254     1.0  0.42973  0.61972  0.04569  1.0000
  H   H3977     1.0  0.37261  0.54228  0.04406  1.0000
  H   H3978     1.0  0.32918  0.56591  0.06894  1.0000
  H   H3979     1.0  0.25012  0.56047  0.12554  1.0000
  C   C2255     1.0  0.25825  0.58386  0.13261  1.0000
  H   H3980     1.0  0.25563  0.59487  0.13684  1.0000
  H   H3981     1.0  0.36980  0.54327  0.06383  1.0000
  C   C2256     1.0  0.26265  0.65154  0.11272  1.0000
  C   C2257     1.0  0.39365  0.55659  0.05081  1.0000
  C   C2258     1.0  0.45818  0.62263  0.99856  1.0000
  C   C2259     1.0  0.42629  0.49031  0.06732  1.0000
  N   N125      1.0  0.24878  0.51104  0.99145  1.0000
  C   C2260     1.0  0.45012  0.61681  0.98887  1.0000
  H   H3982     1.0  0.37490  0.59616  0.11529  1.0000
  C   C2261     1.0  0.45247  0.53047  0.01515  1.0000
  C   C2262     1.0  0.39786  0.60089  0.10308  1.0000
  H   H3983     1.0  0.25481  0.52277  0.03147  1.0000
  H   H3984     1.0  0.32553  0.56319  0.03479  1.0000
  C   C2263     1.0  0.34800  0.56667  0.03713  1.0000
  H   H3985     1.0  0.27555  0.51017  0.00262  1.0000
  H   H3986     1.0  0.41158  0.62541  0.07494  1.0000
  H   H3987     1.0  0.43926  0.62309  0.03563  1.0000
  H   H3988     1.0  0.24192  0.60411  0.01819  1.0000
  H   H3989     1.0  0.47713  0.49951  0.01843  1.0000
  H   H3990     1.0  0.39398  0.60497  0.09176  1.0000
  H   H3991     1.0  0.25868  0.59147  0.99960  1.0000
  H   H3992     1.0  0.41565  0.60561  0.07320  1.0000
  H   H3993     1.0  0.24356  0.63025  0.99624  1.0000
  C   C2264     1.0  0.36748  0.55042  0.05230  1.0000
  S   S513      1.0  0.26089  0.72650  0.14028  1.0000
  H   H3994     1.0  0.45942  0.62064  0.10535  1.0000
  H   H3995     1.0  0.40050  0.56593  0.04675  1.0000
  H   H3996     1.0  0.43547  0.60952  0.11803  1.0000
  H   H3997     1.0  0.41891  0.62911  0.04488  1.0000
  C   C2265     1.0  0.48408  0.60472  0.99528  1.0000
  H   H3998     1.0  0.24562  0.57450  0.06981  1.0000
  H   H3999     1.0  0.45514  0.52314  0.02647  1.0000
  C   C2266     1.0  0.26289  0.66049  0.12495  1.0000
  H   H4000     1.0  0.40019  0.54680  0.04482  1.0000
  H   H4001     1.0  0.26704  0.53346  0.01497  1.0000
  H   H4002     1.0  0.44699  0.62982  0.12108  1.0000
  H   H4003     1.0  0.25073  0.62780  0.12912  1.0000
  H   H4004     1.0  0.25713  0.58455  0.08633  1.0000
  C   C2267     1.0  0.28692  0.72882  0.03968  1.0000
  H   H4005     1.0  0.28748  0.66182  0.11547  1.0000
  H   H4006     1.0  0.30638  0.72745  0.06000  1.0000
  H   H4007     1.0  0.38506  0.49754  0.03048  1.0000
  C   C2268     1.0  0.24735  0.49443  1.00000  1.0000
  H   H4008     1.0  0.42751  0.60860  0.04473  1.0000
  H   H4009     1.0  0.26096  0.63249  0.07036  1.0000
  H   H4010     1.0  0.45615  0.60473  0.98745  1.0000
  H   H4011     1.0  0.39264  0.55234  0.06371  1.0000
  C   C2269     1.0  0.25968  0.62905  0.09542  1.0000
  C   C2270     1.0  0.49021  0.56112  0.98096  1.0000
  H   H4012     1.0  0.27973  0.70638  0.05121  1.0000
  H   H4013     1.0  0.28552  0.56192  0.07807  1.0000
  C   C2271     1.0  0.33744  0.57000  0.09310  1.0000
  C   C2272     1.0  0.48614  0.53430  0.99667  1.0000
  C   C2273     1.0  0.43813  0.58311  0.10887  1.0000
  H   H4014     1.0  0.24624  0.62187  0.08305  1.0000
  C   C2274     1.0  0.36191  0.56828  0.98180  1.0000
  C   C2275     1.0  0.43389  0.59192  0.09286  1.0000
  C   C2276     1.0  0.37736  0.56324  0.04694  1.0000
  H   H4015     1.0  0.29416  0.70962  0.05933  1.0000
  C   C2277     1.0  0.29039  0.71128  0.04828  1.0000
  C   C2278     1.0  0.42017  0.57136  0.99541  1.0000
  H   H4016     1.0  0.40335  0.62295  0.10219  1.0000
  H   H4017     1.0  0.32335  0.57893  0.04427  1.0000
  H   H4018     1.0  0.34263  0.57838  0.06070  1.0000
  H   H4019     1.0  0.26398  0.56830  0.10936  1.0000
  C   C2279     1.0  0.25014  0.51924  0.00330  1.0000
  H   H4020     1.0  0.25831  0.67326  0.12095  1.0000
  H   H4021     1.0  0.28998  0.72751  0.07674  1.0000
  C   C2280     1.0  0.47867  0.62453  0.01918  1.0000
  H   H4022     1.0  0.26007  0.51505  0.11066  1.0000
  C   C2281     1.0  0.48910  0.60385  0.07413  1.0000
  H   H4023     1.0  0.28428  0.64591  0.13231  1.0000
  H   H4024     1.0  0.26876  0.65738  0.10104  1.0000
  C   C2282     1.0  0.48592  0.63349  0.02635  1.0000
  H   H4025     1.0  0.29989  0.70211  0.02688  1.0000
  C   C2283     1.0  0.43497  0.53195  0.01632  1.0000
  H   H4026     1.0  0.48259  0.61542  0.06963  1.0000
  H   H4027     1.0  0.26489  0.54036  0.11095  1.0000
  C   C2284     1.0  0.31461  0.63127  0.99290  1.0000
  N   N126      1.0  0.24556  0.61124  0.98517  1.0000
  H   H4028     1.0  0.25662  0.57401  0.14297  1.0000
  H   H4029     1.0  0.25742  0.55657  0.08776  1.0000
  H   H4030     1.0  0.45874  0.51222  0.00198  1.0000
  H   H4031     1.0  0.43188  0.60962  0.00910  1.0000
  H   H4032     1.0  0.25357  0.60104  0.06040  1.0000
  C   C2285     1.0  0.27123  0.61018  0.99331  1.0000
  N   N127      1.0  0.48020  0.51962  0.99911  1.0000
  C   C2286     1.0  0.48422  0.59036  0.07403  1.0000
  C   C2287     1.0  0.48420  0.54680  0.98142  1.0000
  H   H4033     1.0  0.48453  0.56581  0.99173  1.0000
  H   H4034     1.0  0.47999  0.64612  0.02449  1.0000
  H   H4035     1.0  0.48425  0.61190  0.02228  1.0000
  H   H4036     1.0  0.27265  0.62108  0.98436  1.0000
  N   N128      1.0  0.24165  0.57068  0.10387  1.0000
  C   C2288     1.0  0.31908  0.62264  0.98111  1.0000
  H   H4037     1.0  0.29843  0.73222  0.03396  1.0000
  H   H4038     1.0  0.28173  0.72916  0.02976  1.0000
  H   H4039     1.0  0.24381  0.52488  0.10120  1.0000
  C   C2289     1.0  0.26440  0.73369  0.06276  1.0000
  H   H4040     1.0  0.48076  0.51552  0.02365  1.0000
  S   S514      1.0  0.48788  0.55784  0.07937  1.0000
  H   H4041     1.0  0.41094  0.48414  0.98582  1.0000
  Fe  Fe258     1.0  0.41953  0.55644  0.96734  1.0000
  H   H4042     1.0  0.38300  0.62207  0.93366  1.0000
  Fe  Fe259     1.0  0.41790  0.55820  0.93438  1.0000
  S   S515      1.0  0.40181  0.57054  0.91739  1.0000
  H   H4043     1.0  0.36969  0.54386  0.92042  1.0000
  S   S516      1.0  0.40822  0.54359  0.95744  1.0000
  C   C2290     1.0  0.47115  0.64609  0.96978  1.0000
  Fe  Fe260     1.0  0.27837  0.60826  0.92549  1.0000
  S   S517      1.0  0.28170  0.63302  0.91850  1.0000
  S   S518      1.0  0.25325  0.60681  0.92798  1.0000
  Fe  Fe261     1.0  0.31187  0.59511  0.93063  1.0000
  S   S519      1.0  0.31765  0.61889  0.92433  1.0000
  S   S520      1.0  0.32847  0.57301  0.93987  1.0000
  Fe  Fe262     1.0  0.29356  0.62641  0.93875  1.0000
  S   S521      1.0  0.28594  0.64313  0.95513  1.0000
  Fe  Fe263     1.0  0.30520  0.62325  0.90472  1.0000
  S   S522      1.0  0.31608  0.63500  0.88044  1.0000
  S   S523      1.0  0.28870  0.60225  0.94679  1.0000
  S   S524      1.0  0.30109  0.59882  0.90993  1.0000
  H   H4044     1.0  0.24306  0.66950  0.83423  1.0000
  H   H4045     1.0  0.27576  0.71000  0.86990  1.0000
  H   H4046     1.0  0.37463  0.63643  0.96366  1.0000
  H   H4047     1.0  0.48701  0.64951  0.94669  1.0000
  H   H4048     1.0  0.43773  0.57119  0.97378  1.0000
  N   N129      1.0  0.28359  0.68959  0.89845  1.0000
  H   H4049     1.0  0.30956  0.66408  0.93291  1.0000
  Fe  Fe264     1.0  0.25135  0.69570  0.84251  1.0000
  H   H4050     1.0  0.35710  0.59388  0.95711  1.0000
  S   S525      1.0  0.27391  0.67971  0.83348  1.0000
  H   H4051     1.0  0.35749  0.62341  0.90744  1.0000
  H   H4052     1.0  0.46909  0.60709  0.94750  1.0000
  C   C2291     1.0  0.47161  0.58399  0.94363  1.0000
  H   H4053     1.0  0.46898  0.49548  0.90261  1.0000
  C   C2292     1.0  0.25726  0.68160  0.90055  1.0000
  H   H4054     1.0  0.25088  0.63950  0.88851  1.0000
  H   H4055     1.0  0.28734  0.70503  0.84307  1.0000
  C   C2293     1.0  0.48214  0.57045  0.93962  1.0000
  H   H4056     1.0  0.38646  0.60509  0.97420  1.0000
  H   H4057     1.0  0.34373  0.55129  0.89225  1.0000
  H   H4058     1.0  0.37938  0.50633  0.96946  1.0000
  C   C2294     1.0  0.36499  0.58472  0.97869  1.0000
  H   H4059     1.0  0.31455  0.66842  0.89708  1.0000
  S   S526      1.0  0.47558  0.55454  0.93752  1.0000
  H   H4060     1.0  0.39561  0.51597  0.96027  1.0000
  C   C2295     1.0  0.47733  0.59656  0.94468  1.0000
  H   H4061     1.0  0.37755  0.61293  0.90744  1.0000
  H   H4062     1.0  0.35274  0.65981  0.96164  1.0000
  H   H4063     1.0  0.39044  0.51365  0.89516  1.0000
  C   C2296     1.0  0.30377  0.64672  0.86768  1.0000
  C   C2297     1.0  0.28747  0.65104  0.87297  1.0000
  C   C2298     1.0  0.27812  0.66144  0.86270  1.0000
  C   C2299     1.0  0.28502  0.66690  0.84693  1.0000
  C   C2300     1.0  0.30122  0.66195  0.84154  1.0000
  C   C2301     1.0  0.31059  0.65215  0.85194  1.0000
  H   H4064     1.0  0.28220  0.64642  0.88498  1.0000
  H   H4065     1.0  0.26563  0.66516  0.86691  1.0000
  H   H4066     1.0  0.30661  0.66605  0.82936  1.0000
  H   H4067     1.0  0.32318  0.64876  0.84774  1.0000
  S   S527      1.0  0.44182  0.53808  0.96648  1.0000
  C   C2302     1.0  0.36771  0.62164  0.91274  1.0000
  H   H4068     1.0  0.39711  0.53776  0.89006  1.0000
  C   C2303     1.0  0.24688  0.64417  0.84274  1.0000
  H   H4069     1.0  0.32405  0.67371  0.91818  1.0000
  H   H4070     1.0  0.39425  0.54822  0.90489  1.0000
  C   C2304     1.0  0.28378  0.52265  0.95721  1.0000
  H   H4071     1.0  0.40519  0.50483  0.90604  1.0000
  C   C2305     1.0  0.29525  0.68502  0.90894  1.0000
  H   H4072     1.0  0.48747  0.57056  0.97073  1.0000
  C   C2306     1.0  0.24886  0.59051  0.92453  1.0000
  C   C2307     1.0  0.36174  0.61938  0.96342  1.0000
  H   H4073     1.0  0.37084  0.50193  0.92020  1.0000
  C   C2308     1.0  0.47923  0.48544  0.90140  1.0000
  C   C2309     1.0  0.25558  0.56848  0.91185  1.0000
  C   C2310     1.0  0.26001  0.58051  0.91554  1.0000
  C   C2311     1.0  0.31028  0.62613  0.96957  1.0000
  H   H4074     1.0  0.30286  0.69368  0.90559  1.0000
  H   H4075     1.0  0.26409  0.56104  0.90450  1.0000
  H   H4076     1.0  0.27191  0.58230  0.91107  1.0000
  N   N130      1.0  0.37425  0.60713  0.95593  1.0000
  C   C2312     1.0  0.29432  0.70074  0.85235  1.0000
  C   C2313     1.0  0.26774  0.52561  0.96844  1.0000
  H   H4077     1.0  0.39686  0.62611  0.94929  1.0000
  H   H4078     1.0  0.43698  0.50804  0.92739  1.0000
  H   H4079     1.0  0.28082  0.66698  0.89736  1.0000
  C   C2314     1.0  0.38135  0.57138  0.92381  1.0000
  C   C2315     1.0  0.37112  0.58107  0.91417  1.0000
  C   C2316     1.0  0.35478  0.58203  0.91912  1.0000
  C   C2317     1.0  0.34867  0.57291  0.93356  1.0000
  C   C2318     1.0  0.35891  0.56294  0.94298  1.0000
  C   C2319     1.0  0.37513  0.56226  0.93818  1.0000
  H   H4080     1.0  0.37581  0.58793  0.90287  1.0000
  H   H4081     1.0  0.34695  0.58961  0.91165  1.0000
  H   H4082     1.0  0.35426  0.55571  0.95406  1.0000
  H   H4083     1.0  0.38271  0.55448  0.94556  1.0000
  S   S528      1.0  0.25019  0.71962  0.84604  1.0000
  C   C2320     1.0  0.38106  0.51648  0.94451  1.0000
  H   H4084     1.0  0.27296  0.67158  0.91612  1.0000
  H   H4085     1.0  0.36394  0.52596  0.92379  1.0000
  C   C2321     1.0  0.24854  0.72596  0.78498  1.0000
  H   H4086     1.0  0.29315  0.51646  0.96387  1.0000
  C   C2322     1.0  0.30663  0.66865  0.90884  1.0000
  N   N131      1.0  0.24621  0.62932  0.87180  1.0000
  H   H4087     1.0  0.29418  0.59331  0.87996  1.0000
  C   C2323     1.0  0.39354  0.52123  0.92945  1.0000
  C   C2324     1.0  0.28911  0.60442  0.87239  1.0000
  H   H4088     1.0  0.41915  0.53186  0.91270  1.0000
  C   C2325     1.0  0.29276  0.69075  0.88164  1.0000
  C   C2326     1.0  0.36308  0.61583  0.93054  1.0000
  H   H4089     1.0  0.42184  0.51990  0.89892  1.0000
  H   H4090     1.0  0.40756  0.60946  0.94086  1.0000
  Fe  Fe265     1.0  0.43149  0.52675  0.95381  1.0000
  C   C2327     1.0  0.25030  0.66719  0.90395  1.0000
  C   C2328     1.0  0.28075  0.71914  0.89742  1.0000
  C   C2329     1.0  0.24920  0.62181  0.96914  1.0000
  H   H4091     1.0  0.29410  0.61397  0.87328  1.0000
  S   S529      1.0  0.42801  0.57222  0.94457  1.0000
  H   H4092     1.0  0.33997  0.64795  0.96104  1.0000
  H   H4093     1.0  0.25668  0.68807  0.88840  1.0000
  H   H4094     1.0  0.28367  0.51556  0.94902  1.0000
  H   H4095     1.0  0.47689  0.62148  0.96845  1.0000
  C   C2330     1.0  0.43374  0.48785  0.92137  1.0000
  H   H4096     1.0  0.36758  0.64046  0.94578  1.0000
  C   C2331     1.0  0.34800  0.54714  0.90338  1.0000
  H   H4097     1.0  0.26629  0.70360  0.91375  1.0000
  H   H4098     1.0  0.30257  0.68952  0.85037  1.0000
  H   H4099     1.0  0.42363  0.54314  0.87682  1.0000
  C   C2332     1.0  0.47418  0.65093  0.95183  1.0000
  H   H4100     1.0  0.24675  0.59601  0.96137  1.0000
  H   H4101     1.0  0.38825  0.49175  0.92805  1.0000
  N   N132      1.0  0.38890  0.52509  0.91377  1.0000
  H   H4102     1.0  0.24750  0.65372  0.86183  1.0000
  H   H4103     1.0  0.24355  0.71526  0.78960  1.0000
  C   C2333     1.0  0.36832  0.59210  0.96078  1.0000
  C   C2334     1.0  0.28328  0.69833  0.86855  1.0000
  H   H4104     1.0  0.29264  0.60295  0.86004  1.0000
  C   C2335     1.0  0.43185  0.49003  0.94800  1.0000
  H   H4105     1.0  0.45909  0.58488  0.94568  1.0000
  H   H4106     1.0  0.25761  0.65899  0.89640  1.0000
  H   H4107     1.0  0.32507  0.65311  0.92032  1.0000
  C   C2336     1.0  0.41658  0.53172  0.90146  1.0000
  S   S530      1.0  0.44079  0.54044  0.92988  1.0000
  C   C2337     1.0  0.36481  0.63618  0.95871  1.0000
  H   H4108     1.0  0.37696  0.58311  0.95466  1.0000
  H   H4109     1.0  0.39555  0.59124  0.96218  1.0000
  H   H4110     1.0  0.29914  0.67886  0.87953  1.0000
  C   C2338     1.0  0.37179  0.53341  0.91536  1.0000
  Fe  Fe266     1.0  0.44988  0.55299  0.94282  1.0000
  C   C2339     1.0  0.26373  0.62312  0.86697  1.0000
  H   H4111     1.0  0.26703  0.59788  0.87741  1.0000
  H   H4112     1.0  0.37172  0.54806  0.89144  1.0000
  H   H4113     1.0  0.25983  0.64275  0.83852  1.0000
  H   H4114     1.0  0.28888  0.68519  0.92137  1.0000
  C   C2340     1.0  0.43439  0.49647  0.93183  1.0000
  H   H4115     1.0  0.26679  0.62022  0.85519  1.0000
  H   H4116     1.0  0.26857  0.60941  0.89016  1.0000
  C   C2341     1.0  0.40189  0.61335  0.95212  1.0000
  H   H4117     1.0  0.24953  0.66106  0.91645  1.0000
  C   C2342     1.0  0.36547  0.53922  0.90002  1.0000
  H   H4118     1.0  0.28656  0.53407  0.95012  1.0000
  H   H4119     1.0  0.37137  0.63301  0.90987  1.0000
  H   H4120     1.0  0.42394  0.61736  0.95365  1.0000
  H   H4121     1.0  0.25800  0.61521  0.96073  1.0000
  H   H4122     1.0  0.27587  0.69054  0.86846  1.0000
  H   H4123     1.0  0.30118  0.70958  0.85120  1.0000
  C   C2343     1.0  0.31694  0.66473  0.92080  1.0000
  C   C2344     1.0  0.42506  0.54332  0.88854  1.0000
  C   C2345     1.0  0.29687  0.63830  0.96978  1.0000
  H   H4124     1.0  0.46960  0.51083  0.97463  1.0000
  H   H4125     1.0  0.34094  0.53877  0.91164  1.0000
  H   H4126     1.0  0.48621  0.48761  0.88914  1.0000
  H   H4127     1.0  0.40442  0.51180  0.92946  1.0000
  C   C2346     1.0  0.39856  0.53629  0.90222  1.0000
  C   C2347     1.0  0.35038  0.64779  0.96535  1.0000
  H   H4128     1.0  0.28849  0.72047  0.88551  1.0000
  C   C2348     1.0  0.27119  0.60812  0.87784  1.0000
  H   H4129     1.0  0.35019  0.62003  0.96097  1.0000
  C   C2349     1.0  0.41480  0.61078  0.96100  1.0000
  C   C2350     1.0  0.38925  0.60375  0.96180  1.0000
  C   C2351     1.0  0.27428  0.67684  0.90326  1.0000
  C   C2352     1.0  0.38863  0.50847  0.95864  1.0000
  H   H4130     1.0  0.42050  0.59813  0.96375  1.0000
  H   H4131     1.0  0.34609  0.55746  0.90855  1.0000
  H   H4132     1.0  0.38635  0.60206  0.93315  1.0000
  C   C2353     1.0  0.38372  0.49739  0.91715  1.0000
  H   H4133     1.0  0.36677  0.52928  0.89453  1.0000
  C   C2354     1.0  0.37752  0.61173  0.93817  1.0000
  H   H4134     1.0  0.39658  0.53160  0.93129  1.0000
  H   H4135     1.0  0.37455  0.50841  0.94325  1.0000
  H   H4136     1.0  0.25909  0.53221  0.96104  1.0000
  H   H4137     1.0  0.42040  0.55543  0.89060  1.0000
  H   H4138     1.0  0.43782  0.54004  0.88856  1.0000
  S   S531      1.0  0.43227  0.50057  0.96156  1.0000
  C   C2355     1.0  0.24255  0.63274  0.88795  1.0000
  H   H4139     1.0  0.26356  0.70867  0.89432  1.0000
  C   C2356     1.0  0.27281  0.70501  0.90124  1.0000
  H   H4140     1.0  0.24956  0.68919  0.90868  1.0000
  H   H4141     1.0  0.37228  0.52719  0.94727  1.0000
  H   H4142     1.0  0.31389  0.61943  0.96050  1.0000
  H   H4143     1.0  0.35807  0.60540  0.93268  1.0000
  H   H4144     1.0  0.30016  0.65910  0.91188  1.0000
  H   H4145     1.0  0.43595  0.49278  0.90886  1.0000
  C   C2357     1.0  0.39249  0.51053  0.90730  1.0000
  H   H4146     1.0  0.28784  0.71764  0.90616  1.0000
  H   H4147     1.0  0.30218  0.69730  0.87936  1.0000
  H   H4148     1.0  0.47579  0.65400  0.97389  1.0000
  H   H4149     1.0  0.35133  0.56884  0.97755  1.0000
  H   H4150     1.0  0.39650  0.49700  0.95690  1.0000
  H   H4151     1.0  0.26819  0.59570  0.97961  1.0000
  H   H4152     1.0  0.27012  0.63243  0.86572  1.0000
  H   H4153     1.0  0.46941  0.64360  0.94707  1.0000
  H   H4154     1.0  0.24460  0.62177  0.89701  1.0000
  H   H4155     1.0  0.24353  0.61180  0.86119  1.0000
  H   H4156     1.0  0.46838  0.66343  0.94816  1.0000
  H   H4157     1.0  0.35370  0.62527  0.93515  1.0000
  H   H4158     1.0  0.25061  0.72923  0.79506  1.0000
  C   C2358     1.0  0.24203  0.64474  0.86042  1.0000
  H   H4159     1.0  0.24883  0.63657  0.93768  1.0000
  C   C2359     1.0  0.48021  0.51591  0.97140  1.0000
  H   H4160     1.0  0.47640  0.52875  0.96745  1.0000
  C   C2360     1.0  0.47944  0.62874  0.97516  1.0000
  H   H4161     1.0  0.35995  0.61596  0.97647  1.0000
  H   H4162     1.0  0.25490  0.63099  0.96970  1.0000
  H   H4163     1.0  0.24302  0.59888  0.89102  1.0000
  H   H4164     1.0  0.26159  0.50422  0.96952  1.0000
  H   H4165     1.0  0.38168  0.48923  0.89742  1.0000
  H   H4166     1.0  0.40982  0.61498  0.97213  1.0000
  H   H4167     1.0  0.24326  0.63434  0.84062  1.0000
  H   H4168     1.0  0.25994  0.72314  0.77664  1.0000
  H   H4169     1.0  0.45825  0.64809  0.97432  1.0000
  H   H4170     1.0  0.48500  0.51283  0.94755  1.0000
  H   H4171     1.0  0.48655  0.48488  0.90965  1.0000
  H   H4172     1.0  0.24318  0.65887  0.82011  1.0000
  H   H4173     1.0  0.37222  0.56049  0.97580  1.0000
  H   H4174     1.0  0.45031  0.62449  0.97697  1.0000
  H   H4175     1.0  0.25351  0.58064  0.97687  1.0000
  H   H4176     1.0  0.24427  0.65132  0.94916  1.0000
  C   C2361     1.0  0.24304  0.58933  0.97343  1.0000
  H   H4177     1.0  0.26847  0.53299  0.97602  1.0000
  H   H4178     1.0  0.34763  0.64459  0.97841  1.0000
  C   C2362     1.0  0.26316  0.50996  0.97817  1.0000
  C   C2363     1.0  0.38661  0.48451  0.90816  1.0000
  H   H4179     1.0  0.24823  0.48592  0.97892  1.0000
  H   H4180     1.0  0.26021  0.73383  0.90970  1.0000
  S   S532      1.0  0.37117  0.89521  0.45266  1.0000
  H   H4181     1.0  0.34562  0.77027  0.16814  1.0000
  Fe  Fe267     1.0  0.31193  0.89155  0.40657  1.0000
  S   S533      1.0  0.28889  0.90135  0.39868  1.0000
  S   S534      1.0  0.31189  0.88859  0.43228  1.0000
  Fe  Fe268     1.0  0.33082  0.89139  0.37309  1.0000
  S   S535      1.0  0.30947  0.90158  0.36281  1.0000
  S   S536      1.0  0.35418  0.88821  0.35602  1.0000
  Fe  Fe269     1.0  0.30235  0.91757  0.37962  1.0000
  S   S537      1.0  0.29290  0.94344  0.37047  1.0000
  Fe  Fe270     1.0  0.29817  0.88435  0.38250  1.0000
  S   S538      1.0  0.28693  0.86734  0.37723  1.0000
  S   S539      1.0  0.32472  0.90865  0.38839  1.0000
  S   S540      1.0  0.32020  0.87311  0.39202  1.0000
  Fe  Fe271     1.0  0.34967  0.88767  0.27724  1.0000
  S   S541      1.0  0.36346  0.88136  0.25429  1.0000
  S   S542      1.0  0.34238  0.86981  0.29895  1.0000
  Fe  Fe272     1.0  0.34350  0.92290  0.26336  1.0000
  S   S543      1.0  0.35627  0.91942  0.23924  1.0000
  S   S544      1.0  0.33174  0.94662  0.26926  1.0000
  Fe  Fe273     1.0  0.34406  0.89942  0.24425  1.0000
  S   S545      1.0  0.32930  0.89736  0.22854  1.0000
  Fe  Fe274     1.0  0.37439  0.90182  0.25168  1.0000
  S   S546      1.0  0.39984  0.90400  0.24232  1.0000
  S   S547      1.0  0.32975  0.90453  0.26747  1.0000
  S   S548      1.0  0.36211  0.90652  0.27555  1.0000
  C   C2364     1.0  0.34433  0.84415  0.27016  1.0000
  C   C2365     1.0  0.25169  0.87537  0.17923  1.0000
  H   H4182     1.0  0.33391  0.83002  0.34789  1.0000
  H   H4183     1.0  0.35698  0.94786  0.35049  1.0000
  H   H4184     1.0  0.26593  0.87601  0.28046  1.0000
  H   H4185     1.0  0.27113  0.93401  0.43145  1.0000
  Fe  Fe275     1.0  0.47045  0.89713  0.27922  1.0000
  Fe  Fe276     1.0  0.26615  0.76097  0.10429  1.0000
  N   N133      1.0  0.34411  0.79637  0.18260  1.0000
  H   H4186     1.0  0.26670  0.76549  0.00645  1.0000
  Fe  Fe277     1.0  0.36951  0.90452  0.47400  1.0000
  H   H4187     1.0  0.26155  0.84669  0.25721  1.0000
  H   H4188     1.0  0.38441  0.90745  0.37569  1.0000
  Fe  Fe278     1.0  0.27406  0.81602  0.22473  1.0000
  S   S549      1.0  0.29877  0.80686  0.21273  1.0000
  C   C2366     1.0  0.28626  0.74703  0.05616  1.0000
  Fe  Fe279     1.0  0.27151  0.84757  0.20244  1.0000
  S   S550      1.0  0.29606  0.84140  0.18825  1.0000
  H   H4189     1.0  0.24297  0.83754  0.16665  1.0000
  Fe  Fe280     1.0  0.29014  0.81820  0.19037  1.0000
  S   S551      1.0  0.29797  0.80756  0.16878  1.0000
  Fe  Fe281     1.0  0.30268  0.83068  0.21160  1.0000
  S   S552      1.0  0.32478  0.83260  0.21737  1.0000
  S   S553      1.0  0.26501  0.82546  0.20256  1.0000
  S   S554      1.0  0.27862  0.83874  0.22558  1.0000
  H   H4190     1.0  0.27690  0.84900  0.27228  1.0000
  H   H4191     1.0  0.28809  0.87622  0.24602  1.0000
  H   H4192     1.0  0.24971  0.82736  0.02677  1.0000
  C   C2367     1.0  0.28902  0.79318  0.16713  1.0000
  H   H4193     1.0  0.34332  0.96747  0.37366  1.0000
  H   H4194     1.0  0.45770  0.87665  0.45799  1.0000
  S   S555      1.0  0.26433  0.82349  0.30520  1.0000
  C   C2368     1.0  0.35383  0.79343  0.22304  1.0000
  H   H4195     1.0  0.42661  0.97872  0.46999  1.0000
  H   H4196     1.0  0.28672  0.83414  0.11633  1.0000
  S   S556      1.0  0.25959  0.80302  0.24590  1.0000
  H   H4197     1.0  0.49015  0.87361  0.46906  1.0000
  H   H4198     1.0  0.35117  0.97871  0.43211  1.0000
  H   H4199     1.0  0.25364  0.96158  0.14387  1.0000
  C   C2369     1.0  0.25736  0.78426  0.07079  1.0000
  H   H4200     1.0  0.43787  0.91099  0.30519  1.0000
  H   H4201     1.0  0.34220  0.79921  0.22930  1.0000
  H   H4202     1.0  0.27283  0.79477  0.05034  1.0000
  H   H4203     1.0  0.38139  0.97008  0.29639  1.0000
  C   C2370     1.0  0.29314  0.78805  0.15294  1.0000
  H   H4204     1.0  0.35059  0.81021  0.19493  1.0000
  H   H4205     1.0  0.30198  0.79264  0.14335  1.0000
  C   C2371     1.0  0.26146  0.80752  0.26279  1.0000
  C   C2372     1.0  0.27533  0.81114  0.26328  1.0000
  C   C2373     1.0  0.27642  0.81530  0.27668  1.0000
  C   C2374     1.0  0.26349  0.81636  0.28937  1.0000
  H   H4206     1.0  0.32332  0.91831  0.47009  1.0000
  H   H4207     1.0  0.29056  0.96928  0.46444  1.0000
  H   H4208     1.0  0.32264  0.84494  0.32024  1.0000
  C   C2375     1.0  0.31358  0.80826  0.29711  1.0000
  H   H4209     1.0  0.25938  0.82285  0.17262  1.0000
  H   H4210     1.0  0.25739  0.78053  0.01763  1.0000
  H   H4211     1.0  0.28944  0.86111  0.27264  1.0000
  H   H4212     1.0  0.26347  0.84662  0.05906  1.0000
  N   N134      1.0  0.27654  0.74048  0.04943  1.0000
  C   C2376     1.0  0.45692  0.87864  0.46975  1.0000
  C   C2377     1.0  0.46518  0.89567  0.22138  1.0000
  H   H4213     1.0  0.28509  0.91545  0.43075  1.0000
  H   H4214     1.0  0.30713  0.92973  0.42113  1.0000
  H   H4215     1.0  0.30522  0.91236  0.47223  1.0000
  C   C2378     1.0  0.27046  0.77601  0.17760  1.0000
  H   H4216     1.0  0.33436  0.80849  0.16194  1.0000
  H   H4217     1.0  0.33234  0.94543  0.45626  1.0000
  C   C2379     1.0  0.25799  0.80042  0.11215  1.0000
  C   C2380     1.0  0.26066  0.87150  0.15253  1.0000
  C   C2381     1.0  0.26240  0.86741  0.16811  1.0000
  H   H4218     1.0  0.36870  0.79777  0.17628  1.0000
  H   H4219     1.0  0.38243  0.77333  0.15327  1.0000
  H   H4220     1.0  0.32799  0.75470  0.18840  1.0000
  H   H4221     1.0  0.26906  0.86566  0.14384  1.0000
  H   H4222     1.0  0.27209  0.85820  0.17143  1.0000
  H   H4223     1.0  0.48399  0.91869  0.33403  1.0000
  H   H4224     1.0  0.36361  0.78091  0.20434  1.0000
  C   C2382     1.0  0.32576  0.85061  0.22065  1.0000
  C   C2383     1.0  0.31450  0.86437  0.21709  1.0000
  C   C2384     1.0  0.31572  0.87858  0.21963  1.0000
  C   C2385     1.0  0.32798  0.87911  0.22606  1.0000
  C   C2386     1.0  0.33905  0.86528  0.22992  1.0000
  C   C2387     1.0  0.33803  0.85113  0.22706  1.0000
  H   H4225     1.0  0.30501  0.86411  0.21215  1.0000
  H   H4226     1.0  0.30717  0.88924  0.21654  1.0000
  H   H4227     1.0  0.34859  0.86558  0.23477  1.0000
  H   H4228     1.0  0.34676  0.84054  0.22987  1.0000
  C   C2388     1.0  0.41208  0.90065  0.25561  1.0000
  C   C2389     1.0  0.41032  0.88959  0.26984  1.0000
  C   C2390     1.0  0.42147  0.88572  0.27923  1.0000
  C   C2391     1.0  0.43426  0.89311  0.27464  1.0000
  C   C2392     1.0  0.43563  0.90467  0.26076  1.0000
  C   C2393     1.0  0.42467  0.90830  0.25121  1.0000
  H   H4229     1.0  0.40073  0.88355  0.27328  1.0000
  C   C2394     1.0  0.29562  0.93531  0.42776  1.0000
  H   H4230     1.0  0.42606  0.91690  0.24023  1.0000
  C   C2395     1.0  0.34485  0.95894  0.26570  1.0000
  C   C2396     1.0  0.36028  0.95519  0.25717  1.0000
  C   C2397     1.0  0.37050  0.96533  0.25424  1.0000
  H   H4231     1.0  0.45548  0.89858  0.47965  1.0000
  Fe  Fe282     1.0  0.48293  0.92642  0.27502  1.0000
  C   C2398     1.0  0.24982  0.81225  0.28904  1.0000
  H   H4232     1.0  0.36438  0.94448  0.25280  1.0000
  H   H4233     1.0  0.38245  0.96233  0.24767  1.0000
  H   H4234     1.0  0.37242  0.96310  0.41547  1.0000
  C   C2399     1.0  0.29553  0.98269  0.38197  1.0000
  C   C2400     1.0  0.27105  0.87175  0.36778  1.0000
  C   C2401     1.0  0.26177  0.88692  0.36459  1.0000
  H   H4235     1.0  0.48089  0.90144  0.23271  1.0000
  H   H4236     1.0  0.28050  0.96975  0.16396  1.0000
  C   C2402     1.0  0.25514  0.86241  0.35589  1.0000
  C   C2403     1.0  0.26767  0.85955  0.36338  1.0000
  H   H4237     1.0  0.26419  0.89637  0.36804  1.0000
  H   H4238     1.0  0.45796  0.87554  0.20979  1.0000
  H   H4239     1.0  0.27058  0.90730  0.21162  1.0000
  H   H4240     1.0  0.27476  0.84778  0.36587  1.0000
  C   C2404     1.0  0.29780  0.95624  0.37892  1.0000
  C   C2405     1.0  0.29120  0.97241  0.37561  1.0000
  H   H4241     1.0  0.47784  0.87845  0.24668  1.0000
  H   H4242     1.0  0.38261  0.78884  0.13584  1.0000
  C   C2406     1.0  0.31348  0.96079  0.39436  1.0000
  C   C2407     1.0  0.30873  0.95052  0.38851  1.0000
  H   H4243     1.0  0.27153  0.97032  0.33557  1.0000
  S   S557      1.0  0.26479  0.75717  0.16168  1.0000
  H   H4244     1.0  0.32225  0.95622  0.40146  1.0000
  H   H4245     1.0  0.31363  0.93819  0.39143  1.0000
  C   C2408     1.0  0.35199  0.88126  0.34072  1.0000
  C   C2409     1.0  0.33912  0.87471  0.34264  1.0000
  C   C2410     1.0  0.33659  0.87058  0.32989  1.0000
  C   C2411     1.0  0.34679  0.87319  0.31518  1.0000
  C   C2412     1.0  0.36000  0.87916  0.31340  1.0000
  C   C2413     1.0  0.36264  0.88310  0.32621  1.0000
  H   H4246     1.0  0.33106  0.87286  0.35395  1.0000
  H   H4247     1.0  0.32656  0.86567  0.33139  1.0000
  H   H4248     1.0  0.36814  0.88079  0.30214  1.0000
  H   H4249     1.0  0.37257  0.88810  0.32474  1.0000
  C   C2414     1.0  0.35437  0.89389  0.44718  1.0000
  C   C2415     1.0  0.34057  0.89159  0.45831  1.0000
  C   C2416     1.0  0.32766  0.88992  0.45359  1.0000
  C   C2417     1.0  0.32835  0.89078  0.43771  1.0000
  C   C2418     1.0  0.34208  0.89329  0.42655  1.0000
  C   C2419     1.0  0.35507  0.89471  0.43131  1.0000
  H   H4250     1.0  0.31718  0.88770  0.46231  1.0000
  H   H4251     1.0  0.34284  0.89376  0.41433  1.0000
  H   H4252     1.0  0.36577  0.89631  0.42266  1.0000
  H   H4253     1.0  0.26884  0.89996  0.24034  1.0000
  H   H4254     1.0  0.34094  0.85697  0.26986  1.0000
  H   H4255     1.0  0.28718  0.96166  0.14659  1.0000
  C   C2420     1.0  0.24954  0.89791  0.27587  1.0000
  H   H4256     1.0  0.42035  0.87672  0.28992  1.0000
  H   H4257     1.0  0.37795  0.96175  0.43352  1.0000
  C   C2421     1.0  0.25115  0.81776  0.15440  1.0000
  C   C2422     1.0  0.47411  0.97903  0.33220  1.0000
  H   H4258     1.0  0.36205  0.96742  0.29769  1.0000
  H   H4259     1.0  0.27459  0.89108  0.26649  1.0000
  H   H4260     1.0  0.37112  0.96670  0.37269  1.0000
  H   H4261     1.0  0.45575  0.85767  0.27407  1.0000
  C   C2423     1.0  0.30042  0.84460  0.25798  1.0000
  H   H4262     1.0  0.35928  0.78361  0.23166  1.0000
  H   H4263     1.0  0.46005  0.92558  0.22746  1.0000
  C   C2424     1.0  0.27904  0.82518  0.06714  1.0000
  S   S558      1.0  0.47364  0.95107  0.27949  1.0000
  H   H4264     1.0  0.31203  0.75062  0.06512  1.0000
  H   H4265     1.0  0.48583  0.88816  0.19502  1.0000
  H   H4266     1.0  0.38868  0.98153  0.47657  1.0000
  C   C2425     1.0  0.47207  0.85596  0.25159  1.0000
  H   H4267     1.0  0.29447  0.75334  0.04664  1.0000
  H   H4268     1.0  0.29232  0.82702  0.32298  1.0000
  C   C2426     1.0  0.30705  0.96887  0.23788  1.0000
  H   H4269     1.0  0.43102  0.97386  0.24714  1.0000
  H   H4270     1.0  0.27918  0.93938  0.27508  1.0000
  H   H4271     1.0  0.25014  0.91849  0.11972  1.0000
  H   H4272     1.0  0.26416  0.83019  0.05097  1.0000
  C   C2427     1.0  0.29873  0.97102  0.45273  1.0000
  H   H4273     1.0  0.34424  0.77848  0.21553  1.0000
  H   H4274     1.0  0.36348  0.96970  0.34749  1.0000
  H   H4275     1.0  0.31065  0.96954  0.45458  1.0000
  H   H4276     1.0  0.34167  0.77263  0.19476  1.0000
  C   C2428     1.0  0.25103  0.90198  0.29063  1.0000
  H   H4277     1.0  0.42151  0.86222  0.33999  1.0000
  H   H4278     1.0  0.25632  0.96000  0.17130  1.0000
  C   C2429     1.0  0.33396  0.77668  0.17364  1.0000
  H   H4279     1.0  0.27946  0.82854  0.07789  1.0000
  H   H4280     1.0  0.28016  0.81226  0.06962  1.0000
  H   H4281     1.0  0.28922  0.82824  0.05771  1.0000
  H   H4282     1.0  0.25915  0.76225  0.04613  1.0000
  C   C2430     1.0  0.26313  0.81802  0.12649  1.0000
  H   H4283     1.0  0.42362  0.97818  0.30972  1.0000
  C   C2431     1.0  0.25940  0.88876  0.22779  1.0000
  C   C2432     1.0  0.27920  0.86880  0.25165  1.0000
  C   C2433     1.0  0.46847  0.85321  0.26950  1.0000
  H   H4284     1.0  0.32895  0.97516  0.23457  1.0000
  C   C2434     1.0  0.25041  0.81169  0.12325  1.0000
  H   H4285     1.0  0.36825  0.96204  0.32408  1.0000
  H   H4286     1.0  0.30448  0.83494  0.26745  1.0000
  H   H4287     1.0  0.32320  0.94045  0.42798  1.0000
  C   C2435     1.0  0.31902  0.79068  0.29744  1.0000
  H   H4288     1.0  0.36558  0.77880  0.17855  1.0000
  C   C2436     1.0  0.33342  0.94631  0.44360  1.0000
  H   H4289     1.0  0.35336  0.82419  0.16728  1.0000
  C   C2437     1.0  0.25994  0.89262  0.24324  1.0000
  N   N135      1.0  0.30516  0.94197  0.44922  1.0000
  H   H4290     1.0  0.45401  0.90029  0.22919  1.0000
  H   H4291     1.0  0.28544  0.96097  0.44355  1.0000
  H   H4292     1.0  0.29298  0.94799  0.42228  1.0000
  H   H4293     1.0  0.29302  0.85230  0.32779  1.0000
  H   H4294     1.0  0.35837  0.94518  0.43954  1.0000
  H   H4295     1.0  0.35357  0.92664  0.44219  1.0000
  H   H4296     1.0  0.46466  0.84983  0.24858  1.0000
  C   C2438     1.0  0.29676  0.73501  0.06695  1.0000
  C   C2439     1.0  0.33560  0.78306  0.18716  1.0000
  H   H4297     1.0  0.32678  0.92482  0.44397  1.0000
  H   H4298     1.0  0.31574  0.84020  0.28500  1.0000
  H   H4299     1.0  0.30828  0.96910  0.22528  1.0000
  C   C2440     1.0  0.26888  0.77349  0.01256  1.0000
  H   H4300     1.0  0.28379  0.93409  0.45237  1.0000
  H   H4301     1.0  0.24239  0.88120  0.06949  1.0000
  H   H4302     1.0  0.31822  0.81460  0.28510  1.0000
  C   C2441     1.0  0.35052  0.93933  0.43680  1.0000
  H   H4303     1.0  0.28882  0.75664  0.01979  1.0000
  H   H4304     1.0  0.46257  0.89924  0.20942  1.0000
  H   H4305     1.0  0.46267  0.85807  0.22372  1.0000
  H   H4306     1.0  0.26731  0.84822  0.32610  1.0000
  S   S559      1.0  0.39042  0.91424  0.47221  1.0000
  H   H4307     1.0  0.33831  0.84156  0.26232  1.0000
  C   C2442     1.0  0.32213  0.93774  0.44091  1.0000
  H   H4308     1.0  0.45785  0.97796  0.25989  1.0000
  H   H4309     1.0  0.35567  0.79004  0.15183  1.0000
  C   C2443     1.0  0.34001  0.83473  0.28697  1.0000
  H   H4310     1.0  0.30055  0.81101  0.29945  1.0000
  H   H4311     1.0  0.35260  0.94089  0.42385  1.0000
  C   C2444     1.0  0.26148  0.79164  0.05497  1.0000
  H   H4312     1.0  0.25311  0.86037  0.24170  1.0000
  S   S560      1.0  0.24504  0.88679  0.12905  1.0000
  H   H4313     1.0  0.30322  0.85022  0.11924  1.0000
  C   C2445     1.0  0.33427  0.96439  0.34787  1.0000
  C   C2446     1.0  0.34636  0.94881  0.34623  1.0000
  H   H4314     1.0  0.27844  0.75595  0.06286  1.0000
  H   H4315     1.0  0.25041  0.83138  0.08592  1.0000
  H   H4316     1.0  0.41843  0.86989  0.23357  1.0000
  H   H4317     1.0  0.33756  0.84946  0.15481  1.0000
  C   C2447     1.0  0.33930  0.93477  0.35584  1.0000
  C   C2448     1.0  0.34799  0.97816  0.36749  1.0000
  H   H4318     1.0  0.29022  0.95237  0.27685  1.0000
  N   N136      1.0  0.26325  0.87894  0.25673  1.0000
  H   H4319     1.0  0.45488  0.92823  0.45550  1.0000
  C   C2449     1.0  0.45981  0.89518  0.46806  1.0000
  H   H4320     1.0  0.30037  0.93410  0.27085  1.0000
  H   H4321     1.0  0.41246  0.97662  0.29673  1.0000
  H   H4322     1.0  0.48302  0.95535  0.31443  1.0000
  H   H4323     1.0  0.32821  0.96368  0.36042  1.0000
  H   H4324     1.0  0.32494  0.96464  0.34195  1.0000
  S   S561      1.0  0.28520  0.74868  0.11767  1.0000
  H   H4325     1.0  0.34981  0.94779  0.33377  1.0000
  H   H4326     1.0  0.24828  0.90038  0.24665  1.0000
  H   H4327     1.0  0.32186  0.76085  0.16990  1.0000
  H   H4328     1.0  0.48810  0.90262  0.21202  1.0000
  C   C2450     1.0  0.31039  0.92101  0.47452  1.0000
  H   H4329     1.0  0.26958  0.87961  0.22386  1.0000
  S   S562      1.0  0.35189  0.92624  0.47933  1.0000
  C   C2451     1.0  0.48621  0.87169  0.21815  1.0000
  H   H4330     1.0  0.32837  0.93500  0.35238  1.0000
  H   H4331     1.0  0.34786  0.92367  0.35406  1.0000
  H   H4332     1.0  0.33658  0.93495  0.36849  1.0000
  H   H4333     1.0  0.48056  0.97484  0.45337  1.0000
  H   H4334     1.0  0.30495  0.83140  0.13286  1.0000
  C   C2452     1.0  0.46902  0.87378  0.24392  1.0000
  H   H4335     1.0  0.43132  0.88674  0.47500  1.0000
  H   H4336     1.0  0.44086  0.97586  0.28385  1.0000
  C   C2453     1.0  0.29687  0.84291  0.12972  1.0000
  H   H4337     1.0  0.33207  0.78721  0.29456  1.0000
  H   H4338     1.0  0.29664  0.86095  0.30703  1.0000
  C   C2454     1.0  0.25020  0.86997  0.26258  1.0000
  N   N137      1.0  0.34054  0.97918  0.34137  1.0000
  C   C2455     1.0  0.30684  0.97684  0.39121  1.0000
  C   C2456     1.0  0.29816  0.95921  0.44341  1.0000
  H   H4339     1.0  0.28130  0.77253  0.02997  1.0000
  H   H4340     1.0  0.32227  0.81286  0.17968  1.0000
  C   C2457     1.0  0.44117  0.87440  0.23188  1.0000
  H   H4341     1.0  0.32357  0.78664  0.19428  1.0000
  H   H4342     1.0  0.48403  0.98303  0.43250  1.0000
  C   C2458     1.0  0.43065  0.86723  0.22656  1.0000
  H   H4343     1.0  0.30126  0.91949  0.44870  1.0000
  H   H4344     1.0  0.46728  0.92671  0.20651  1.0000
  C   C2459     1.0  0.28302  0.92828  0.42568  1.0000
  C   C2460     1.0  0.34035  0.82614  0.16996  1.0000
  C   C2461     1.0  0.28580  0.85583  0.26489  1.0000
  S   S563      1.0  0.47528  0.91682  0.25858  1.0000
  H   H4345     1.0  0.43621  0.88722  0.23010  1.0000
  H   H4346     1.0  0.44034  0.86945  0.24465  1.0000
  H   H4347     1.0  0.47209  0.89953  0.43807  1.0000
  C   C2462     1.0  0.27436  0.77105  0.16335  1.0000
  H   H4348     1.0  0.47443  0.97625  0.34483  1.0000
  H   H4349     1.0  0.29362  0.84890  0.13968  1.0000
  H   H4350     1.0  0.25799  0.74245  0.07017  1.0000
  H   H4351     1.0  0.43483  0.85427  0.22839  1.0000
  C   C2463     1.0  0.49057  0.94899  0.32311  1.0000
  H   H4352     1.0  0.43043  0.87233  0.21396  1.0000
  H   H4353     1.0  0.27441  0.79091  0.19046  1.0000
  C   C2464     1.0  0.26014  0.95045  0.15027  1.0000
  H   H4354     1.0  0.24929  0.86434  0.27525  1.0000
  H   H4355     1.0  0.36151  0.80209  0.21824  1.0000
  C   C2465     1.0  0.25783  0.92331  0.16560  1.0000
  C   C2466     1.0  0.27352  0.91455  0.15677  1.0000
  C   C2467     1.0  0.26619  0.95465  0.16269  1.0000
  C   C2468     1.0  0.36392  0.79436  0.15573  1.0000
  C   C2469     1.0  0.25665  0.93643  0.12687  1.0000
  H   H4356     1.0  0.35777  0.97715  0.38712  1.0000
  C   C2470     1.0  0.28199  0.90133  0.16817  1.0000
  C   C2471     1.0  0.27659  0.96662  0.15485  1.0000
  H   H4357     1.0  0.26157  0.90701  0.28813  1.0000
  H   H4358     1.0  0.31444  0.78787  0.28859  1.0000
  H   H4359     1.0  0.27071  0.94661  0.14142  1.0000
  Fe  Fe283     1.0  0.26568  0.74999  0.13920  1.0000
  H   H4360     1.0  0.27279  0.80776  0.12949  1.0000
  C   C2472     1.0  0.33968  0.97283  0.27131  1.0000
  H   H4361     1.0  0.24873  0.79650  0.10934  1.0000
  H   H4362     1.0  0.25975  0.92513  0.17651  1.0000
  H   H4363     1.0  0.24834  0.90904  0.26686  1.0000
  H   H4364     1.0  0.28171  0.92242  0.15033  1.0000
  H   H4365     1.0  0.27110  0.90906  0.14838  1.0000
  C   C2473     1.0  0.24933  0.82968  0.07462  1.0000
  H   H4366     1.0  0.27333  0.94409  0.16907  1.0000
  H   H4367     1.0  0.36257  0.80710  0.15039  1.0000
  H   H4368     1.0  0.24510  0.97463  0.08980  1.0000
  H   H4369     1.0  0.28339  0.93021  0.41295  1.0000
  H   H4370     1.0  0.26841  0.92908  0.12799  1.0000
  H   H4371     1.0  0.47329  0.91609  0.47248  1.0000
  C   C2474     1.0  0.46762  0.92687  0.44994  1.0000
  H   H4372     1.0  0.31121  0.77073  0.18561  1.0000
  H   H4373     1.0  0.27432  0.89302  0.17509  1.0000
  H   H4374     1.0  0.29277  0.89470  0.16149  1.0000
  H   H4375     1.0  0.28546  0.90619  0.17638  1.0000
  H   H4376     1.0  0.26980  0.83800  0.15006  1.0000
  C   C2475     1.0  0.36189  0.97746  0.37431  1.0000
  C   C2476     1.0  0.32139  0.83254  0.32269  1.0000
  H   H4377     1.0  0.25010  0.84753  0.12117  1.0000
  C   C2477     1.0  0.48140  0.89347  0.44489  1.0000
  H   H4378     1.0  0.28264  0.97693  0.36828  1.0000
  N   N138      1.0  0.30465  0.92496  0.31800  1.0000
  C   C2478     1.0  0.29062  0.93278  0.32886  1.0000
  C   C2479     1.0  0.30594  0.90734  0.32192  1.0000
  C   C2480     1.0  0.31919  0.92799  0.32068  1.0000
  C   C2481     1.0  0.30411  0.93167  0.30091  1.0000
  C   C2482     1.0  0.28926  0.93144  0.29582  1.0000
  C   C2483     1.0  0.28848  0.95073  0.32698  1.0000
  C   C2484     1.0  0.33514  0.91975  0.31161  1.0000
  C   C2485     1.0  0.29039  0.90138  0.32860  1.0000
  C   C2486     1.0  0.29341  0.88366  0.33030  1.0000
  S   S564      1.0  0.24700  0.76379  0.12572  1.0000
  C   C2487     1.0  0.27243  0.95769  0.33633  1.0000
  C   C2488     1.0  0.34894  0.92264  0.31616  1.0000
  H   H4379     1.0  0.29136  0.92726  0.34135  1.0000
  H   H4380     1.0  0.27949  0.93081  0.32768  1.0000
  H   H4381     1.0  0.31254  0.90223  0.31148  1.0000
  H   H4382     1.0  0.31311  0.90140  0.33095  1.0000
  H   H4383     1.0  0.31932  0.92437  0.33345  1.0000
  H   H4384     1.0  0.31918  0.94075  0.31716  1.0000
  H   H4385     1.0  0.30590  0.94392  0.29730  1.0000
  H   H4386     1.0  0.31411  0.92505  0.29335  1.0000
  H   H4387     1.0  0.27837  0.93740  0.30293  1.0000
  H   H4388     1.0  0.28868  0.91916  0.29678  1.0000
  H   H4389     1.0  0.29757  0.95311  0.33156  1.0000
  H   H4390     1.0  0.28928  0.95705  0.31453  1.0000
  H   H4391     1.0  0.33645  0.92432  0.29877  1.0000
  H   H4392     1.0  0.33622  0.90690  0.31408  1.0000
  H   H4393     1.0  0.28488  0.90380  0.34050  1.0000
  H   H4394     1.0  0.28176  0.90705  0.32106  1.0000
  H   H4395     1.0  0.28201  0.88005  0.33337  1.0000
  H   H4396     1.0  0.30043  0.88020  0.31917  1.0000
  H   H4397     1.0  0.29974  0.87744  0.33994  1.0000
  S   S565      1.0  0.26104  0.73894  0.10230  1.0000
  C   C2489     1.0  0.24916  0.88976  0.35717  1.0000
  H   H4398     1.0  0.26282  0.95661  0.33154  1.0000
  C   C2490     1.0  0.25937  0.90334  0.21436  1.0000
  H   H4399     1.0  0.26996  0.97753  0.14831  1.0000
  H   H4400     1.0  0.25798  0.94871  0.12150  1.0000
  H   H4401     1.0  0.34838  0.91807  0.32895  1.0000
  H   H4402     1.0  0.36008  0.91630  0.30974  1.0000
  H   H4403     1.0  0.34893  0.93537  0.31295  1.0000
  N   N139      1.0  0.40494  0.91004  0.32100  1.0000
  C   C2491     1.0  0.41532  0.92114  0.31935  1.0000
  C   C2492     1.0  0.39125  0.91221  0.33478  1.0000
  C   C2493     1.0  0.41469  0.89349  0.32346  1.0000
  C   C2494     1.0  0.39856  0.91332  0.30642  1.0000
  C   C2495     1.0  0.39042  0.93065  0.30057  1.0000
  C   C2496     1.0  0.42885  0.92213  0.30442  1.0000
  C   C2497     1.0  0.40578  0.88023  0.32651  1.0000
  C   C2498     1.0  0.39540  0.90694  0.35124  1.0000
  C   C2499     1.0  0.38105  0.91130  0.36409  1.0000
  C   C2500     1.0  0.38594  0.93285  0.28492  1.0000
  C   C2501     1.0  0.43702  0.93533  0.30277  1.0000
  C   C2502     1.0  0.41681  0.86408  0.32936  1.0000
  H   H4404     1.0  0.42118  0.91762  0.32945  1.0000
  H   H4405     1.0  0.40816  0.93319  0.31989  1.0000
  H   H4406     1.0  0.38508  0.92478  0.33340  1.0000
  H   H4407     1.0  0.38218  0.90589  0.33508  1.0000
  H   H4408     1.0  0.42082  0.89113  0.33324  1.0000
  H   H4409     1.0  0.42428  0.89198  0.31294  1.0000
  H   H4410     1.0  0.40799  0.90942  0.29657  1.0000
  H   H4411     1.0  0.38971  0.90619  0.30837  1.0000
  H   H4412     1.0  0.39819  0.93885  0.29858  1.0000
  H   H4413     1.0  0.37953  0.93422  0.30924  1.0000
  H   H4414     1.0  0.42466  0.92438  0.29345  1.0000
  H   H4415     1.0  0.40105  0.88114  0.31616  1.0000
  H   H4416     1.0  0.39592  0.88063  0.33696  1.0000
  H   H4417     1.0  0.39971  0.89401  0.35428  1.0000
  H   H4418     1.0  0.40459  0.91260  0.35173  1.0000
  H   H4419     1.0  0.32898  0.78611  0.16450  1.0000
  H   H4420     1.0  0.37637  0.92420  0.36189  1.0000
  H   H4421     1.0  0.30860  0.94557  0.47073  1.0000
  H   H4422     1.0  0.38000  0.94527  0.28116  1.0000
  H   H4423     1.0  0.39657  0.92996  0.27567  1.0000
  H   H4424     1.0  0.37777  0.92528  0.28605  1.0000
  H   H4425     1.0  0.44249  0.93318  0.31295  1.0000
  H   H4426     1.0  0.44644  0.93580  0.29190  1.0000
  H   H4427     1.0  0.42677  0.86293  0.31904  1.0000
  H   H4428     1.0  0.41025  0.85479  0.33123  1.0000
  H   H4429     1.0  0.35723  0.84100  0.26558  1.0000
  H   H4430     1.0  0.26865  0.86857  0.32000  1.0000
  C   C2503     1.0  0.34685  0.98138  0.32375  1.0000
  H   H4431     1.0  0.46947  0.92456  0.43811  1.0000
  H   H4432     1.0  0.29546  0.75080  0.08176  1.0000
  H   H4433     1.0  0.26497  0.80619  0.10101  1.0000
  H   H4434     1.0  0.25087  0.81678  0.07628  1.0000
  H   H4435     1.0  0.31428  0.80603  0.32134  1.0000
  H   H4436     1.0  0.33958  0.83390  0.14511  1.0000
  H   H4437     1.0  0.31493  0.97902  0.25229  1.0000
  C   C2504     1.0  0.25104  0.93096  0.11529  1.0000
  C   C2505     1.0  0.44080  0.96955  0.25342  1.0000
  C   C2506     1.0  0.45201  0.95585  0.24665  1.0000
  H   H4438     1.0  0.25193  0.89141  0.30036  1.0000
  H   H4439     1.0  0.31443  0.78374  0.30921  1.0000
  H   H4440     1.0  0.45176  0.90349  0.46065  1.0000
  C   C2507     1.0  0.26417  0.88559  0.26996  1.0000
  H   H4441     1.0  0.27501  0.85220  0.12182  1.0000
  H   H4442     1.0  0.25456  0.79979  0.03270  1.0000
  Fe  Fe284     1.0  0.37263  0.93484  0.47955  1.0000
  H   H4443     1.0  0.31889  0.97409  0.47678  1.0000
  H   H4444     1.0  0.48300  0.86903  0.19594  1.0000
  H   H4445     1.0  0.24191  0.90147  0.35491  1.0000
  C   C2508     1.0  0.38064  0.78627  0.14887  1.0000
  H   H4446     1.0  0.37167  0.90533  0.36472  1.0000
  H   H4447     1.0  0.29788  0.83932  0.24950  1.0000
  C   C2509     1.0  0.27348  0.85684  0.31701  1.0000
  S   S566      1.0  0.44848  0.88721  0.28631  1.0000
  C   C2510     1.0  0.27268  0.83114  0.14082  1.0000
  H   H4448     1.0  0.32777  0.97571  0.27798  1.0000
  H   H4449     1.0  0.48987  0.91479  0.45688  1.0000
  H   H4450     1.0  0.44586  0.94613  0.24899  1.0000
  H   H4451     1.0  0.45613  0.95959  0.23374  1.0000
  H   H4452     1.0  0.46236  0.95138  0.25216  1.0000
  H   H4453     1.0  0.31005  0.85095  0.25201  1.0000
  C   C2511     1.0  0.36089  0.79149  0.17393  1.0000
  C   C2512     1.0  0.36539  0.97917  0.25995  1.0000
  S   S567      1.0  0.27070  0.78022  0.08287  1.0000
  H   H4454     1.0  0.34003  0.89063  0.47061  1.0000
  C   C2513     1.0  0.36860  0.97474  0.30033  1.0000
  H   H4455     1.0  0.46686  0.97180  0.33055  1.0000
  C   C2514     1.0  0.32222  0.83970  0.29394  1.0000
  C   C2515     1.0  0.33430  0.83814  0.15620  1.0000
  H   H4456     1.0  0.24646  0.84836  0.03927  1.0000
  H   H4457     1.0  0.25010  0.91474  0.16982  1.0000
  H   H4458     1.0  0.26173  0.77128  0.18725  1.0000
  C   C2516     1.0  0.35186  0.78710  0.20987  1.0000
  H   H4459     1.0  0.46465  0.95196  0.44017  1.0000
  C   C2517     1.0  0.47742  0.91352  0.46053  1.0000
  H   H4460     1.0  0.47148  0.84043  0.27468  1.0000
  C   C2518     1.0  0.47197  0.94262  0.44761  1.0000
  S   S568      1.0  0.47631  0.90761  0.29600  1.0000
  H   H4461     1.0  0.33092  0.95888  0.43757  1.0000
  H   H4462     1.0  0.33572  0.83141  0.18051  1.0000
  H   H4463     1.0  0.34736  0.83846  0.33082  1.0000
  H   H4464     1.0  0.32129  0.84022  0.15833  1.0000
  C   C2519     1.0  0.27792  0.76406  0.02538  1.0000
  H   H4465     1.0  0.38942  0.79063  0.15204  1.0000
  C   C2520     1.0  0.26772  0.75408  0.03900  1.0000
  H   H4466     1.0  0.25912  0.80598  0.15664  1.0000
  H   H4467     1.0  0.29441  0.97233  0.24343  1.0000
  H   H4468     1.0  0.38618  0.97415  0.41547  1.0000
  H   H4469     1.0  0.25257  0.85286  0.35277  1.0000
  H   H4470     1.0  0.25822  0.90047  0.20364  1.0000
  N   N140      1.0  0.24983  0.93855  0.15638  1.0000
  C   C2521     1.0  0.28572  0.77716  0.15098  1.0000
  H   H4471     1.0  0.24934  0.91304  0.21748  1.0000
  C   C2522     1.0  0.24276  0.78009  0.07672  1.0000
  H   H4472     1.0  0.42857  0.94687  0.30180  1.0000
  C   C2523     1.0  0.36460  0.97436  0.31793  1.0000
  N   N141      1.0  0.31564  0.82995  0.30960  1.0000
  H   H4473     1.0  0.28078  0.82002  0.14490  1.0000
  C   C2524     1.0  0.47057  0.92258  0.21814  1.0000
  C   C2525     1.0  0.29792  0.83534  0.31280  1.0000
  C   C2526     1.0  0.26372  0.83388  0.06180  1.0000
  H   H4474     1.0  0.24201  0.80384  0.18601  1.0000
  H   H4475     1.0  0.27116  0.85745  0.30544  1.0000
  H   H4476     1.0  0.28891  0.77334  0.14000  1.0000
  C   C2527     1.0  0.45843  0.87100  0.22243  1.0000
  H   H4477     1.0  0.33205  0.80526  0.20365  1.0000
  C   C2528     1.0  0.34424  0.80055  0.19760  1.0000
  C   C2529     1.0  0.30452  0.74328  0.07434  1.0000
  H   H4478     1.0  0.34694  0.83723  0.29398  1.0000
  C   C2530     1.0  0.33479  0.81058  0.17329  1.0000
  C   C2531     1.0  0.27766  0.78710  0.17947  1.0000
  H   H4479     1.0  0.34361  0.82214  0.28649  1.0000
  H   H4480     1.0  0.32027  0.85214  0.29471  1.0000
  C   C2532     1.0  0.28229  0.84051  0.12604  1.0000
  C   C2533     1.0  0.29613  0.93227  0.44536  1.0000
  H   H4481     1.0  0.45753  0.87959  0.25035  1.0000
  C   C2534     1.0  0.24809  0.82473  0.16908  1.0000
  H   H4482     1.0  0.31197  0.73436  0.08197  1.0000
  H   H4483     1.0  0.48232  0.94602  0.33460  1.0000
  N   N142      1.0  0.46973  0.87801  0.22645  1.0000
  H   H4484     1.0  0.31251  0.83092  0.33399  1.0000
  H   H4485     1.0  0.35327  0.81865  0.34134  1.0000
  C   C2535     1.0  0.33691  0.82148  0.32668  1.0000
  C   C2536     1.0  0.31942  0.81267  0.30955  1.0000
  C   C2537     1.0  0.34317  0.82756  0.33736  1.0000
  H   H4486     1.0  0.28525  0.81065  0.25337  1.0000
  H   H4487     1.0  0.29334  0.83527  0.30261  1.0000
  C   C2538     1.0  0.29115  0.85201  0.31628  1.0000
  H   H4488     1.0  0.26586  0.78987  0.11776  1.0000
  H   H4489     1.0  0.28714  0.81799  0.27708  1.0000
  H   H4490     1.0  0.30381  0.96331  0.43085  1.0000
  C   C2539     1.0  0.32311  0.76502  0.17983  1.0000
  H   H4491     1.0  0.27586  0.78162  0.00376  1.0000
  H   H4492     1.0  0.33225  0.80769  0.30775  1.0000
  H   H4493     1.0  0.31165  0.95663  0.24384  1.0000
  H   H4494     1.0  0.33467  0.80965  0.33301  1.0000
  H   H4495     1.0  0.34632  0.82003  0.31610  1.0000
  H   H4496     1.0  0.44535  0.91052  0.25716  1.0000
  H   H4497     1.0  0.27918  0.86296  0.24243  1.0000
  S   S569      1.0  0.25389  0.87042  0.19869  1.0000
  C   C2540     1.0  0.25149  0.85646  0.25459  1.0000
  H   H4498     1.0  0.47806  0.92825  0.31552  1.0000
  H   H4499     1.0  0.48456  0.94202  0.44169  1.0000
  H   H4500     1.0  0.37187  0.98141  0.31993  1.0000
  H   H4501     1.0  0.24837  0.88487  0.22939  1.0000
  C   C2541     1.0  0.48093  0.97811  0.28022  1.0000
  H   H4502     1.0  0.27087  0.95156  0.34892  1.0000
  C   C2542     1.0  0.28982  0.93986  0.27860  1.0000
  C   C2543     1.0  0.24470  0.93583  0.14297  1.0000
  N   N143      1.0  0.25800  0.82762  0.13895  1.0000
  C   C2544     1.0  0.30320  0.93810  0.46689  1.0000
  H   H4503     1.0  0.26803  0.82503  0.11491  1.0000
  C   C2545     1.0  0.49104  0.97619  0.32178  1.0000
  C   C2546     1.0  0.24679  0.84291  0.13409  1.0000
  C   C2547     1.0  0.24881  0.80784  0.27576  1.0000
  C   C2548     1.0  0.48946  0.87543  0.19995  1.0000
  S   S570      1.0  0.37643  0.95920  0.46896  1.0000
  N   N144      1.0  0.47654  0.89700  0.46110  1.0000
  C   C2549     1.0  0.48676  0.96344  0.27610  1.0000
  H   H4504     1.0  0.25953  0.93205  0.10377  1.0000
  H   H4505     1.0  0.43583  0.96487  0.26597  1.0000
  C   C2550     1.0  0.47733  0.90487  0.22130  1.0000
  C   C2551     1.0  0.24785  0.88298  0.14819  1.0000
  H   H4506     1.0  0.48462  0.85034  0.24774  1.0000
  C   C2552     1.0  0.31638  0.97981  0.23956  1.0000
  H   H4507     1.0  0.26051  0.74985  0.03357  1.0000
  C   C2553     1.0  0.35303  0.97930  0.34946  1.0000
  C   C2554     1.0  0.24581  0.87752  0.35278  1.0000
  H   H4508     1.0  0.48251  0.88073  0.44578  1.0000
  C   C2555     1.0  0.25113  0.79454  0.04502  1.0000
  H   H4509     1.0  0.46866  0.98148  0.28569  1.0000
  H   H4510     1.0  0.33988  0.97668  0.31843  1.0000
  C   C2556     1.0  0.37543  0.96981  0.42236  1.0000
  H   H4511     1.0  0.46980  0.94587  0.45908  1.0000
  H   H4512     1.0  0.24383  0.80510  0.13409  1.0000
  C   C2557     1.0  0.44946  0.98268  0.25190  1.0000
  H   H4513     1.0  0.34376  0.97601  0.45816  1.0000
  H   H4514     1.0  0.24213  0.82151  0.11736  1.0000
  H   H4515     1.0  0.29045  0.94072  0.47259  1.0000
  Fe  Fe285     1.0  0.24370  0.74035  0.12517  1.0000
  H   H4516     1.0  0.24788  0.85215  0.13943  1.0000
  H   H4517     1.0  0.47545  0.85921  0.27333  1.0000
  H   H4518     1.0  0.47957  0.92879  0.21813  1.0000
  C   C2558     1.0  0.48770  0.88575  0.47095  1.0000
  C   C2559     1.0  0.48826  0.92242  0.32114  1.0000
  C   C2560     1.0  0.34990  0.98296  0.26840  1.0000
  H   H4519     1.0  0.46561  0.86915  0.47540  1.0000
  S   S571      1.0  0.24303  0.98357  0.11824  1.0000
  H   H4520     1.0  0.48996  0.98051  0.30928  1.0000
  H   H4521     1.0  0.48938  0.85868  0.22186  1.0000
  C   C2561     1.0  0.36171  0.98354  0.42578  1.0000
  H   H4522     1.0  0.43824  0.86571  0.47952  1.0000
  C   C2562     1.0  0.44058  0.87706  0.47965  1.0000
  H   H4523     1.0  0.44367  0.98355  0.45556  1.0000
  Fe  Fe286     1.0  0.24508  0.84713  0.78028  1.0000
  S   S572      1.0  0.45617  0.93929  0.49266  1.0000
  C   C2563     1.0  0.35271  0.97216  0.50966  1.0000
  C   C2564     1.0  0.33229  0.98217  0.57615  1.0000
  C   C2565     1.0  0.28922  0.97768  0.73850  1.0000
  S   S573      1.0  0.37150  0.92545  0.50528  1.0000
  H   H4524     1.0  0.38858  0.94323  0.75348  1.0000
  H   H4525     1.0  0.40351  0.92598  0.53675  1.0000
  C   C2566     1.0  0.29146  0.94670  0.70018  1.0000
  H   H4526     1.0  0.30614  0.86771  0.78485  1.0000
  Fe  Fe287     1.0  0.35215  0.91483  0.50475  1.0000
  S   S574      1.0  0.32838  0.91918  0.52141  1.0000
  H   H4527     1.0  0.37796  0.88031  0.57077  1.0000
  H   H4528     1.0  0.37816  0.90744  0.57152  1.0000
  Fe  Fe288     1.0  0.29834  0.91230  0.61210  1.0000
  S   S575      1.0  0.27462  0.92668  0.60782  1.0000
  S   S576      1.0  0.31960  0.90089  0.59575  1.0000
  Fe  Fe289     1.0  0.29078  0.91566  0.64594  1.0000
  S   S577      1.0  0.26668  0.93004  0.64446  1.0000
  S   S578      1.0  0.29727  0.91008  0.66942  1.0000
  Fe  Fe290     1.0  0.26490  0.91276  0.63173  1.0000
  H   H4529     1.0  0.27529  0.79323  0.73260  1.0000
  Fe  Fe291     1.0  0.27826  0.94260  0.62113  1.0000
  S   S579      1.0  0.28833  0.89727  0.63515  1.0000
  S   S580      1.0  0.30263  0.92942  0.62344  1.0000
  Fe  Fe292     1.0  0.36852  0.92667  0.72543  1.0000
  S   S581      1.0  0.34619  0.94156  0.73661  1.0000
  S   S582      1.0  0.38737  0.91504  0.73967  1.0000
  Fe  Fe293     1.0  0.35684  0.93154  0.69576  1.0000
  S   S583      1.0  0.33421  0.94738  0.70426  1.0000
  S   S584      1.0  0.35983  0.92646  0.67212  1.0000
  Fe  Fe294     1.0  0.34866  0.95806  0.71297  1.0000
  Fe  Fe295     1.0  0.33360  0.92950  0.72691  1.0000
  S   S585      1.0  0.30977  0.92410  0.73964  1.0000
  S   S586      1.0  0.37164  0.94395  0.70224  1.0000
  S   S587      1.0  0.35561  0.91288  0.71796  1.0000
  C   C2567     1.0  0.48240  0.88475  0.48894  1.0000
  C   C2568     1.0  0.37851  0.97910  0.48567  1.0000
  S   S588      1.0  0.45210  0.93778  0.71700  1.0000
  H   H4530     1.0  0.29783  0.82343  0.69386  1.0000
  H   H4531     1.0  0.28267  0.86582  0.61590  1.0000
  C   C2569     1.0  0.31571  0.86031  0.79087  1.0000
  H   H4532     1.0  0.25717  0.77550  0.73610  1.0000
  C   C2570     1.0  0.39760  0.93544  0.56550  1.0000
  C   C2571     1.0  0.31867  0.96786  0.66742  1.0000
  C   C2572     1.0  0.43561  0.90160  0.51137  1.0000
  C   C2573     1.0  0.27852  0.97595  0.65513  1.0000
  H   H4533     1.0  0.32069  0.95776  0.57862  1.0000
  C   C2574     1.0  0.33315  0.87961  0.77556  1.0000
  H   H4534     1.0  0.35614  0.86238  0.75744  1.0000
  N   N145      1.0  0.26689  0.84988  0.66373  1.0000
  C   C2575     1.0  0.29788  0.95645  0.57740  1.0000
  C   C2576     1.0  0.28454  0.96287  0.70416  1.0000
  H   H4535     1.0  0.42997  0.94071  0.48047  1.0000
  Fe  Fe296     1.0  0.26636  0.81685  0.77253  1.0000
  S   S589      1.0  0.27873  0.82938  0.74937  1.0000
  S   S590      1.0  0.27384  0.79055  0.78027  1.0000
  C   C2577     1.0  0.35065  0.98193  0.73633  1.0000
  S   S591      1.0  0.25586  0.86237  0.75802  1.0000
  H   H4536     1.0  0.39721  0.93878  0.77031  1.0000
  Fe  Fe297     1.0  0.25487  0.84376  0.74663  1.0000
  H   H4537     1.0  0.24230  0.87576  0.67609  1.0000
  Fe  Fe298     1.0  0.27891  0.84686  0.76263  1.0000
  S   S592      1.0  0.30241  0.85366  0.75702  1.0000
  H   H4538     1.0  0.24771  0.75696  0.77919  1.0000
  S   S593      1.0  0.26824  0.83321  0.78614  1.0000
  H   H4539     1.0  0.30186  0.95817  0.71800  1.0000
  C   C2578     1.0  0.48202  0.94005  0.80582  1.0000
  H   H4540     1.0  0.35886  0.90357  0.75618  1.0000
  N   N146      1.0  0.40787  0.98322  0.72948  1.0000
  H   H4541     1.0  0.27325  0.83709  0.64501  1.0000
  C   C2579     1.0  0.38103  0.93697  0.56270  1.0000
  C   C2580     1.0  0.37636  0.87001  0.72944  1.0000
  C   C2581     1.0  0.35236  0.94622  0.55144  1.0000
  H   H4542     1.0  0.38762  0.87322  0.55303  1.0000
  C   C2582     1.0  0.42289  0.90585  0.50390  1.0000
  H   H4543     1.0  0.24313  0.78463  0.76833  1.0000
  H   H4544     1.0  0.24243  0.85643  0.66287  1.0000
  N   N147      1.0  0.28581  0.97984  0.72255  1.0000
  C   C2583     1.0  0.27416  0.83604  0.69080  1.0000
  H   H4545     1.0  0.33358  0.97880  0.56482  1.0000
  H   H4546     1.0  0.31225  0.92722  0.49543  1.0000
  H   H4547     1.0  0.44155  0.93851  0.54716  1.0000
  H   H4548     1.0  0.31554  0.91115  0.77601  1.0000
  H   H4549     1.0  0.35711  0.92144  0.55982  1.0000
  H   H4550     1.0  0.45257  0.96418  0.50797  1.0000
  H   H4551     1.0  0.25426  0.86482  0.68990  1.0000
  H   H4552     1.0  0.33183  0.85601  0.65536  1.0000
  S   S594      1.0  0.24742  0.85166  0.72348  1.0000
  H   H4553     1.0  0.32486  0.88590  0.76762  1.0000
  H   H4554     1.0  0.41140  0.92324  0.48673  1.0000
  H   H4555     1.0  0.44396  0.96613  0.53732  1.0000
  C   C2584     1.0  0.26444  0.76407  0.79923  1.0000
  C   C2585     1.0  0.25979  0.78024  0.79326  1.0000
  H   H4556     1.0  0.31625  0.96935  0.67967  1.0000
  H   H4557     1.0  0.27991  0.82600  0.67020  1.0000
  C   C2586     1.0  0.42526  0.97640  0.72850  1.0000
  H   H4558     1.0  0.27672  0.75829  0.79655  1.0000
  C   C2587     1.0  0.24843  0.83127  0.66659  1.0000
  H   H4559     1.0  0.43987  0.87722  0.49203  1.0000
  C   C2588     1.0  0.31296  0.86938  0.67050  1.0000
  H   H4560     1.0  0.34738  0.91884  0.77359  1.0000
  H   H4561     1.0  0.40635  0.93740  0.55427  1.0000
  H   H4562     1.0  0.41092  0.97892  0.70638  1.0000
  H   H4563     1.0  0.32916  0.95936  0.54792  1.0000
  C   C2589     1.0  0.33558  0.96905  0.65908  1.0000
  H   H4564     1.0  0.39740  0.95734  0.65551  1.0000
  H   H4565     1.0  0.28769  0.94625  0.68967  1.0000
  C   C2590     1.0  0.38791  0.95141  0.65634  1.0000
  H   H4566     1.0  0.24224  0.82993  0.86039  1.0000
  N   N148      1.0  0.30994  0.86358  0.70086  1.0000
  H   H4567     1.0  0.25479  0.75098  0.76098  1.0000
  H   H4568     1.0  0.45638  0.94044  0.52923  1.0000
  C   C2591     1.0  0.30708  0.90487  0.74279  1.0000
  C   C2592     1.0  0.29282  0.90103  0.75184  1.0000
  C   C2593     1.0  0.29095  0.88543  0.75570  1.0000
  C   C2594     1.0  0.30349  0.87358  0.75082  1.0000
  C   C2595     1.0  0.31760  0.87750  0.74144  1.0000
  C   C2596     1.0  0.31925  0.89317  0.73712  1.0000
  H   H4569     1.0  0.28329  0.91008  0.75615  1.0000
  H   H4570     1.0  0.28002  0.88250  0.76294  1.0000
  H   H4571     1.0  0.32731  0.86838  0.73755  1.0000
  H   H4572     1.0  0.33005  0.89616  0.72972  1.0000
  C   C2597     1.0  0.40540  0.92135  0.73352  1.0000
  C   C2598     1.0  0.41711  0.91464  0.74236  1.0000
  C   C2599     1.0  0.43155  0.91950  0.73758  1.0000
  C   C2600     1.0  0.43434  0.93107  0.72389  1.0000
  C   C2601     1.0  0.42257  0.93786  0.71521  1.0000
  C   C2602     1.0  0.40818  0.93307  0.72001  1.0000
  H   H4573     1.0  0.41505  0.90561  0.75288  1.0000
  H   H4574     1.0  0.44054  0.91423  0.74438  1.0000
  H   H4575     1.0  0.33004  0.98252  0.48461  1.0000
  H   H4576     1.0  0.39933  0.93838  0.71314  1.0000
  C   C2603     1.0  0.25049  0.84675  0.66917  1.0000
  S   S595      1.0  0.24244  0.82964  0.76849  1.0000
  H   H4577     1.0  0.24917  0.82418  0.88766  1.0000
  H   H4578     1.0  0.36308  0.92720  0.53916  1.0000
  H   H4579     1.0  0.34064  0.90266  0.78738  1.0000
  C   C2604     1.0  0.39729  0.94752  0.57454  1.0000
  C   C2605     1.0  0.26303  0.79545  0.73959  1.0000
  H   H4580     1.0  0.26139  0.97874  0.73188  1.0000
  H   H4581     1.0  0.33495  0.83716  0.70711  1.0000
  H   H4582     1.0  0.37766  0.98327  0.65350  1.0000
  C   C2606     1.0  0.31437  0.91552  0.66962  1.0000
  C   C2607     1.0  0.32591  0.91843  0.65591  1.0000
  C   C2608     1.0  0.33987  0.92186  0.65665  1.0000
  C   C2609     1.0  0.34228  0.92244  0.67109  1.0000
  C   C2610     1.0  0.33070  0.91957  0.68475  1.0000
  C   C2611     1.0  0.31682  0.91611  0.68401  1.0000
  H   H4583     1.0  0.32425  0.91767  0.64482  1.0000
  H   H4584     1.0  0.34884  0.92396  0.64608  1.0000
  H   H4585     1.0  0.33257  0.91959  0.69599  1.0000
  H   H4586     1.0  0.30802  0.91370  0.69468  1.0000
  H   H4587     1.0  0.26147  0.73701  0.88883  1.0000
  C   C2612     1.0  0.32616  0.91397  0.54203  1.0000
  C   C2613     1.0  0.33849  0.90451  0.54905  1.0000
  C   C2614     1.0  0.33631  0.90055  0.56554  1.0000
  C   C2615     1.0  0.32182  0.90611  0.57510  1.0000
  C   C2616     1.0  0.30947  0.91553  0.56806  1.0000
  C   C2617     1.0  0.31164  0.91942  0.55158  1.0000
  H   H4588     1.0  0.34957  0.90001  0.54174  1.0000
  H   H4589     1.0  0.34584  0.89306  0.57092  1.0000
  H   H4590     1.0  0.29818  0.91963  0.57530  1.0000
  H   H4591     1.0  0.30201  0.92665  0.54620  1.0000
  H   H4592     1.0  0.35078  0.95718  0.49584  1.0000
  C   C2618     1.0  0.44419  0.92569  0.49669  1.0000
  C   C2619     1.0  0.44628  0.91150  0.50777  1.0000
  C   C2620     1.0  0.38758  0.88149  0.56010  1.0000
  H   H4593     1.0  0.43299  0.96367  0.50885  1.0000
  H   H4594     1.0  0.31687  0.95613  0.66774  1.0000
  C   C2621     1.0  0.43170  0.92973  0.48901  1.0000
  H   H4595     1.0  0.45585  0.90832  0.51380  1.0000
  H   H4596     1.0  0.28078  0.97136  0.74781  1.0000
  C   C2622     1.0  0.27823  0.83773  0.67274  1.0000
  H   H4597     1.0  0.48473  0.88072  0.58974  1.0000
  H   H4598     1.0  0.26422  0.87503  0.65397  1.0000
  H   H4599     1.0  0.26282  0.80086  0.74927  1.0000
  H   H4600     1.0  0.27843  0.86706  0.66577  1.0000
  C   C2623     1.0  0.32482  0.82417  0.72944  1.0000
  C   C2624     1.0  0.28884  0.85286  0.63829  1.0000
  H   H4601     1.0  0.33369  0.81319  0.72779  1.0000
  H   H4602     1.0  0.29027  0.86355  0.64086  1.0000
  H   H4603     1.0  0.26901  0.88642  0.68239  1.0000
  H   H4604     1.0  0.32293  0.92819  0.76413  1.0000
  H   H4605     1.0  0.38126  0.86954  0.75134  1.0000
  H   H4606     1.0  0.43722  0.93827  0.52896  1.0000
  C   C2625     1.0  0.39847  0.97073  0.73810  1.0000
  H   H4607     1.0  0.28872  0.97183  0.69387  1.0000
  H   H4608     1.0  0.47371  0.94153  0.81716  1.0000
  C   C2626     1.0  0.35732  0.96517  0.49666  1.0000
  C   C2627     1.0  0.36334  0.92986  0.55037  1.0000
  H   H4609     1.0  0.42504  0.96375  0.53713  1.0000
  C   C2628     1.0  0.43770  0.96143  0.53136  1.0000
  H   H4610     1.0  0.24569  0.84700  0.68174  1.0000
  H   H4611     1.0  0.37575  0.97751  0.60671  1.0000
  H   H4612     1.0  0.30598  0.84920  0.68757  1.0000
  C   C2629     1.0  0.31910  0.86150  0.65644  1.0000
  H   H4613     1.0  0.44955  0.97403  0.48203  1.0000
  H   H4614     1.0  0.26365  0.85710  0.63985  1.0000
  C   C2630     1.0  0.39097  0.93078  0.53594  1.0000
  C   C2631     1.0  0.40451  0.95810  0.75186  1.0000
  H   H4615     1.0  0.28420  0.81095  0.69701  1.0000
  H   H4616     1.0  0.37381  0.88885  0.74042  1.0000
  H   H4617     1.0  0.37647  0.94965  0.55826  1.0000
  C   C2632     1.0  0.44013  0.96887  0.51347  1.0000
  C   C2633     1.0  0.29320  0.87304  0.70250  1.0000
  C   C2634     1.0  0.32045  0.87436  0.69971  1.0000
  C   C2635     1.0  0.33827  0.86707  0.69771  1.0000
  C   C2636     1.0  0.28586  0.87928  0.71788  1.0000
  C   C2637     1.0  0.34771  0.87970  0.69423  1.0000
  C   C2638     1.0  0.26882  0.88817  0.71818  1.0000
  H   H4618     1.0  0.31246  0.85461  0.72491  1.0000
  H   H4619     1.0  0.29231  0.88357  0.69276  1.0000
  H   H4620     1.0  0.31864  0.88485  0.69009  1.0000
  H   H4621     1.0  0.31713  0.87920  0.71043  1.0000
  H   H4622     1.0  0.34277  0.86085  0.68789  1.0000
  H   H4623     1.0  0.34063  0.85882  0.70881  1.0000
  H   H4624     1.0  0.29232  0.88761  0.71884  1.0000
  H   H4625     1.0  0.28584  0.86957  0.72847  1.0000
  H   H4626     1.0  0.34669  0.88767  0.68262  1.0000
  H   H4627     1.0  0.34348  0.88671  0.70347  1.0000
  H   H4628     1.0  0.36034  0.87413  0.69383  1.0000
  H   H4629     1.0  0.24544  0.81246  0.82139  1.0000
  H   H4630     1.0  0.26821  0.89840  0.70805  1.0000
  H   H4631     1.0  0.26153  0.88031  0.71776  1.0000
  H   H4632     1.0  0.47962  0.89651  0.49165  1.0000
  C   C2639     1.0  0.37516  0.96262  0.64811  1.0000
  C   C2640     1.0  0.25428  0.87310  0.67842  1.0000
  N   N149      1.0  0.38019  0.92734  0.55189  1.0000
  C   C2641     1.0  0.38521  0.87367  0.78791  1.0000
  H   H4633     1.0  0.25687  0.74269  0.81245  1.0000
  H   H4634     1.0  0.40174  0.92364  0.57260  1.0000
  H   H4635     1.0  0.32869  0.83003  0.73653  1.0000
  H   H4636     1.0  0.31497  0.97425  0.60546  1.0000
  H   H4637     1.0  0.45751  0.96950  0.71596  1.0000
  H   H4638     1.0  0.30061  0.87566  0.67030  1.0000
  C   C2642     1.0  0.37244  0.87655  0.74425  1.0000
  C   C2643     1.0  0.30740  0.91875  0.49235  1.0000
  H   H4639     1.0  0.27529  0.84673  0.69367  1.0000
  H   H4640     1.0  0.28260  0.82176  0.71154  1.0000
  C   C2644     1.0  0.24384  0.75432  0.76974  1.0000
  H   H4641     1.0  0.36508  0.86303  0.77947  1.0000
  H   H4642     1.0  0.35525  0.97779  0.63039  1.0000
  H   H4643     1.0  0.28305  0.95566  0.72929  1.0000
  H   H4644     1.0  0.29924  0.84657  0.71990  1.0000
  H   H4645     1.0  0.29056  0.84496  0.61707  1.0000
  H   H4646     1.0  0.31474  0.84787  0.79340  1.0000
  H   H4647     1.0  0.29827  0.84290  0.64217  1.0000
  C   C2645     1.0  0.31068  0.85035  0.71528  1.0000
  C   C2646     1.0  0.27321  0.97783  0.62970  1.0000
  H   H4648     1.0  0.39445  0.89859  0.53949  1.0000
  H   H4649     1.0  0.43709  0.89073  0.52010  1.0000
  H   H4650     1.0  0.39908  0.87821  0.56361  1.0000
  C   C2647     1.0  0.34023  0.91002  0.77543  1.0000
  H   H4651     1.0  0.38165  0.95600  0.76731  1.0000
  H   H4652     1.0  0.37754  0.95246  0.52394  1.0000
  H   H4653     1.0  0.38022  0.88639  0.76551  1.0000
  H   H4654     1.0  0.27157  0.96484  0.70601  1.0000
  C   C2648     1.0  0.30832  0.96327  0.58322  1.0000
  H   H4655     1.0  0.39401  0.95964  0.56759  1.0000
  H   H4656     1.0  0.39088  0.86242  0.78409  1.0000
  Fe  Fe299     1.0  0.38791  0.90399  0.49800  1.0000
  S   S596      1.0  0.36840  0.89217  0.49950  1.0000
  C   C2649     1.0  0.37355  0.88381  0.77779  1.0000
  H   H4657     1.0  0.33737  0.96708  0.64713  1.0000
  H   H4658     1.0  0.36626  0.95606  0.64885  1.0000
  C   C2650     1.0  0.24392  0.78766  0.79690  1.0000
  H   H4659     1.0  0.31761  0.87047  0.64547  1.0000
  H   H4660     1.0  0.38279  0.94698  0.66887  1.0000
  H   H4661     1.0  0.42463  0.94680  0.70461  1.0000
  S   S597      1.0  0.24125  0.90569  0.64187  1.0000
  C   C2651     1.0  0.38544  0.91023  0.55939  1.0000
  H   H4662     1.0  0.33009  0.93892  0.55731  1.0000
  H   H4663     1.0  0.36800  0.87667  0.72171  1.0000
  C   C2652     1.0  0.40156  0.95036  0.51205  1.0000
  H   H4664     1.0  0.39310  0.94113  0.65076  1.0000
  H   H4665     1.0  0.37917  0.87119  0.80051  1.0000
  C   C2653     1.0  0.30505  0.98149  0.57791  1.0000
  S   S598      1.0  0.48858  0.94732  0.50922  1.0000
  H   H4666     1.0  0.30034  0.95913  0.56435  1.0000
  C   C2654     1.0  0.25726  0.88839  0.67981  1.0000
  H   H4667     1.0  0.37314  0.93384  0.57441  1.0000
  H   H4668     1.0  0.33293  0.85766  0.76979  1.0000
  H   H4669     1.0  0.39021  0.95578  0.53447  1.0000
  C   C2655     1.0  0.38497  0.89825  0.55026  1.0000
  S   S599      1.0  0.40929  0.89366  0.50887  1.0000
  H   H4670     1.0  0.33793  0.94455  0.53644  1.0000
  H   H4671     1.0  0.28530  0.86597  0.70162  1.0000
  C   C2656     1.0  0.30604  0.96836  0.74038  1.0000
  Fe  Fe300     1.0  0.47360  0.93156  0.72763  1.0000
  H   H4672     1.0  0.34253  0.96975  0.51871  1.0000
  H   H4673     1.0  0.38877  0.94603  0.58604  1.0000
  C   C2657     1.0  0.32319  0.83495  0.71343  1.0000
  C   C2658     1.0  0.33179  0.86215  0.78037  1.0000
  C   C2659     1.0  0.36780  0.97739  0.65534  1.0000
  H   H4674     1.0  0.37589  0.85739  0.73257  1.0000
  C   C2660     1.0  0.44357  0.94358  0.53432  1.0000
  H   H4675     1.0  0.34752  0.88007  0.74565  1.0000
  H   H4676     1.0  0.30450  0.94430  0.69751  1.0000
  H   H4677     1.0  0.31255  0.85241  0.65767  1.0000
  H   H4678     1.0  0.34340  0.95945  0.66572  1.0000
  C   C2661     1.0  0.39220  0.94847  0.76130  1.0000
  H   H4679     1.0  0.39942  0.94494  0.50346  1.0000
  C   C2662     1.0  0.42113  0.91984  0.49256  1.0000
  H   H4680     1.0  0.47592  0.94660  0.79608  1.0000
  H   H4681     1.0  0.42795  0.97117  0.74030  1.0000
  H   H4682     1.0  0.36889  0.89516  0.78157  1.0000
  H   H4683     1.0  0.25761  0.82106  0.67039  1.0000
  H   H4684     1.0  0.30030  0.94350  0.58168  1.0000
  C   C2663     1.0  0.32329  0.91905  0.77515  1.0000
  C   C2664     1.0  0.27245  0.84904  0.64659  1.0000
  H   H4685     1.0  0.26387  0.89256  0.72922  1.0000
  H   H4686     1.0  0.32015  0.87811  0.66856  1.0000
  C   C2665     1.0  0.37020  0.96866  0.48467  1.0000
  H   H4687     1.0  0.26214  0.83398  0.69617  1.0000
  H   H4688     1.0  0.40751  0.96325  0.76008  1.0000
  H   H4689     1.0  0.29010  0.84049  0.66862  1.0000
  H   H4690     1.0  0.24954  0.88488  0.61943  1.0000
  C   C2666     1.0  0.36117  0.98239  0.51082  1.0000
  H   H4691     1.0  0.41355  0.94503  0.51430  1.0000
  C   C2667     1.0  0.33643  0.94729  0.54806  1.0000
  S   S600      1.0  0.27300  0.96911  0.61464  1.0000
  H   H4692     1.0  0.35180  0.96948  0.73813  1.0000
  C   C2668     1.0  0.38908  0.94824  0.52726  1.0000
  H   H4693     1.0  0.38926  0.92441  0.52788  1.0000
  H   H4694     1.0  0.30192  0.96920  0.76505  1.0000
  H   H4695     1.0  0.35005  0.94823  0.56350  1.0000
  H   H4696     1.0  0.28525  0.96121  0.58202  1.0000
  H   H4697     1.0  0.26644  0.77157  0.75246  1.0000
  H   H4698     1.0  0.39455  0.87999  0.78661  1.0000
  H   H4699     1.0  0.30581  0.95956  0.59622  1.0000
  C   C2669     1.0  0.31066  0.97179  0.75389  1.0000
  C   C2670     1.0  0.25749  0.77998  0.74618  1.0000
  H   H4700     1.0  0.35749  0.95588  0.54310  1.0000
  H   H4701     1.0  0.36370  0.97722  0.55947  1.0000
  H   H4702     1.0  0.41526  0.94987  0.74712  1.0000
  H   H4703     1.0  0.39792  0.96385  0.72986  1.0000
  H   H4704     1.0  0.31332  0.90668  0.49749  1.0000
  H   H4705     1.0  0.27426  0.74439  0.89574  1.0000
  H   H4706     1.0  0.30716  0.98227  0.70461  1.0000
  H   H4707     1.0  0.40746  0.97915  0.52194  1.0000
  C   C2671     1.0  0.25321  0.75522  0.80827  1.0000
  H   H4708     1.0  0.37362  0.90076  0.54673  1.0000
  H   H4709     1.0  0.31856  0.92503  0.78518  1.0000
  H   H4710     1.0  0.25664  0.89741  0.66873  1.0000
  H   H4711     1.0  0.31411  0.86369  0.80218  1.0000
  H   H4712     1.0  0.30645  0.95558  0.74300  1.0000
  H   H4713     1.0  0.31180  0.98277  0.63128  1.0000
  H   H4714     1.0  0.40088  0.96304  0.50676  1.0000
  H   H4715     1.0  0.48536  0.92735  0.80560  1.0000
  H   H4716     1.0  0.42904  0.96638  0.72246  1.0000
  H   H4717     1.0  0.34031  0.90478  0.75318  1.0000
  H   H4718     1.0  0.24891  0.83241  0.65394  1.0000
  H   H4719     1.0  0.39782  0.90758  0.56066  1.0000
  H   H4720     1.0  0.32826  0.88444  0.78635  1.0000
  H   H4721     1.0  0.28159  0.95606  0.64504  1.0000
  H   H4722     1.0  0.32598  0.84967  0.68452  1.0000
  S   S601      1.0  0.47415  0.94328  0.74633  1.0000
  H   H4723     1.0  0.30337  0.85791  0.61482  1.0000
  H   H4724     1.0  0.33613  0.97103  0.58449  1.0000
  C   C2672     1.0  0.28914  0.96367  0.71918  1.0000
  H   H4725     1.0  0.29461  0.92039  0.49766  1.0000
  H   H4726     1.0  0.47837  0.98153  0.77754  1.0000
  H   H4727     1.0  0.47178  0.87967  0.49397  1.0000
  C   C2673     1.0  0.29147  0.85550  0.62044  1.0000
  H   H4728     1.0  0.25543  0.80380  0.73179  1.0000
  H   H4729     1.0  0.48216  0.96922  0.75506  1.0000
  Fe  Fe301     1.0  0.48080  0.93333  0.49699  1.0000
  H   H4730     1.0  0.38842  0.87117  0.72276  1.0000
  H   H4731     1.0  0.40916  0.94588  0.57678  1.0000
  C   C2674     1.0  0.36136  0.98259  0.56974  1.0000
  H   H4732     1.0  0.35638  0.98009  0.75840  1.0000
  H   H4733     1.0  0.31958  0.82847  0.70673  1.0000
  C   C2675     1.0  0.31395  0.85711  0.68621  1.0000
  C   C2676     1.0  0.26665  0.86632  0.66491  1.0000
  H   H4734     1.0  0.38086  0.96592  0.63554  1.0000
  H   H4735     1.0  0.28240  0.96882  0.66565  1.0000
  C   C2677     1.0  0.28545  0.82219  0.69870  1.0000
  C   C2678     1.0  0.27806  0.96870  0.64344  1.0000
  H   H4736     1.0  0.31343  0.82099  0.73603  1.0000
  H   H4737     1.0  0.34099  0.85469  0.78680  1.0000
  H   H4738     1.0  0.35294  0.87556  0.79191  1.0000
  H   H4739     1.0  0.28742  0.93735  0.71016  1.0000
  N   N150      1.0  0.34942  0.88272  0.76793  1.0000
  C   C2679     1.0  0.34747  0.90032  0.76238  1.0000
  C   C2680     1.0  0.35565  0.87521  0.75385  1.0000
  C   C2681     1.0  0.35991  0.87566  0.77966  1.0000
  H   H4740     1.0  0.32234  0.96431  0.75544  1.0000
  H   H4741     1.0  0.31505  0.97103  0.72951  1.0000
  C   C2682     1.0  0.48791  0.97865  0.75364  1.0000
  H   H4742     1.0  0.31017  0.97700  0.66112  1.0000
  H   H4743     1.0  0.36434  0.97327  0.66835  1.0000
  H   H4744     1.0  0.24821  0.89299  0.68949  1.0000
  H   H4745     1.0  0.45456  0.97670  0.73353  1.0000
  H   H4746     1.0  0.38604  0.97632  0.74265  1.0000
  H   H4747     1.0  0.48648  0.97521  0.69478  1.0000
  H   H4748     1.0  0.46373  0.97726  0.52297  1.0000
  C   C2683     1.0  0.45342  0.98012  0.72107  1.0000
  H   H4749     1.0  0.36327  0.97321  0.58032  1.0000
  S   S602      1.0  0.49068  0.90901  0.73554  1.0000
  C   C2684     1.0  0.26839  0.73450  0.89799  1.0000
  H   H4750     1.0  0.49076  0.89397  0.57126  1.0000
  C   C2685     1.0  0.24120  0.78223  0.75770  1.0000
  H   H4751     1.0  0.72597  0.11518  0.12046  1.0000
  Fe  Fe302     1.0  0.56385  0.04326  0.40514  1.0000
  H   H4752     1.0  0.66947  0.10714  0.02699  1.0000
  S   S603      1.0  0.56256  0.04432  0.43013  1.0000
  Fe  Fe303     1.0  0.55365  0.05207  0.37385  1.0000
  S   S604      1.0  0.57298  0.03378  0.36383  1.0000
  S   S605      1.0  0.53657  0.06600  0.35847  1.0000
  S   S606      1.0  0.49274  0.04001  0.26684  1.0000
  Fe  Fe304     1.0  0.58814  0.04192  0.37457  1.0000
  S   S607      1.0  0.61259  0.04487  0.36096  1.0000
  H   H4753     1.0  0.56721  0.16981  0.31842  1.0000
  S   S608      1.0  0.56922  0.06152  0.38294  1.0000
  H   H4754     1.0  0.55621  0.01373  0.32463  1.0000
  H   H4755     1.0  0.55191  0.12052  0.29467  1.0000
  C   C2686     1.0  0.52934  0.01871  0.44314  1.0000
  H   H4756     1.0  0.70387  0.09758  0.05848  1.0000
  C   C2687     1.0  0.55937  0.00448  0.28968  1.0000
  Fe  Fe305     1.0  0.50571  0.05330  0.27500  1.0000
  S   S609      1.0  0.51306  0.07620  0.26137  1.0000
  C   C2688     1.0  0.57054  0.16186  0.31010  1.0000
  H   H4757     1.0  0.56675  0.22478  0.14176  1.0000
  C   C2689     1.0  0.52043  0.03431  0.33723  1.0000
  H   H4758     1.0  0.71798  0.09481  0.23881  1.0000
  C   C2690     1.0  0.52896  0.02778  0.34912  1.0000
  C   C2691     1.0  0.68238  0.09686  0.00737  1.0000
  H   H4759     1.0  0.56468  0.01486  0.28377  1.0000
  H   H4760     1.0  0.71677  0.09139  0.25965  1.0000
  H   H4761     1.0  0.72954  0.10748  0.03353  1.0000
  H   H4762     1.0  0.61123  0.00515  0.42435  1.0000
  C   C2692     1.0  0.53401  0.03744  0.35556  1.0000
  H   H4763     1.0  0.73535  0.03812  0.33675  1.0000
  C   C2693     1.0  0.67716  0.05656  0.28967  1.0000
  H   H4764     1.0  0.73342  0.23372  0.01420  1.0000
  H   H4765     1.0  0.55182  0.18189  0.17380  1.0000
  H   H4766     1.0  0.66497  0.15120  0.25995  1.0000
  H   H4767     1.0  0.52370  0.02432  0.45336  1.0000
  Fe  Fe306     1.0  0.71927  0.15393  0.07170  1.0000
  S   S610      1.0  0.69543  0.16917  0.06956  1.0000
  C   C2694     1.0  0.72819  0.20928  0.06670  1.0000
  Fe  Fe307     1.0  0.70759  0.12367  0.08147  1.0000
  S   S611      1.0  0.68269  0.13599  0.08029  1.0000
  S   S612      1.0  0.71902  0.09804  0.08609  1.0000
  Fe  Fe308     1.0  0.69325  0.15122  0.05792  1.0000
  S   S613      1.0  0.68248  0.15913  0.03660  1.0000
  Fe  Fe309     1.0  0.68677  0.15284  0.09203  1.0000
  S   S614      1.0  0.66793  0.16005  0.11235  1.0000
  S   S615      1.0  0.71773  0.13737  0.05815  1.0000
  S   S616      1.0  0.71084  0.13915  0.09523  1.0000
  C   C2695     1.0  0.64822  0.16557  0.27488  1.0000
  C   C2696     1.0  0.57988  0.13854  0.33095  1.0000
  S   S617      1.0  0.62134  0.21448  0.19953  1.0000
  Fe  Fe310     1.0  0.69916  0.00417  0.15976  1.0000
  S   S618      1.0  0.71044  0.02043  0.13878  1.0000
  H   H4768     1.0  0.56559  0.11482  0.38228  1.0000
  Fe  Fe311     1.0  0.67763  0.03097  0.17445  1.0000
  S   S619      1.0  0.68713  0.04939  0.15477  1.0000
  S   S620      1.0  0.65906  0.03621  0.19580  1.0000
  Fe  Fe312     1.0  0.68581  0.03472  0.13921  1.0000
  S   S621      1.0  0.67610  0.04872  0.11805  1.0000
  Fe  Fe313     1.0  0.71072  0.03362  0.15623  1.0000
  H   H4769     1.0  0.58761  0.23288  0.19712  1.0000
  S   S622      1.0  0.67434  0.01733  0.15877  1.0000
  S   S623      1.0  0.70137  0.01631  0.17720  1.0000
  C   C2697     1.0  0.73673  0.17050  0.09258  1.0000
  H   H4770     1.0  0.69987  0.00584  0.21382  1.0000
  H   H4771     1.0  0.64931  0.20553  0.01046  1.0000
  H   H4772     1.0  0.65119  0.18525  0.24532  1.0000
  Fe  Fe314     1.0  0.59800  0.13524  0.22335  1.0000
  S   S624      1.0  0.61997  0.13213  0.23168  1.0000
  S   S625      1.0  0.59005  0.15778  0.20653  1.0000
  Fe  Fe315     1.0  0.59504  0.10108  0.23764  1.0000
  S   S626      1.0  0.61709  0.09541  0.24675  1.0000
  S   S627      1.0  0.58537  0.07935  0.24175  1.0000
  Fe  Fe316     1.0  0.60784  0.11830  0.25415  1.0000
  S   S628      1.0  0.60992  0.11836  0.27836  1.0000
  Fe  Fe317     1.0  0.62719  0.10955  0.22355  1.0000
  S   S629      1.0  0.65119  0.10312  0.20860  1.0000
  S   S630      1.0  0.58486  0.12334  0.24668  1.0000
  S   S631      1.0  0.60610  0.11339  0.21367  1.0000
  Fe  Fe318     1.0  0.70099  0.09137  0.33012  1.0000
  S   S632      1.0  0.70567  0.11199  0.31060  1.0000
  S   S633      1.0  0.72017  0.07029  0.33509  1.0000
  Fe  Fe319     1.0  0.66629  0.10531  0.34031  1.0000
  S   S634      1.0  0.66821  0.12761  0.32183  1.0000
  S   S635      1.0  0.64248  0.10226  0.35643  1.0000
  Fe  Fe320     1.0  0.68279  0.11156  0.30580  1.0000
  S   S636      1.0  0.67995  0.11365  0.28131  1.0000
  Fe  Fe321     1.0  0.69101  0.12627  0.32835  1.0000
  S   S637      1.0  0.69789  0.14871  0.32826  1.0000
  S   S638      1.0  0.67954  0.08945  0.32370  1.0000
  S   S639      1.0  0.68771  0.10547  0.34841  1.0000
  C   C2698     1.0  0.62972  0.11502  0.27956  1.0000
  C   C2699     1.0  0.64200  0.11280  0.26651  1.0000
  C   C2700     1.0  0.65753  0.11198  0.26723  1.0000
  C   C2701     1.0  0.66084  0.11304  0.28106  1.0000
  C   C2702     1.0  0.64874  0.11423  0.29437  1.0000
  C   C2703     1.0  0.63325  0.11530  0.29355  1.0000
  H   H4773     1.0  0.63950  0.11213  0.25575  1.0000
  H   H4774     1.0  0.66698  0.11071  0.25704  1.0000
  H   H4775     1.0  0.65123  0.11472  0.30520  1.0000
  H   H4776     1.0  0.62403  0.11656  0.30373  1.0000
  H   H4777     1.0  0.69248  0.18771  0.00171  1.0000
  C   C2704     1.0  0.73568  0.99378  0.22589  1.0000
  H   H4778     1.0  0.70043  0.10810  0.03972  1.0000
  C   C2705     1.0  0.72582  0.05885  0.32093  1.0000
  C   C2706     1.0  0.49623  0.03863  0.40912  1.0000
  H   H4779     1.0  0.68098  0.14468  0.98903  1.0000
  H   H4780     1.0  0.49569  0.01462  0.46804  1.0000
  H   H4781     1.0  0.54130  0.07309  0.47520  1.0000
  C   C2707     1.0  0.49360  0.00961  0.43353  1.0000
  H   H4782     1.0  0.56857  0.10111  0.30909  1.0000
  C   C2708     1.0  0.65814  0.05419  0.20014  1.0000
  C   C2709     1.0  0.64653  0.05911  0.21263  1.0000
  C   C2710     1.0  0.64426  0.07421  0.21507  1.0000
  C   C2711     1.0  0.65423  0.08413  0.20566  1.0000
  C   C2712     1.0  0.66657  0.07885  0.19384  1.0000
  C   C2713     1.0  0.66838  0.06395  0.19098  1.0000
  H   H4783     1.0  0.63916  0.05133  0.22038  1.0000
  H   H4784     1.0  0.63480  0.07809  0.22430  1.0000
  H   H4785     1.0  0.67448  0.08635  0.18664  1.0000
  H   H4786     1.0  0.67766  0.06009  0.18169  1.0000
  H   H4787     1.0  0.68397  0.05051  0.29903  1.0000
  H   H4788     1.0  0.50147  0.03936  0.44539  1.0000
  H   H4789     1.0  0.55085  0.17729  0.19469  1.0000
  H   H4790     1.0  0.67442  0.08885  0.00919  1.0000
  C   C2714     1.0  0.71380  0.05982  0.19451  1.0000
  C   C2715     1.0  0.71524  0.05419  0.18112  1.0000
  H   H4791     1.0  0.66726  0.17141  0.23733  1.0000
  S   S640      1.0  0.72534  0.06661  0.21613  1.0000
  H   H4792     1.0  0.70232  0.06279  0.20200  1.0000
  H   H4793     1.0  0.70496  0.05275  0.17833  1.0000
  C   C2716     1.0  0.61358  0.19817  0.20114  1.0000
  C   C2717     1.0  0.60682  0.19035  0.21609  1.0000
  C   C2718     1.0  0.60022  0.17750  0.21782  1.0000
  C   C2719     1.0  0.59990  0.17269  0.20456  1.0000
  C   C2720     1.0  0.60676  0.18042  0.18958  1.0000
  C   C2721     1.0  0.61388  0.19293  0.18791  1.0000
  H   H4794     1.0  0.60639  0.19449  0.22634  1.0000
  H   H4795     1.0  0.59478  0.17169  0.22936  1.0000
  H   H4796     1.0  0.60681  0.17654  0.17931  1.0000
  H   H4797     1.0  0.61958  0.19854  0.17644  1.0000
  C   C2722     1.0  0.70668  0.08467  0.09432  1.0000
  C   C2723     1.0  0.71353  0.06881  0.09909  1.0000
  C   C2724     1.0  0.70408  0.05783  0.10634  1.0000
  C   C2725     1.0  0.68774  0.06258  0.10844  1.0000
  C   C2726     1.0  0.68083  0.07840  0.10326  1.0000
  C   C2727     1.0  0.69032  0.08951  0.09635  1.0000
  C   C2728     1.0  0.73651  0.16597  0.02460  1.0000
  H   H4798     1.0  0.70947  0.04563  0.11018  1.0000
  H   H4799     1.0  0.66817  0.08210  0.10500  1.0000
  H   H4800     1.0  0.68497  0.10176  0.09271  1.0000
  C   C2729     1.0  0.66965  0.17707  0.11679  1.0000
  C   C2730     1.0  0.68212  0.18442  0.10847  1.0000
  C   C2731     1.0  0.68350  0.19783  0.11241  1.0000
  H   H4801     1.0  0.57399  0.16881  0.29801  1.0000
  C   C2732     1.0  0.66018  0.19631  0.13321  1.0000
  C   C2733     1.0  0.65877  0.18293  0.12926  1.0000
  H   H4802     1.0  0.69077  0.17975  0.09907  1.0000
  H   H4803     1.0  0.61527  0.07395  0.32494  1.0000
  H   H4804     1.0  0.65194  0.20056  0.14300  1.0000
  H   H4805     1.0  0.64929  0.17710  0.13590  1.0000
  H   H4806     1.0  0.72518  0.10779  0.14684  1.0000
  C   C2734     1.0  0.50366  0.04656  0.39253  1.0000
  C   C2735     1.0  0.72476  0.18132  0.02694  1.0000
  C   C2736     1.0  0.73855  0.15242  0.34765  1.0000
  C   C2737     1.0  0.67208  0.20411  0.99421  1.0000
  H   H4807     1.0  0.62274  0.19961  0.13592  1.0000
  H   H4808     1.0  0.51799  0.02150  0.41129  1.0000
  H   H4809     1.0  0.68584  0.22001  0.15783  1.0000
  S   S641      1.0  0.54637  0.03601  0.39689  1.0000
  H   H4810     1.0  0.65716  0.20237  0.20224  1.0000
  C   C2738     1.0  0.72347  0.06532  0.30560  1.0000
  H   H4811     1.0  0.66062  0.12106  0.23163  1.0000
  C   C2739     1.0  0.72222  0.13646  0.34443  1.0000
  C   C2740     1.0  0.71357  0.14975  0.33594  1.0000
  C   C2741     1.0  0.71747  0.16438  0.33339  1.0000
  C   C2742     1.0  0.72990  0.16572  0.33917  1.0000
  C   C2743     1.0  0.68784  0.19207  0.99075  1.0000
  H   H4812     1.0  0.71927  0.12516  0.34663  1.0000
  H   H4813     1.0  0.71083  0.17475  0.32689  1.0000
  N   N151      1.0  0.50359  0.01990  0.43489  1.0000
  H   H4814     1.0  0.67435  0.07833  0.29726  1.0000
  C   C2744     1.0  0.70206  0.04457  0.27417  1.0000
  H   H4815     1.0  0.69991  0.10257  0.25139  1.0000
  C   C2745     1.0  0.70201  0.13182  0.99733  1.0000
  C   C2746     1.0  0.68769  0.14278  0.99784  1.0000
  C   C2747     1.0  0.68184  0.15108  0.00996  1.0000
  C   C2748     1.0  0.69029  0.14853  0.02158  1.0000
  C   C2749     1.0  0.70469  0.13766  0.02101  1.0000
  C   C2750     1.0  0.71051  0.12927  0.00893  1.0000
  H   H4816     1.0  0.67859  0.10779  0.99881  1.0000
  H   H4817     1.0  0.67063  0.15933  0.01042  1.0000
  H   H4818     1.0  0.71135  0.13572  0.02980  1.0000
  H   H4819     1.0  0.72163  0.12085  0.00847  1.0000
  C   C2751     1.0  0.58721  0.11819  0.35348  1.0000
  H   H4820     1.0  0.56905  0.13465  0.33160  1.0000
  C   C2752     1.0  0.57781  0.22174  0.17637  1.0000
  H   H4821     1.0  0.66042  0.07965  0.28597  1.0000
  S   S642      1.0  0.73213  0.04211  0.15534  1.0000
  C   C2753     1.0  0.53319  0.07702  0.25561  1.0000
  C   C2754     1.0  0.53745  0.09167  0.25110  1.0000
  C   C2755     1.0  0.55341  0.09262  0.24677  1.0000
  C   C2756     1.0  0.56520  0.07890  0.24691  1.0000
  C   C2757     1.0  0.56094  0.06429  0.25118  1.0000
  C   C2758     1.0  0.54503  0.06335  0.25548  1.0000
  H   H4822     1.0  0.52836  0.10231  0.25102  1.0000
  H   H4823     1.0  0.55657  0.10394  0.24327  1.0000
  H   H4824     1.0  0.56996  0.05361  0.25138  1.0000
  H   H4825     1.0  0.54193  0.05204  0.25864  1.0000
  C   C2759     1.0  0.62087  0.06058  0.36049  1.0000
  C   C2760     1.0  0.61289  0.07215  0.36912  1.0000
  C   C2761     1.0  0.61993  0.08451  0.36825  1.0000
  C   C2762     1.0  0.63475  0.08569  0.35839  1.0000
  C   C2763     1.0  0.64279  0.07397  0.35001  1.0000
  C   C2764     1.0  0.63592  0.06143  0.35114  1.0000
  H   H4826     1.0  0.60124  0.07171  0.37624  1.0000
  H   H4827     1.0  0.61379  0.09336  0.37503  1.0000
  H   H4828     1.0  0.65431  0.07453  0.34265  1.0000
  H   H4829     1.0  0.64226  0.05239  0.34465  1.0000
  C   C2765     1.0  0.53030  0.05378  0.35037  1.0000
  H   H4830     1.0  0.73249  0.23067  0.06843  1.0000
  H   H4831     1.0  0.55252  0.09565  0.27697  1.0000
  S   S643      1.0  0.58388  0.02409  0.39723  1.0000
  C   C2766     1.0  0.51671  0.05064  0.33198  1.0000
  C   C2767     1.0  0.52152  0.06036  0.33864  1.0000
  S   S644      1.0  0.51445  0.02164  0.32948  1.0000
  H   H4832     1.0  0.70121  0.06422  0.05434  1.0000
  C   C2768     1.0  0.61516  0.20804  0.12811  1.0000
  H   H4833     1.0  0.51834  0.07298  0.33476  1.0000
  C   C2769     1.0  0.51708  0.06007  0.46488  1.0000
  C   C2770     1.0  0.51797  0.06542  0.44862  1.0000
  C   C2771     1.0  0.53159  0.06013  0.43778  1.0000
  C   C2772     1.0  0.54458  0.04981  0.44319  1.0000
  C   C2773     1.0  0.54356  0.04423  0.45943  1.0000
  H   H4834     1.0  0.72048  0.02150  0.19606  1.0000
  H   H4835     1.0  0.50817  0.07389  0.44442  1.0000
  H   H4836     1.0  0.53228  0.06451  0.42529  1.0000
  H   H4837     1.0  0.68900  0.05682  0.24997  1.0000
  H   H4838     1.0  0.57615  0.14665  0.33919  1.0000
  H   H4839     1.0  0.57842  0.09583  0.38060  1.0000
  H   H4840     1.0  0.56234  0.11889  0.35481  1.0000
  H   H4841     1.0  0.66686  0.15107  0.28695  1.0000
  C   C2774     1.0  0.70015  0.98690  0.11566  1.0000
  C   C2775     1.0  0.70449  0.09766  0.13295  1.0000
  H   H4842     1.0  0.57526  0.10001  0.35341  1.0000
  H   H4843     1.0  0.55181  0.20522  0.18330  1.0000
  C   C2776     1.0  0.57410  0.20090  0.16557  1.0000
  C   C2777     1.0  0.54426  0.12693  0.27297  1.0000
  H   H4844     1.0  0.59050  0.06903  0.30702  1.0000
  H   H4845     1.0  0.60694  0.99763  0.34311  1.0000
  H   H4846     1.0  0.65392  0.12107  0.07466  1.0000
  H   H4847     1.0  0.60654  0.06721  0.27272  1.0000
  H   H4848     1.0  0.54659  0.07200  0.28295  1.0000
  H   H4849     1.0  0.73278  0.17704  0.33706  1.0000
  H   H4850     1.0  0.61731  0.20357  0.11730  1.0000
  H   H4851     1.0  0.72648  0.15514  0.99445  1.0000
  H   H4852     1.0  0.50445  0.98562  0.44442  1.0000
  H   H4853     1.0  0.50993  0.05579  0.32296  1.0000
  H   H4854     1.0  0.55509  0.09293  0.34392  1.0000
  H   H4855     1.0  0.71262  0.17919  0.03094  1.0000
  H   H4856     1.0  0.53860  0.09956  0.29411  1.0000
  H   H4857     1.0  0.69253  0.08128  0.12974  1.0000
  H   H4858     1.0  0.55748  0.04047  0.30471  1.0000
  H   H4859     1.0  0.57204  0.01187  0.30830  1.0000
  H   H4860     1.0  0.72187  0.08191  0.12025  1.0000
  H   H4861     1.0  0.59088  0.21817  0.12799  1.0000
  H   H4862     1.0  0.54240  0.99691  0.45570  1.0000
  S   S645      1.0  0.67408  0.22102  0.12905  1.0000
  H   H4863     1.0  0.56846  0.99365  0.28840  1.0000
  H   H4864     1.0  0.70399  0.10613  0.12149  1.0000
  H   H4865     1.0  0.66666  0.20867  0.98381  1.0000
  H   H4866     1.0  0.52503  0.00209  0.43234  1.0000
  C   C2778     1.0  0.55126  0.09889  0.28830  1.0000
  H   H4867     1.0  0.68900  0.08327  0.14980  1.0000
  H   H4868     1.0  0.56615  0.22215  0.18455  1.0000
  N   N152      1.0  0.73368  0.00086  0.20921  1.0000
  H   H4869     1.0  0.66065  0.06047  0.31963  1.0000
  C   C2779     1.0  0.73000  0.98969  0.20177  1.0000
  H   H4870     1.0  0.64635  0.06204  0.30836  1.0000
  H   H4871     1.0  0.59460  0.99407  0.31677  1.0000
  S   S646      1.0  0.52337  0.03189  0.28320  1.0000
  C   C2780     1.0  0.68018  0.05804  0.26116  1.0000
  H   H4872     1.0  0.68958  0.23018  0.17050  1.0000
  H   H4873     1.0  0.56019  0.15725  0.31065  1.0000
  C   C2781     1.0  0.60074  0.16690  0.26666  1.0000
  N   N153      1.0  0.67996  0.13540  0.16283  1.0000
  C   C2782     1.0  0.68339  0.11979  0.17414  1.0000
  C   C2783     1.0  0.67165  0.13403  0.15105  1.0000
  C   C2784     1.0  0.69556  0.13964  0.15402  1.0000
  C   C2785     1.0  0.67050  0.14836  0.17127  1.0000
  C   C2786     1.0  0.65381  0.14670  0.18086  1.0000
  C   C2787     1.0  0.69403  0.11859  0.18541  1.0000
  C   C2788     1.0  0.69515  0.15347  0.13945  1.0000
  C   C2789     1.0  0.66009  0.12271  0.15686  1.0000
  C   C2790     1.0  0.65040  0.12510  0.14467  1.0000
  C   C2791     1.0  0.64626  0.15983  0.18988  1.0000
  C   C2792     1.0  0.69604  0.10250  0.19667  1.0000
  C   C2793     1.0  0.71133  0.15732  0.13233  1.0000
  H   H4874     1.0  0.68923  0.11036  0.16743  1.0000
  H   H4875     1.0  0.67239  0.11637  0.18154  1.0000
  H   H4876     1.0  0.66524  0.14588  0.14580  1.0000
  H   H4877     1.0  0.68034  0.12963  0.14098  1.0000
  H   H4878     1.0  0.70390  0.12933  0.14983  1.0000
  H   H4879     1.0  0.70105  0.14285  0.16195  1.0000
  H   H4880     1.0  0.67711  0.15004  0.17913  1.0000
  H   H4881     1.0  0.66867  0.15980  0.16273  1.0000
  H   H4882     1.0  0.65399  0.13537  0.18952  1.0000
  H   H4883     1.0  0.64607  0.14779  0.17285  1.0000
  H   H4884     1.0  0.70601  0.12000  0.17874  1.0000
  H   H4885     1.0  0.68899  0.12767  0.19251  1.0000
  H   H4886     1.0  0.68696  0.16433  0.14241  1.0000
  H   H4887     1.0  0.69162  0.15041  0.13011  1.0000
  H   H4888     1.0  0.66676  0.11032  0.15869  1.0000
  H   H4889     1.0  0.65185  0.12422  0.16815  1.0000
  H   H4890     1.0  0.64287  0.11636  0.14853  1.0000
  H   H4891     1.0  0.64271  0.13707  0.14324  1.0000
  H   H4892     1.0  0.65821  0.12364  0.13308  1.0000
  H   H4893     1.0  0.64444  0.17142  0.18159  1.0000
  H   H4894     1.0  0.63468  0.15789  0.19735  1.0000
  H   H4895     1.0  0.65377  0.15999  0.19760  1.0000
  H   H4896     1.0  0.70102  0.09301  0.19000  1.0000
  H   H4897     1.0  0.70423  0.10169  0.20414  1.0000
  H   H4898     1.0  0.68461  0.10061  0.20450  1.0000
  H   H4899     1.0  0.71996  0.14716  0.12817  1.0000
  H   H4900     1.0  0.71031  0.16738  0.12213  1.0000
  H   H4901     1.0  0.71560  0.16080  0.14097  1.0000
  H   H4902     1.0  0.64771  0.14644  0.29567  1.0000
  C   C2794     1.0  0.69060  0.08969  0.13731  1.0000
  H   H4903     1.0  0.60590  0.19968  0.98831  1.0000
  H   H4904     1.0  0.54676  0.13884  0.27012  1.0000
  H   H4905     1.0  0.72976  0.22208  0.37548  1.0000
  C   C2795     1.0  0.54469  0.00742  0.44638  1.0000
  H   H4906     1.0  0.67968  0.09861  0.13563  1.0000
  H   H4907     1.0  0.71067  0.15939  0.29344  1.0000
  H   H4908     1.0  0.53159  0.12769  0.27856  1.0000
  C   C2796     1.0  0.54764  0.10247  0.33675  1.0000
  H   H4909     1.0  0.51044  0.05489  0.39298  1.0000
  C   C2797     1.0  0.60086  0.00841  0.33590  1.0000
  C   C2798     1.0  0.56307  0.00556  0.31671  1.0000
  H   H4910     1.0  0.59633  0.17225  0.25567  1.0000
  C   C2799     1.0  0.66651  0.07212  0.25761  1.0000
  H   H4911     1.0  0.67368  0.12129  0.04107  1.0000
  H   H4912     1.0  0.55295  0.11295  0.33233  1.0000
  H   H4913     1.0  0.55352  0.03617  0.46370  1.0000
  H   H4914     1.0  0.69313  0.20352  0.10591  1.0000
  H   H4915     1.0  0.61851  0.14860  0.25763  1.0000
  H   H4916     1.0  0.71067  0.04523  0.26272  1.0000
  H   H4917     1.0  0.69796  0.07919  0.24384  1.0000
  S   S647      1.0  0.50049  0.06804  0.47818  1.0000
  H   H4918     1.0  0.53752  0.05035  0.30301  1.0000
  N   N154      1.0  0.61836  0.03691  0.41621  1.0000
  C   C2800     1.0  0.61190  0.05353  0.40830  1.0000
  C   C2801     1.0  0.62674  0.02753  0.40370  1.0000
  C   C2802     1.0  0.60443  0.02998  0.42603  1.0000
  C   C2803     1.0  0.62908  0.03595  0.42677  1.0000
  C   C2804     1.0  0.63887  0.04885  0.42195  1.0000
  C   C2805     1.0  0.60058  0.06409  0.41947  1.0000
  C   C2806     1.0  0.60795  0.01216  0.43352  1.0000
  C   C2807     1.0  0.64139  0.03273  0.39203  1.0000
  C   C2808     1.0  0.64812  0.02283  0.37954  1.0000
  C   C2809     1.0  0.65151  0.04458  0.43155  1.0000
  C   C2810     1.0  0.59864  0.08149  0.41150  1.0000
  C   C2811     1.0  0.59338  0.00730  0.44514  1.0000
  H   H4919     1.0  0.60518  0.05337  0.39976  1.0000
  H   H4920     1.0  0.62146  0.05957  0.40110  1.0000
  H   H4921     1.0  0.63108  0.01504  0.40913  1.0000
  H   H4922     1.0  0.61834  0.02754  0.39669  1.0000
  H   H4923     1.0  0.59558  0.03205  0.41889  1.0000
  H   H4924     1.0  0.59823  0.03607  0.43587  1.0000
  H   H4925     1.0  0.62223  0.03654  0.43895  1.0000
  H   H4926     1.0  0.63735  0.02425  0.42806  1.0000
  H   H4927     1.0  0.63118  0.06024  0.42412  1.0000
  H   H4928     1.0  0.64477  0.05088  0.40937  1.0000
  H   H4929     1.0  0.58873  0.06128  0.42289  1.0000
  H   H4930     1.0  0.60472  0.06217  0.43042  1.0000
  H   H4931     1.0  0.61763  0.00902  0.43987  1.0000
  H   H4932     1.0  0.63861  0.04519  0.38581  1.0000
  H   H4933     1.0  0.65086  0.03092  0.39833  1.0000
  H   H4934     1.0  0.65212  0.01028  0.38505  1.0000
  H   H4935     1.0  0.63920  0.02380  0.37285  1.0000
  H   H4936     1.0  0.65836  0.02708  0.37112  1.0000
  H   H4937     1.0  0.64610  0.04296  0.44432  1.0000
  H   H4938     1.0  0.66008  0.03361  0.42921  1.0000
  H   H4939     1.0  0.65800  0.05418  0.42819  1.0000
  H   H4940     1.0  0.59029  0.08866  0.41971  1.0000
  H   H4941     1.0  0.61012  0.08508  0.40814  1.0000
  H   H4942     1.0  0.59386  0.08388  0.40084  1.0000
  H   H4943     1.0  0.72557  0.16738  0.27801  1.0000
  H   H4944     1.0  0.71554  0.21400  0.06649  1.0000
  C   C2812     1.0  0.66610  0.14291  0.23234  1.0000
  C   C2813     1.0  0.65991  0.19683  0.21403  1.0000
  H   H4945     1.0  0.68870  0.02650  0.28897  1.0000
  H   H4946     1.0  0.66973  0.08351  0.25567  1.0000
  C   C2814     1.0  0.70464  0.07733  0.25302  1.0000
  H   H4947     1.0  0.68474  0.08368  0.27078  1.0000
  H   H4948     1.0  0.55189  0.00370  0.43542  1.0000
  C   C2815     1.0  0.72939  0.05618  0.29413  1.0000
  S   S648      1.0  0.49372  0.01549  0.30113  1.0000
  C   C2816     1.0  0.71249  0.01496  0.28097  1.0000
  H   H4949     1.0  0.71887  0.98601  0.20822  1.0000
  C   C2817     1.0  0.66171  0.07209  0.24280  1.0000
  H   H4950     1.0  0.71908  0.07468  0.14088  1.0000
  H   H4951     1.0  0.70861  0.04475  0.28286  1.0000
  H   H4952     1.0  0.53591  0.10565  0.34447  1.0000
  H   H4953     1.0  0.71500  0.99366  0.25604  1.0000
  N   N155      1.0  0.60540  0.06029  0.19508  1.0000
  C   C2818     1.0  0.60561  0.04766  0.18705  1.0000
  C   C2819     1.0  0.58931  0.07119  0.19728  1.0000
  C   C2820     1.0  0.61719  0.06979  0.18444  1.0000
  C   C2821     1.0  0.61041  0.05339  0.21054  1.0000
  C   C2822     1.0  0.60019  0.04290  0.22325  1.0000
  C   C2823     1.0  0.62166  0.03604  0.18334  1.0000
  C   C2824     1.0  0.61683  0.08531  0.18881  1.0000
  C   C2825     1.0  0.57474  0.06392  0.20058  1.0000
  C   C2826     1.0  0.55949  0.07547  0.20573  1.0000
  C   C2827     1.0  0.60755  0.03552  0.23761  1.0000
  C   C2828     1.0  0.62028  0.02385  0.17532  1.0000
  C   C2829     1.0  0.62947  0.09352  0.17731  1.0000
  H   H4954     1.0  0.60173  0.05324  0.17574  1.0000
  H   H4955     1.0  0.59703  0.04036  0.19412  1.0000
  H   H4956     1.0  0.58776  0.07742  0.20683  1.0000
  H   H4957     1.0  0.58824  0.08059  0.18646  1.0000
  H   H4958     1.0  0.61559  0.07290  0.17210  1.0000
  H   H4959     1.0  0.62943  0.06271  0.18416  1.0000
  H   H4960     1.0  0.62271  0.04650  0.20857  1.0000
  H   H4961     1.0  0.61052  0.06287  0.21606  1.0000
  H   H4962     1.0  0.59882  0.03322  0.21884  1.0000
  H   H4963     1.0  0.58850  0.05014  0.22736  1.0000
  H   H4964     1.0  0.63080  0.04221  0.17526  1.0000
  H   H4965     1.0  0.62584  0.02953  0.19425  1.0000
  H   H4966     1.0  0.61900  0.08307  0.20073  1.0000
  H   H4967     1.0  0.60534  0.09371  0.18847  1.0000
  H   H4968     1.0  0.57402  0.06105  0.18968  1.0000
  H   H4969     1.0  0.57518  0.05299  0.20979  1.0000
  H   H4970     1.0  0.54926  0.07009  0.20779  1.0000
  H   H4971     1.0  0.55942  0.07840  0.21687  1.0000
  H   H4972     1.0  0.55811  0.08646  0.19653  1.0000
  H   H4973     1.0  0.61931  0.02787  0.23433  1.0000
  H   H4974     1.0  0.60879  0.04482  0.24273  1.0000
  H   H4975     1.0  0.59986  0.02827  0.24671  1.0000
  H   H4976     1.0  0.63192  0.01577  0.17276  1.0000
  H   H4977     1.0  0.61169  0.01678  0.18309  1.0000
  H   H4978     1.0  0.61653  0.02967  0.16404  1.0000
  H   H4979     1.0  0.64130  0.08564  0.17705  1.0000
  H   H4980     1.0  0.62711  0.09705  0.16529  1.0000
  H   H4981     1.0  0.62949  0.10420  0.18104  1.0000
  C   C2830     1.0  0.72098  0.01575  0.20853  1.0000
  H   H4982     1.0  0.73545  0.15778  0.03617  1.0000
  C   C2831     1.0  0.61797  0.15837  0.26300  1.0000
  H   H4983     1.0  0.53263  0.02792  0.43276  1.0000
  C   C2832     1.0  0.51811  0.00987  0.44063  1.0000
  H   H4984     1.0  0.70382  0.01022  0.23053  1.0000
  H   H4985     1.0  0.68976  0.10895  0.02031  1.0000
  H   H4986     1.0  0.72804  0.06126  0.28218  1.0000
  H   H4987     1.0  0.64307  0.14061  0.24591  1.0000
  H   H4988     1.0  0.70430  0.21393  0.16379  1.0000
  H   H4989     1.0  0.73543  0.10274  0.10718  1.0000
  H   H4990     1.0  0.56160  0.06272  0.31196  1.0000
  H   H4991     1.0  0.58348  0.01005  0.43911  1.0000
  N   N156      1.0  0.57800  0.21696  0.16159  1.0000
  H   H4992     1.0  0.70568  0.22946  0.13613  1.0000
  C   C2833     1.0  0.70414  0.01414  0.21776  1.0000
  C   C2834     1.0  0.57280  0.11045  0.35852  1.0000
  N   N157      1.0  0.59239  0.12457  0.33610  1.0000
  C   C2835     1.0  0.60792  0.12914  0.33323  1.0000
  C   C2836     1.0  0.59445  0.11241  0.32677  1.0000
  C   C2837     1.0  0.60600  0.09658  0.33134  1.0000
  C   C2838     1.0  0.58429  0.14836  0.31399  1.0000
  C   C2839     1.0  0.60772  0.14247  0.34099  1.0000
  C   C2840     1.0  0.62380  0.14681  0.33618  1.0000
  C   C2841     1.0  0.60662  0.08499  0.32167  1.0000
  H   H4993     1.0  0.58417  0.12773  0.36004  1.0000
  H   H4994     1.0  0.59709  0.10953  0.35814  1.0000
  H   H4995     1.0  0.61682  0.11891  0.33777  1.0000
  H   H4996     1.0  0.61285  0.13256  0.32044  1.0000
  H   H4997     1.0  0.59872  0.11703  0.31407  1.0000
  H   H4998     1.0  0.60225  0.09101  0.34383  1.0000
  H   H4999     1.0  0.61816  0.09821  0.32932  1.0000
  H   H5000     1.0  0.58734  0.14108  0.30512  1.0000
  H   H5001     1.0  0.59443  0.15362  0.31258  1.0000
  H   H5002     1.0  0.59894  0.15326  0.33751  1.0000
  H   H5003     1.0  0.60498  0.13863  0.35399  1.0000
  H   H5004     1.0  0.62345  0.15630  0.34190  1.0000
  H   H5005     1.0  0.63296  0.13650  0.33999  1.0000
  H   H5006     1.0  0.62711  0.15102  0.32323  1.0000
  H   H5007     1.0  0.61030  0.08993  0.30890  1.0000
  H   H5008     1.0  0.59493  0.08209  0.32421  1.0000
  C   C2842     1.0  0.72245  0.15634  0.28574  1.0000
  H   H5009     1.0  0.65185  0.08227  0.24068  1.0000
  Fe  Fe322     1.0  0.50912  0.01852  0.27721  1.0000
  S   S649      1.0  0.51975  0.99678  0.26722  1.0000
  H   H5010     1.0  0.58353  0.09385  0.28618  1.0000
  H   H5011     1.0  0.67055  0.07019  0.07908  1.0000
  H   H5012     1.0  0.69178  0.04560  0.08411  1.0000
  C   C2843     1.0  0.60647  0.06808  0.28474  1.0000
  C   C2844     1.0  0.73453  0.14789  0.29590  1.0000
  H   H5013     1.0  0.58293  0.10986  0.32746  1.0000
  C   C2845     1.0  0.69438  0.07317  0.26974  1.0000
  C   C2846     1.0  0.72721  0.06103  0.19853  1.0000
  C   C2847     1.0  0.66023  0.19657  0.00773  1.0000
  S   S650      1.0  0.55971  0.99481  0.39312  1.0000
  S   S651      1.0  0.70909  0.12077  0.98271  1.0000
  C   C2848     1.0  0.55161  0.00493  0.30694  1.0000
  H   H5014     1.0  0.64647  0.12246  0.05757  1.0000
  C   C2849     1.0  0.51240  0.13892  0.47886  1.0000
  H   H5015     1.0  0.56870  0.19440  0.19139  1.0000
  H   H5016     1.0  0.66515  0.19156  0.01847  1.0000
  H   H5017     1.0  0.56913  0.17115  0.18157  1.0000
  H   H5018     1.0  0.64271  0.15513  0.22848  1.0000
  H   H5019     1.0  0.51504  0.03832  0.41922  1.0000
  H   H5020     1.0  0.54047  0.03221  0.36480  1.0000
  H   H5021     1.0  0.67387  0.21420  0.99766  1.0000
  H   H5022     1.0  0.59967  0.01849  0.34117  1.0000
  C   C2850     1.0  0.67240  0.20393  0.12465  1.0000
  H   H5023     1.0  0.73292  0.16142  0.01628  1.0000
  C   C2851     1.0  0.65586  0.12491  0.06166  1.0000
  H   H5024     1.0  0.56682  0.06195  0.28211  1.0000
  H   H5025     1.0  0.57889  0.01803  0.32876  1.0000
  N   N158      1.0  0.68815  0.05840  0.27357  1.0000
  H   H5026     1.0  0.71610  0.01531  0.29161  1.0000
  C   C2852     1.0  0.70248  0.09609  0.04714  1.0000
  H   H5027     1.0  0.50499  0.14322  0.46996  1.0000
  H   H5028     1.0  0.73435  0.15579  0.30331  1.0000
  H   H5029     1.0  0.56694  0.11561  0.27818  1.0000
  C   C2853     1.0  0.62839  0.16966  0.25163  1.0000
  H   H5030     1.0  0.61856  0.21960  0.12469  1.0000
  H   H5031     1.0  0.54405  0.22363  0.16375  1.0000
  H   H5032     1.0  0.72719  0.18586  0.03604  1.0000
  H   H5033     1.0  0.71342  0.98480  0.23325  1.0000
  H   H5034     1.0  0.66326  0.09550  0.05722  1.0000
  H   H5035     1.0  0.65646  0.20611  0.22093  1.0000
  H   H5036     1.0  0.68976  0.04061  0.06688  1.0000
  C   C2854     1.0  0.73355  0.04316  0.32491  1.0000
  C   C2855     1.0  0.72998  0.23086  0.10137  1.0000
  C   C2856     1.0  0.69243  0.02994  0.21560  1.0000
  C   C2857     1.0  0.64865  0.15043  0.23859  1.0000
  H   H5037     1.0  0.71845  0.08840  0.02627  1.0000
  H   H5038     1.0  0.70769  0.98503  0.12410  1.0000
  C   C2858     1.0  0.57819  0.08358  0.28821  1.0000
  C   C2859     1.0  0.68364  0.04716  0.07634  1.0000
  H   H5039     1.0  0.72172  0.14863  0.27845  1.0000
  H   H5040     1.0  0.53801  0.10664  0.31653  1.0000
  C   C2860     1.0  0.65429  0.17575  0.23871  1.0000
  H   H5041     1.0  0.53966  0.08704  0.32813  1.0000
  C   C2861     1.0  0.56203  0.09151  0.31246  1.0000
  H   H5042     1.0  0.51499  0.00182  0.45208  1.0000
  C   C2862     1.0  0.71014  0.09247  0.25063  1.0000
  H   H5043     1.0  0.65779  0.06113  0.24411  1.0000
  H   H5044     1.0  0.57814  0.08268  0.27620  1.0000
  H   H5045     1.0  0.63810  0.18939  0.22309  1.0000
  C   C2863     1.0  0.65076  0.18386  0.22220  1.0000
  H   H5046     1.0  0.67235  0.15180  0.22386  1.0000
  H   H5047     1.0  0.68094  0.11995  0.05786  1.0000
  C   C2864     1.0  0.67805  0.06457  0.06930  1.0000
  H   H5048     1.0  0.67350  0.09546  0.07141  1.0000
  H   H5049     1.0  0.67053  0.06541  0.06121  1.0000
  C   C2865     1.0  0.55520  0.07170  0.30338  1.0000
  H   H5050     1.0  0.72791  0.99577  0.18980  1.0000
  C   C2866     1.0  0.68632  0.08605  0.03531  1.0000
  H   H5051     1.0  0.73419  0.00331  0.23209  1.0000
  H   H5052     1.0  0.55156  0.01347  0.45029  1.0000
  C   C2867     1.0  0.54578  0.09688  0.32307  1.0000
  N   N159      1.0  0.56166  0.08641  0.29810  1.0000
  H   H5053     1.0  0.64786  0.07915  0.31381  1.0000
  H   H5054     1.0  0.53161  0.01519  0.35345  1.0000
  C   C2868     1.0  0.69811  0.02807  0.27821  1.0000
  C   C2869     1.0  0.56851  0.10484  0.37637  1.0000
  H   H5055     1.0  0.63542  0.17029  0.27845  1.0000
  H   H5056     1.0  0.52489  0.13578  0.47268  1.0000
  H   H5057     1.0  0.59481  0.19811  0.13881  1.0000
  C   C2870     1.0  0.52975  0.04908  0.47024  1.0000
  H   H5058     1.0  0.72606  0.16614  0.09581  1.0000
  N   N160      1.0  0.57089  0.99031  0.32622  1.0000
  H   H5059     1.0  0.72150  0.07486  0.04449  1.0000
  H   H5060     1.0  0.67505  0.04745  0.26457  1.0000
  H   H5061     1.0  0.66916  0.04881  0.29061  1.0000
  H   H5062     1.0  0.65420  0.17558  0.26995  1.0000
  H   H5063     1.0  0.57765  0.00507  0.34785  1.0000
  H   H5064     1.0  0.55809  0.09947  0.37968  1.0000
  C   C2871     1.0  0.73185  0.09471  0.03888  1.0000
  C   C2872     1.0  0.67395  0.09839  0.05854  1.0000
  C   C2873     1.0  0.49423  0.03129  0.44523  1.0000
  H   H5065     1.0  0.58383  0.98870  0.42291  1.0000
  H   H5066     1.0  0.72372  0.02440  0.21340  1.0000
  C   C2874     1.0  0.66738  0.12994  0.22399  1.0000
  H   H5067     1.0  0.67278  0.19196  0.21246  1.0000
  C   C2875     1.0  0.58461  0.00676  0.33557  1.0000
  H   H5068     1.0  0.70959  0.00335  0.28289  1.0000
  H   H5069     1.0  0.70290  0.10438  0.14197  1.0000
  H   H5070     1.0  0.51918  0.00371  0.47633  1.0000
  H   H5071     1.0  0.67337  0.04209  0.08350  1.0000
  N   N161      1.0  0.64583  0.16276  0.24792  1.0000
  H   H5072     1.0  0.70119  0.07249  0.27853  1.0000
  H   H5073     1.0  0.67784  0.00251  0.11150  1.0000
  Fe  Fe323     1.0  0.56669  0.01808  0.38745  1.0000
  H   H5074     1.0  0.72618  0.06501  0.09743  1.0000
  C   C2876     1.0  0.68557  0.99954  0.11999  1.0000
  H   H5075     1.0  0.61464  0.05754  0.28991  1.0000
  H   H5076     1.0  0.62163  0.15328  0.27438  1.0000
  C   C2877     1.0  0.67205  0.11656  0.05388  1.0000
  H   H5077     1.0  0.69753  0.07323  0.07044  1.0000
  H   H5078     1.0  0.68040  0.02837  0.22196  1.0000
  C   C2878     1.0  0.68173  0.10095  0.02284  1.0000
  H   H5079     1.0  0.69459  0.09127  0.00221  1.0000
  H   H5080     1.0  0.54686  0.12293  0.26181  1.0000
  H   H5081     1.0  0.49806  0.00592  0.42205  1.0000
  H   H5082     1.0  0.49434  0.05323  0.38593  1.0000
  H   H5083     1.0  0.71521  0.06793  0.25095  1.0000
  C   C2879     1.0  0.73004  0.05011  0.17153  1.0000
  H   H5084     1.0  0.73312  0.20018  0.05953  1.0000
  C   C2880     1.0  0.59453  0.21575  0.15169  1.0000
  H   H5085     1.0  0.54276  0.07417  0.30993  1.0000
  C   C2881     1.0  0.55001  0.04849  0.29664  1.0000
  Fe  Fe324     1.0  0.50632  0.03068  0.30651  1.0000
  C   C2882     1.0  0.50910  0.02935  0.41862  1.0000
  H   H5086     1.0  0.65605  0.07133  0.26742  1.0000
  H   H5087     1.0  0.67881  0.99550  0.13202  1.0000
  C   C2883     1.0  0.69223  0.07258  0.06096  1.0000
  H   H5088     1.0  0.67688  0.07950  0.03796  1.0000
  C   C2884     1.0  0.71856  0.08744  0.03873  1.0000
  H   H5089     1.0  0.72408  0.22969  0.15225  1.0000
  C   C2885     1.0  0.65468  0.06806  0.31012  1.0000
  H   H5090     1.0  0.56868  0.08168  0.32018  1.0000
  C   C2886     1.0  0.65194  0.15515  0.26276  1.0000
  H   H5091     1.0  0.65711  0.18708  0.00441  1.0000
  H   H5092     1.0  0.58636  0.05790  0.29569  1.0000
  H   H5093     1.0  0.67165  0.07325  0.23242  1.0000
  H   H5094     1.0  0.69224  0.03484  0.20298  1.0000
  N   N162      1.0  0.68865  0.08859  0.05022  1.0000
  C   C2887     1.0  0.55508  0.06416  0.29004  1.0000
  H   H5095     1.0  0.65177  0.16388  0.29811  1.0000
  H   H5096     1.0  0.58499  0.19145  0.16604  1.0000
  H   H5097     1.0  0.73237  0.22381  0.12552  1.0000
  H   H5098     1.0  0.72249  0.01609  0.27067  1.0000
  H   H5099     1.0  0.59105  0.99084  0.37284  1.0000
  Fe  Fe325     1.0  0.65257  0.23255  0.14473  1.0000
  C   C2888     1.0  0.55449  0.11566  0.28406  1.0000
  H   H5100     1.0  0.64756  0.14424  0.26879  1.0000
  C   C2889     1.0  0.73412  0.23384  0.11539  1.0000
  H   H5101     1.0  0.73303  0.09300  0.05116  1.0000
  H   H5102     1.0  0.69704  0.07839  0.02965  1.0000
  H   H5103     1.0  0.59775  0.22736  0.14789  1.0000
  C   C2890     1.0  0.70667  0.21475  0.99185  1.0000
  C   C2891     1.0  0.58604  0.99264  0.32830  1.0000
  H   H5104     1.0  0.59353  0.15835  0.27418  1.0000
  C   C2892     1.0  0.55840  0.18069  0.18290  1.0000
  H   H5105     1.0  0.60821  0.01057  0.32381  1.0000
  H   H5106     1.0  0.69553  0.03846  0.22037  1.0000
  C   C2893     1.0  0.58989  0.06888  0.29505  1.0000
  H   H5107     1.0  0.67238  0.13743  0.24208  1.0000
  H   H5108     1.0  0.61080  0.07867  0.28395  1.0000
  C   C2894     1.0  0.72037  0.08545  0.13144  1.0000
  H   H5109     1.0  0.59605  0.99445  0.45011  1.0000
  H   H5110     1.0  0.60307  0.20791  0.15880  1.0000
  H   H5111     1.0  0.69426  0.02635  0.26831  1.0000
  H   H5112     1.0  0.55116  0.04288  0.28683  1.0000
  H   H5113     1.0  0.65512  0.13780  0.05842  1.0000
  C   C2895     1.0  0.66682  0.07177  0.29494  1.0000
  C   C2896     1.0  0.56281  0.19617  0.18157  1.0000
  C   C2897     1.0  0.59779  0.20974  0.13637  1.0000
  H   H5114     1.0  0.51166  0.03764  0.38601  1.0000
  H   H5115     1.0  0.62383  0.17374  0.24067  1.0000
  H   H5116     1.0  0.71755  0.07749  0.30247  1.0000
  H   H5117     1.0  0.67988  0.12384  0.22092  1.0000
  S   S652      1.0  0.62926  0.22567  0.15256  1.0000
  H   H5118     1.0  0.56930  0.19949  0.15610  1.0000
  C   C2898     1.0  0.65401  0.15613  0.28978  1.0000
  H   H5119     1.0  0.62594  0.18039  0.25636  1.0000
  H   H5120     1.0  0.59933  0.17623  0.27302  1.0000
  H   H5121     1.0  0.66282  0.13489  0.21309  1.0000
  C   C2899     1.0  0.54981  0.23371  0.16064  1.0000
  H   H5122     1.0  0.73279  0.17784  0.11437  1.0000
  H   H5123     1.0  0.59721  0.18486  0.98635  1.0000
  H   H5124     1.0  0.54248  0.01597  0.30671  1.0000
  H   H5125     1.0  0.58612  0.21267  0.18299  1.0000
  H   H5126     1.0  0.72548  0.19029  0.01577  1.0000
  H   H5127     1.0  0.71758  0.22958  0.10432  1.0000
  C   C2900     1.0  0.69498  0.22430  0.16046  1.0000
  H   H5128     1.0  0.65413  0.17539  0.21449  1.0000
  H   H5129     1.0  0.55717  0.99618  0.34832  1.0000
  H   H5130     1.0  0.73769  0.21985  0.09822  1.0000
  H   H5131     1.0  0.72910  0.20372  0.07905  1.0000
  H   H5132     1.0  0.53703  0.99185  0.33788  1.0000
  H   H5133     1.0  0.54511  0.99540  0.31223  1.0000
  H   H5134     1.0  0.71828  0.18415  0.98942  1.0000
  H   H5135     1.0  0.58965  0.01354  0.45496  1.0000
  H   H5136     1.0  0.71899  0.20829  0.99201  1.0000
  H   H5137     1.0  0.69898  0.20972  0.00283  1.0000
  H   H5138     1.0  0.55030  0.00477  0.28342  1.0000
  Fe  Fe326     1.0  0.62862  0.23022  0.17580  1.0000
  H   H5139     1.0  0.70655  0.99171  0.10374  1.0000
  H   H5140     1.0  0.68919  0.01038  0.11973  1.0000
  H   H5141     1.0  0.68473  0.18166  0.98913  1.0000
  H   H5142     1.0  0.72374  0.08824  0.15664  1.0000
  C   C2901     1.0  0.49286  0.99394  0.44599  1.0000
  H   H5143     1.0  0.73048  0.13726  0.30367  1.0000
  C   C2902     1.0  0.73452  0.13785  0.35037  1.0000
  C   C2903     1.0  0.73612  0.10523  0.11829  1.0000
  C   C2904     1.0  0.74050  0.17710  0.10302  1.0000
  C   C2905     1.0  0.73159  0.09536  0.14741  1.0000
  N   N163      1.0  0.73453  0.09108  0.13163  1.0000
  H   H5144     1.0  0.73933  0.09648  0.26675  1.0000
  H   H5145     1.0  0.73230  0.09347  0.17838  1.0000
  C   C2906     1.0  0.56713  0.22904  0.15201  1.0000
  H   H5146     1.0  0.73658  0.11223  0.16691  1.0000
  C   C2907     1.0  0.73879  0.03387  0.31369  1.0000
  C   C2908     1.0  0.72968  0.15738  0.98143  1.0000
  H   H5147     1.0  0.70962  0.23218  0.00243  1.0000
  C   C2909     1.0  0.70566  0.23180  0.99202  1.0000
  C   C2910     1.0  0.73694  0.04040  0.29825  1.0000
  C   C2911     1.0  0.73644  0.23049  0.04317  1.0000
  C   C2912     1.0  0.56069  0.98615  0.34237  1.0000
  C   C2913     1.0  0.73730  0.22241  0.06050  1.0000
  H   H5148     1.0  0.72427  0.23176  0.04182  1.0000
  H   H5149     1.0  0.65244  0.23383  0.09598  1.0000
  H   H5150     1.0  0.53488  0.98508  0.36705  1.0000
  H   H5151     1.0  0.74089  0.12758  0.35723  1.0000
  H   H5152     1.0  0.49722  0.98414  0.32400  1.0000
  C   C2914     1.0  0.50689  0.98416  0.27048  1.0000
  H   H5153     1.0  0.50965  0.11282  0.53511  1.0000
  S   S653      1.0  0.51490  0.04747  0.51855  1.0000
  C   C2915     1.0  0.63478  0.02651  0.81451  1.0000
  Fe  Fe327     1.0  0.56027  0.06247  0.60140  1.0000
  S   S654      1.0  0.58464  0.05249  0.60618  1.0000
  S   S655      1.0  0.55796  0.06706  0.57604  1.0000
  Fe  Fe328     1.0  0.54542  0.05980  0.63662  1.0000
  S   S656      1.0  0.56857  0.04925  0.64380  1.0000
  S   S657      1.0  0.52260  0.06475  0.65444  1.0000
  Fe  Fe329     1.0  0.57771  0.06775  0.62392  1.0000
  S   S658      1.0  0.59059  0.08453  0.62734  1.0000
  Fe  Fe330     1.0  0.57320  0.03499  0.62562  1.0000
  S   S659      1.0  0.58426  0.00894  0.62933  1.0000
  S   S660      1.0  0.55416  0.07919  0.61753  1.0000
  S   S661      1.0  0.54927  0.04426  0.61992  1.0000
  C   C2916     1.0  0.51221  0.07021  0.57616  1.0000
  H   H5154     1.0  0.56841  0.10179  0.86742  1.0000
  Fe  Fe331     1.0  0.70556  0.15319  0.92964  1.0000
  S   S662      1.0  0.49597  0.06861  0.55535  1.0000
  Fe  Fe332     1.0  0.68399  0.13076  0.93552  1.0000
  S   S663      1.0  0.67187  0.11819  0.92558  1.0000
  Fe  Fe333     1.0  0.67262  0.15937  0.95000  1.0000
  S   S664      1.0  0.65213  0.17910  0.95535  1.0000
  S   S665      1.0  0.68162  0.15662  0.92519  1.0000
  Fe  Fe334     1.0  0.68822  0.06053  0.87413  1.0000
  S   S666      1.0  0.67139  0.04591  0.89041  1.0000
  S   S667      1.0  0.70523  0.07009  0.88105  1.0000
  Fe  Fe335     1.0  0.67933  0.05852  0.84478  1.0000
  S   S668      1.0  0.66123  0.04456  0.85846  1.0000
  S   S669      1.0  0.68481  0.06437  0.81830  1.0000
  Fe  Fe336     1.0  0.65487  0.06090  0.87488  1.0000
  S   S670      1.0  0.62982  0.07076  0.88532  1.0000
  Fe  Fe337     1.0  0.67932  0.03078  0.87253  1.0000
  S   S671      1.0  0.68593  0.00436  0.87565  1.0000
  S   S672      1.0  0.67113  0.07648  0.85975  1.0000
  S   S673      1.0  0.69788  0.04391  0.85786  1.0000
  H   H5155     1.0  0.60888  0.03510  0.78925  1.0000
  C   C2917     1.0  0.49978  0.09903  0.51708  1.0000
  C   C2918     1.0  0.56989  0.11281  0.86940  1.0000
  H   H5156     1.0  0.49694  0.09947  0.50580  1.0000
  H   H5157     1.0  0.72783  0.04122  0.83686  1.0000
  C   C2919     1.0  0.54122  0.07386  0.48725  1.0000
  S   S674      1.0  0.69630  0.15819  0.95365  1.0000
  H   H5158     1.0  0.56287  0.02409  0.81755  1.0000
  C   C2920     1.0  0.57963  0.99509  0.83031  1.0000
  H   H5159     1.0  0.63141  0.08149  0.80732  1.0000
  C   C2921     1.0  0.62046  0.03058  0.79264  1.0000
  Fe  Fe338     1.0  0.57418  0.13410  0.82021  1.0000
  S   S675      1.0  0.59719  0.11675  0.82065  1.0000
  H   H5160     1.0  0.52485  0.07305  0.59192  1.0000
  S   S676      1.0  0.58760  0.10031  0.79713  1.0000
  Fe  Fe339     1.0  0.58345  0.09883  0.82294  1.0000
  S   S677      1.0  0.58632  0.07561  0.83995  1.0000
  Fe  Fe340     1.0  0.59912  0.11994  0.79478  1.0000
  S   S678      1.0  0.62227  0.12084  0.77779  1.0000
  Fe  Fe341     1.0  0.65109  0.08013  0.67888  1.0000
  S   S679      1.0  0.65077  0.10607  0.67135  1.0000
  S   S680      1.0  0.64224  0.06439  0.66908  1.0000
  Fe  Fe342     1.0  0.66589  0.07603  0.70680  1.0000
  S   S681      1.0  0.66615  0.10149  0.70188  1.0000
  S   S682      1.0  0.67500  0.05955  0.72743  1.0000
  Fe  Fe343     1.0  0.64212  0.10567  0.69728  1.0000
  S   S683      1.0  0.62101  0.12232  0.70809  1.0000
  Fe  Fe344     1.0  0.67504  0.09949  0.67679  1.0000
  S   S684      1.0  0.69841  0.10632  0.66454  1.0000
  S   S685      1.0  0.64113  0.08027  0.70446  1.0000
  S   S686      1.0  0.67611  0.07354  0.68201  1.0000
  C   C2922     1.0  0.62122  0.12083  0.75878  1.0000
  C   C2923     1.0  0.60837  0.12996  0.75233  1.0000
  C   C2924     1.0  0.60835  0.13050  0.73668  1.0000
  C   C2925     1.0  0.62091  0.12151  0.72770  1.0000
  C   C2926     1.0  0.63335  0.11188  0.73449  1.0000
  C   C2927     1.0  0.63366  0.11181  0.74985  1.0000
  H   H5161     1.0  0.59866  0.13689  0.75924  1.0000
  H   H5162     1.0  0.59863  0.13788  0.73152  1.0000
  H   H5163     1.0  0.64273  0.10440  0.72798  1.0000
  H   H5164     1.0  0.64337  0.10446  0.75496  1.0000
  C   C2928     1.0  0.72021  0.07192  0.72814  1.0000
  C   C2929     1.0  0.71337  0.07830  0.71507  1.0000
  C   C2930     1.0  0.69963  0.07428  0.71477  1.0000
  C   C2931     1.0  0.69245  0.06415  0.72771  1.0000
  C   C2932     1.0  0.69920  0.05785  0.74088  1.0000
  C   C2933     1.0  0.71313  0.06169  0.74108  1.0000
  H   H5165     1.0  0.71874  0.08624  0.70506  1.0000
  H   H5166     1.0  0.69474  0.07890  0.70440  1.0000
  H   H5167     1.0  0.69357  0.05015  0.75097  1.0000
  H   H5168     1.0  0.71810  0.05710  0.75141  1.0000
  C   C2934     1.0  0.61771  0.07260  0.87258  1.0000
  C   C2935     1.0  0.60281  0.06914  0.87877  1.0000
  C   C2936     1.0  0.59313  0.07021  0.86868  1.0000
  C   C2937     1.0  0.59810  0.07531  0.85245  1.0000
  C   C2938     1.0  0.61276  0.07939  0.84629  1.0000
  C   C2939     1.0  0.62277  0.07760  0.85633  1.0000
  H   H5169     1.0  0.59892  0.06527  0.89133  1.0000
  H   H5170     1.0  0.58178  0.06710  0.87346  1.0000
  H   H5171     1.0  0.61659  0.08339  0.83376  1.0000
  H   H5172     1.0  0.63433  0.08022  0.85154  1.0000
  C   C2940     1.0  0.70260  0.05230  0.81083  1.0000
  C   C2941     1.0  0.71171  0.05767  0.79606  1.0000
  H   H5173     1.0  0.73764  0.19126  0.91568  1.0000
  H   H5174     1.0  0.52949  0.09873  0.55681  1.0000
  C   C2942     1.0  0.72300  0.02861  0.81456  1.0000
  C   C2943     1.0  0.70809  0.03757  0.81984  1.0000
  H   H5175     1.0  0.70743  0.06897  0.78894  1.0000
  H   H5176     1.0  0.69138  0.22281  0.97493  1.0000
  H   H5177     1.0  0.54145  0.00961  0.67543  1.0000
  H   H5178     1.0  0.70087  0.03307  0.83095  1.0000
  C   C2944     1.0  0.50608  0.02220  0.69579  1.0000
  H   H5179     1.0  0.59927  0.15043  0.82777  1.0000
  C   C2945     1.0  0.52933  0.04940  0.70483  1.0000
  C   C2946     1.0  0.68162  0.10490  0.91322  1.0000
  C   C2947     1.0  0.69802  0.10003  0.90966  1.0000
  C   C2948     1.0  0.70524  0.08933  0.89975  1.0000
  C   C2949     1.0  0.69609  0.08348  0.89342  1.0000
  C   C2950     1.0  0.67972  0.08846  0.89691  1.0000
  C   C2951     1.0  0.67253  0.09915  0.90675  1.0000
  H   H5180     1.0  0.71791  0.08548  0.89710  1.0000
  H   H5181     1.0  0.67257  0.08396  0.89215  1.0000
  H   H5182     1.0  0.65985  0.10284  0.90952  1.0000
  C   C2952     1.0  0.63833  0.17978  0.94477  1.0000
  C   C2953     1.0  0.58714  0.11136  0.86925  1.0000
  C   C2954     1.0  0.51332  0.06607  0.56199  1.0000
  C   C2955     1.0  0.61530  0.18192  0.92851  1.0000
  C   C2956     1.0  0.61587  0.17128  0.94294  1.0000
  C   C2957     1.0  0.62746  0.17010  0.95099  1.0000
  H   H5183     1.0  0.72722  0.11442  0.66365  1.0000
  H   H5184     1.0  0.60739  0.16387  0.94787  1.0000
  H   H5185     1.0  0.62790  0.16182  0.96213  1.0000
  C   C2958     1.0  0.62109  0.03413  0.85682  1.0000
  H   H5186     1.0  0.72485  0.09071  0.85325  1.0000
  H   H5187     1.0  0.72139  0.23087  0.79789  1.0000
  H   H5188     1.0  0.53060  0.09819  0.48284  1.0000
  H   H5189     1.0  0.50853  0.11558  0.48415  1.0000
  H   H5190     1.0  0.52912  0.04476  0.48273  1.0000
  H   H5191     1.0  0.56932  0.02432  0.50729  1.0000
  H   H5192     1.0  0.58997  0.10707  0.73982  1.0000
  C   C2959     1.0  0.70215  0.12342  0.66718  1.0000
  C   C2960     1.0  0.71382  0.12970  0.71043  1.0000
  H   H5193     1.0  0.57442  0.09969  0.75391  1.0000
  C   C2961     1.0  0.70216  0.21367  0.97693  1.0000
  H   H5194     1.0  0.70886  0.20697  0.92115  1.0000
  H   H5195     1.0  0.71517  0.07363  0.84656  1.0000
  H   H5196     1.0  0.54905  0.03464  0.51153  1.0000
  H   H5197     1.0  0.72560  0.19104  0.96921  1.0000
  H   H5198     1.0  0.61600  0.18772  0.97408  1.0000
  C   C2962     1.0  0.53457  0.10731  0.54663  1.0000
  H   H5199     1.0  0.57857  0.99373  0.54830  1.0000
  C   C2963     1.0  0.67149  0.99682  0.87242  1.0000
  C   C2964     1.0  0.65557  0.00338  0.87732  1.0000
  C   C2965     1.0  0.59582  0.20582  0.96759  1.0000
  H   H5200     1.0  0.65212  0.01299  0.88334  1.0000
  C   C2966     1.0  0.60489  0.07876  0.63904  1.0000
  C   C2967     1.0  0.61050  0.06297  0.64556  1.0000
  C   C2968     1.0  0.62186  0.05882  0.65477  1.0000
  C   C2969     1.0  0.62764  0.07037  0.65771  1.0000
  C   C2970     1.0  0.62186  0.08620  0.65139  1.0000
  C   C2971     1.0  0.61064  0.09034  0.64199  1.0000
  H   H5201     1.0  0.60621  0.05394  0.64335  1.0000
  H   H5202     1.0  0.62630  0.04655  0.65957  1.0000
  H   H5203     1.0  0.62626  0.09520  0.65349  1.0000
  H   H5204     1.0  0.60643  0.10258  0.63694  1.0000
  H   H5205     1.0  0.54199  0.99513  0.78038  1.0000
  C   C2972     1.0  0.53730  0.04591  0.67794  1.0000
  C   C2973     1.0  0.53989  0.04197  0.69323  1.0000
  H   H5206     1.0  0.54553  0.04018  0.66907  1.0000
  H   H5207     1.0  0.55036  0.03351  0.69593  1.0000
  C   C2974     1.0  0.64406  0.99733  0.87474  1.0000
  H   H5208     1.0  0.54680  0.10656  0.54739  1.0000
  C   C2975     1.0  0.55743  0.00351  0.62530  1.0000
  C   C2976     1.0  0.57369  0.99847  0.62383  1.0000
  H   H5209     1.0  0.52354  0.03684  0.58490  1.0000
  H   H5210     1.0  0.52759  0.11934  0.54741  1.0000
  H   H5211     1.0  0.61558  0.20987  0.94931  1.0000
  H   H5212     1.0  0.55119  0.01361  0.63010  1.0000
  H   H5213     1.0  0.52968  0.11859  0.49805  1.0000
  H   H5214     1.0  0.65890  0.11328  0.84606  1.0000
  C   C2977     1.0  0.54069  0.06576  0.57143  1.0000
  C   C2978     1.0  0.54180  0.06171  0.55722  1.0000
  C   C2979     1.0  0.52820  0.06153  0.55267  1.0000
  H   H5215     1.0  0.70509  0.10441  0.91463  1.0000
  C   C2980     1.0  0.52585  0.06976  0.58103  1.0000
  H   H5216     1.0  0.55325  0.05882  0.54968  1.0000
  H   H5217     1.0  0.52916  0.05850  0.54168  1.0000
  C   C2981     1.0  0.58091  0.10028  0.74144  1.0000
  H   H5218     1.0  0.63638  0.05687  0.79850  1.0000
  H   H5219     1.0  0.71024  0.00855  0.74693  1.0000
  H   H5220     1.0  0.58906  0.00606  0.78210  1.0000
  H   H5221     1.0  0.56463  0.04465  0.50860  1.0000
  H   H5222     1.0  0.73797  0.12854  0.69749  1.0000
  C   C2982     1.0  0.51941  0.99633  0.48783  1.0000
  C   C2983     1.0  0.56170  0.18253  0.79511  1.0000
  H   H5223     1.0  0.57677  0.98640  0.66243  1.0000
  C   C2984     1.0  0.49713  0.98424  0.73904  1.0000
  N   N164      1.0  0.58869  0.08402  0.73855  1.0000
  C   C2985     1.0  0.57687  0.07447  0.74004  1.0000
  C   C2986     1.0  0.59981  0.08479  0.72253  1.0000
  C   C2987     1.0  0.59825  0.07562  0.75093  1.0000
  C   C2988     1.0  0.61213  0.08279  0.75052  1.0000
  C   C2989     1.0  0.59315  0.08468  0.70846  1.0000
  C   C2990     1.0  0.60522  0.08709  0.69295  1.0000
  C   C2991     1.0  0.62209  0.07224  0.76219  1.0000
  H   H5224     1.0  0.58320  0.06278  0.73732  1.0000
  H   H5225     1.0  0.60508  0.09531  0.71926  1.0000
  H   H5226     1.0  0.60994  0.07449  0.72288  1.0000
  H   H5227     1.0  0.60311  0.06310  0.75004  1.0000
  H   H5228     1.0  0.63102  0.02755  0.86245  1.0000
  H   H5229     1.0  0.60762  0.09435  0.75390  1.0000
  H   H5230     1.0  0.62005  0.08442  0.73871  1.0000
  H   H5231     1.0  0.59025  0.07314  0.71001  1.0000
  H   H5232     1.0  0.58236  0.09387  0.70725  1.0000
  H   H5233     1.0  0.60922  0.09818  0.69082  1.0000
  H   H5234     1.0  0.61550  0.07704  0.69305  1.0000
  H   H5235     1.0  0.60002  0.08764  0.68303  1.0000
  H   H5236     1.0  0.61481  0.07058  0.77435  1.0000
  H   H5237     1.0  0.62751  0.06065  0.75901  1.0000
  H   H5238     1.0  0.63170  0.07782  0.76184  1.0000
  H   H5239     1.0  0.50075  0.07388  0.58337  1.0000
  H   H5240     1.0  0.62322  0.05669  0.82611  1.0000
  H   H5241     1.0  0.62905  0.03704  0.78385  1.0000
  H   H5242     1.0  0.55335  0.00741  0.65634  1.0000
  H   H5243     1.0  0.49289  0.99354  0.68910  1.0000
  C   C2992     1.0  0.54049  0.10346  0.78563  1.0000
  H   H5244     1.0  0.50916  0.11419  0.70383  1.0000
  C   C2993     1.0  0.52143  0.99303  0.51470  1.0000
  H   H5245     1.0  0.59551  0.03834  0.86424  1.0000
  H   H5246     1.0  0.64121  0.05267  0.83210  1.0000
  H   H5247     1.0  0.73358  0.21987  0.91099  1.0000
  H   H5248     1.0  0.61087  0.03551  0.83786  1.0000
  H   H5249     1.0  0.49272  0.09212  0.77641  1.0000
  H   H5250     1.0  0.63651  0.01345  0.81764  1.0000
  H   H5251     1.0  0.52597  0.09060  0.67982  1.0000
  H   H5252     1.0  0.53169  0.08178  0.70625  1.0000
  C   C2994     1.0  0.54903  0.99530  0.62081  1.0000
  N   N165      1.0  0.51568  0.10274  0.51454  1.0000
  H   H5253     1.0  0.50638  0.00967  0.69668  1.0000
  H   H5254     1.0  0.53681  0.10001  0.70491  1.0000
  H   H5255     1.0  0.65541  0.05073  0.80302  1.0000
  H   H5256     1.0  0.57575  0.21002  0.92676  1.0000
  N   N166      1.0  0.63597  0.03240  0.82808  1.0000
  H   H5257     1.0  0.71699  0.99977  0.80701  1.0000
  H   H5258     1.0  0.53422  0.06949  0.81171  1.0000
  H   H5259     1.0  0.62971  0.14384  0.81376  1.0000
  C   C2995     1.0  0.60634  0.21719  0.95682  1.0000
  H   H5260     1.0  0.51215  0.00036  0.72619  1.0000
  H   H5261     1.0  0.62204  0.01634  0.84452  1.0000
  H   H5262     1.0  0.66880  0.03629  0.82087  1.0000
  C   C2996     1.0  0.62215  0.02912  0.84143  1.0000
  H   H5263     1.0  0.55811  0.02825  0.78416  1.0000
  H   H5264     1.0  0.50726  0.06557  0.71045  1.0000
  H   H5265     1.0  0.58467  0.21192  0.97415  1.0000
  H   H5266     1.0  0.50845  0.01259  0.74855  1.0000
  C   C2997     1.0  0.52936  0.09458  0.70105  1.0000
  C   C2998     1.0  0.59412  0.99017  0.85217  1.0000
  C   C2999     1.0  0.59711  0.16550  0.88728  1.0000
  H   H5267     1.0  0.69971  0.14491  0.76416  1.0000
  H   H5268     1.0  0.63622  0.16341  0.78947  1.0000
  C   C3000     1.0  0.70072  0.20292  0.93231  1.0000
  H   H5269     1.0  0.70937  0.13713  0.70000  1.0000
  C   C3001     1.0  0.62538  0.23201  0.92709  1.0000
  C   C3002     1.0  0.59030  0.17886  0.78040  1.0000
  H   H5270     1.0  0.63175  0.00220  0.87891  1.0000
  C   C3003     1.0  0.53232  0.02757  0.59065  1.0000
  C   C3004     1.0  0.57507  0.99133  0.57341  1.0000
  C   C3005     1.0  0.72116  0.00741  0.78177  1.0000
  H   H5271     1.0  0.71933  0.09076  0.81160  1.0000
  S   S687      1.0  0.51688  0.06233  0.79350  1.0000
  H   H5272     1.0  0.54288  0.09198  0.53055  1.0000
  H   H5273     1.0  0.71840  0.19689  0.94589  1.0000
  C   C3006     1.0  0.70684  0.02114  0.78182  1.0000
  H   H5274     1.0  0.53648  0.99947  0.62175  1.0000
  C   C3007     1.0  0.49283  0.08469  0.82574  1.0000
  H   H5275     1.0  0.55599  0.22021  0.93364  1.0000
  H   H5276     1.0  0.55353  0.00163  0.81782  1.0000
  C   C3008     1.0  0.71566  0.18618  0.97763  1.0000
  H   H5277     1.0  0.52767  0.00913  0.58326  1.0000
  H   H5278     1.0  0.72309  0.00281  0.77113  1.0000
  C   C3009     1.0  0.51710  0.11858  0.50377  1.0000
  H   H5279     1.0  0.60051  0.99980  0.84631  1.0000
  H   H5280     1.0  0.73163  0.02590  0.86359  1.0000
  H   H5281     1.0  0.64399  0.12548  0.83561  1.0000
  C   C3010     1.0  0.73270  0.21537  0.62705  1.0000
  H   H5282     1.0  0.54258  0.02996  0.80156  1.0000
  H   H5283     1.0  0.73110  0.14625  0.97779  1.0000
  C   C3011     1.0  0.72161  0.07418  0.83410  1.0000
  H   H5284     1.0  0.54962  0.06972  0.67941  1.0000
  H   H5285     1.0  0.68237  0.17721  0.87242  1.0000
  H   H5286     1.0  0.57083  0.13281  0.73509  1.0000
  H   H5287     1.0  0.52696  0.11014  0.67878  1.0000
  H   H5288     1.0  0.51306  0.02686  0.68409  1.0000
  H   H5289     1.0  0.71873  0.01069  0.71830  1.0000
  H   H5290     1.0  0.70421  0.02591  0.79252  1.0000
  H   H5291     1.0  0.70931  0.03077  0.77147  1.0000
  H   H5292     1.0  0.69637  0.01737  0.78127  1.0000
  C   C3012     1.0  0.73241  0.03429  0.80015  1.0000
  C   C3013     1.0  0.52818  0.08762  0.49195  1.0000
  H   H5293     1.0  0.59939  0.99396  0.56779  1.0000
  S   S688      1.0  0.70903  0.12695  0.93776  1.0000
  C   C3014     1.0  0.70632  0.20414  0.94628  1.0000
  H   H5294     1.0  0.58346  0.00644  0.82700  1.0000
  C   C3015     1.0  0.64355  0.07427  0.80501  1.0000
  S   S689      1.0  0.53450  0.04657  0.72283  1.0000
  H   H5295     1.0  0.66151  0.20539  0.89825  1.0000
  H   H5296     1.0  0.64947  0.07899  0.79279  1.0000
  H   H5297     1.0  0.70545  0.22281  0.58621  1.0000
  H   H5298     1.0  0.70674  0.21661  0.94462  1.0000
  C   C3016     1.0  0.54110  0.00943  0.66333  1.0000
  H   H5299     1.0  0.59071  0.12248  0.66029  1.0000
  H   H5300     1.0  0.72733  0.01741  0.82180  1.0000
  N   N167      1.0  0.66915  0.15890  0.87991  1.0000
  C   C3017     1.0  0.65899  0.16690  0.86805  1.0000
  C   C3018     1.0  0.67528  0.17118  0.88341  1.0000
  C   C3019     1.0  0.68318  0.14785  0.87232  1.0000
  C   C3020     1.0  0.66065  0.14957  0.89485  1.0000
  C   C3021     1.0  0.64257  0.15549  0.90003  1.0000
  C   C3022     1.0  0.65417  0.15578  0.86079  1.0000
  C   C3023     1.0  0.69619  0.13972  0.88188  1.0000
  C   C3024     1.0  0.66292  0.18393  0.89124  1.0000
  C   C3025     1.0  0.67063  0.19633  0.89272  1.0000
  C   C3026     1.0  0.63614  0.14604  0.91621  1.0000
  C   C3027     1.0  0.64018  0.16424  0.85307  1.0000
  H   H5301     1.0  0.49916  0.07351  0.82202  1.0000
  H   H5302     1.0  0.59314  0.19921  0.96034  1.0000
  H   H5303     1.0  0.64816  0.17461  0.87321  1.0000
  H   H5304     1.0  0.68339  0.16564  0.89158  1.0000
  H   H5305     1.0  0.69149  0.01383  0.82006  1.0000
  H   H5306     1.0  0.56376  0.00062  0.79844  1.0000
  H   H5307     1.0  0.67930  0.13821  0.87005  1.0000
  H   H5308     1.0  0.66236  0.13714  0.89401  1.0000
  H   H5309     1.0  0.66594  0.14869  0.90485  1.0000
  H   H5310     1.0  0.63638  0.15408  0.89171  1.0000
  H   H5311     1.0  0.63930  0.16804  0.90058  1.0000
  H   H5312     1.0  0.66416  0.15151  0.85155  1.0000
  H   H5313     1.0  0.65108  0.14536  0.86978  1.0000
  H   H5314     1.0  0.69107  0.13466  0.89426  1.0000
  H   H5315     1.0  0.70298  0.14823  0.88183  1.0000
  H   H5316     1.0  0.65372  0.19013  0.88441  1.0000
  H   H5317     1.0  0.65737  0.17849  0.90331  1.0000
  H   H5318     1.0  0.73355  0.18427  0.64028  1.0000
  H   H5319     1.0  0.51341  0.12797  0.51061  1.0000
  H   H5320     1.0  0.54232  0.03253  0.59044  1.0000
  H   H5321     1.0  0.64127  0.14775  0.92528  1.0000
  H   H5322     1.0  0.62316  0.15005  0.91941  1.0000
  H   H5323     1.0  0.63895  0.13332  0.91621  1.0000
  H   H5324     1.0  0.63752  0.15631  0.84723  1.0000
  H   H5325     1.0  0.62956  0.16787  0.86203  1.0000
  H   H5326     1.0  0.61497  0.16835  0.82949  1.0000
  H   H5327     1.0  0.70192  0.11737  0.87467  1.0000
  H   H5328     1.0  0.72973  0.11275  0.69701  1.0000
  Fe  Fe345     1.0  0.60205  0.20910  0.86171  1.0000
  C   C3028     1.0  0.55492  0.03105  0.79597  1.0000
  C   C3029     1.0  0.73136  0.23292  0.62672  1.0000
  C   C3030     1.0  0.66664  0.02448  0.82214  1.0000
  H   H5329     1.0  0.55860  0.19473  0.78827  1.0000
  H   H5330     1.0  0.55915  0.08237  0.76007  1.0000
  H   H5331     1.0  0.59162  0.04896  0.67592  1.0000
  H   H5332     1.0  0.58046  0.13034  0.88123  1.0000
  C   C3031     1.0  0.62738  0.16886  0.73823  1.0000
  C   C3032     1.0  0.63425  0.14019  0.80231  1.0000
  S   S690      1.0  0.73240  0.19850  0.67377  1.0000
  C   C3033     1.0  0.61895  0.03308  0.80904  1.0000
  H   H5333     1.0  0.59620  0.11450  0.89800  1.0000
  H   H5334     1.0  0.52056  0.08938  0.76742  1.0000
  H   H5335     1.0  0.53387  0.99730  0.55975  1.0000
  H   H5336     1.0  0.69252  0.18756  0.96198  1.0000
  C   C3034     1.0  0.59103  0.22812  0.93569  1.0000
  H   H5337     1.0  0.59403  0.10867  0.85776  1.0000
  C   C3035     1.0  0.61679  0.17850  0.76374  1.0000
  H   H5338     1.0  0.57225  0.21691  0.95255  1.0000
  C   C3036     1.0  0.60265  0.20554  0.78221  1.0000
  H   H5339     1.0  0.54532  0.98766  0.57397  1.0000
  C   C3037     1.0  0.72107  0.13830  0.66679  1.0000
  S   S691      1.0  0.67324  0.13382  0.96037  1.0000
  H   H5340     1.0  0.56604  0.12266  0.85987  1.0000
  H   H5341     1.0  0.61095  0.10090  0.92036  1.0000
  H   H5342     1.0  0.50425  0.09593  0.70447  1.0000
  C   C3038     1.0  0.63560  0.04983  0.82401  1.0000
  C   C3039     1.0  0.65398  0.14664  0.70143  1.0000
  H   H5343     1.0  0.57140  0.99915  0.58186  1.0000
  H   H5344     1.0  0.61247  0.19042  0.75691  1.0000
  S   S692      1.0  0.57719  0.13880  0.79386  1.0000
  H   H5345     1.0  0.55400  0.13375  0.72766  1.0000
  Fe  Fe346     1.0  0.49503  0.05552  0.53772  1.0000
  C   C3040     1.0  0.71626  0.03547  0.69057  1.0000
  H   H5346     1.0  0.61827  0.99528  0.77834  1.0000
  H   H5347     1.0  0.51683  0.08534  0.49175  1.0000
  H   H5348     1.0  0.55553  0.04347  0.79447  1.0000
  H   H5349     1.0  0.62932  0.17790  0.76337  1.0000
  C   C3041     1.0  0.71683  0.03977  0.67265  1.0000
  H   H5350     1.0  0.67876  0.00030  0.83011  1.0000
  H   H5351     1.0  0.73986  0.02768  0.71679  1.0000
  H   H5352     1.0  0.63663  0.15043  0.77756  1.0000
  H   H5353     1.0  0.73373  0.05302  0.77945  1.0000
  C   C3042     1.0  0.70278  0.03617  0.66914  1.0000
  H   H5354     1.0  0.58004  0.18687  0.80291  1.0000
  H   H5355     1.0  0.70635  0.04419  0.69595  1.0000
  H   H5356     1.0  0.71253  0.02413  0.69535  1.0000
  C   C3043     1.0  0.53121  0.99061  0.78250  1.0000
  H   H5357     1.0  0.51167  0.02308  0.70490  1.0000
  H   H5358     1.0  0.61855  0.21477  0.78978  1.0000
  H   H5359     1.0  0.73219  0.00505  0.68967  1.0000
  H   H5360     1.0  0.66238  0.98667  0.90977  1.0000
  H   H5361     1.0  0.52142  0.99879  0.67229  1.0000
  H   H5362     1.0  0.73883  0.09879  0.86827  1.0000
  C   C3044     1.0  0.61004  0.18800  0.78816  1.0000
  H   H5363     1.0  0.60983  0.99194  0.76402  1.0000
  C   C3045     1.0  0.50739  0.12459  0.49072  1.0000
  H   H5364     1.0  0.57828  0.02176  0.80041  1.0000
  C   C3046     1.0  0.51800  0.10275  0.53045  1.0000
  H   H5365     1.0  0.62686  0.16015  0.73193  1.0000
  C   C3047     1.0  0.63073  0.15419  0.78882  1.0000
  H   H5366     1.0  0.69506  0.09795  0.84148  1.0000
  S   S693      1.0  0.50419  0.07291  0.75172  1.0000
  C   C3048     1.0  0.67586  0.98415  0.86492  1.0000
  C   C3049     1.0  0.59368  0.99337  0.78655  1.0000
  C   C3050     1.0  0.64838  0.98519  0.86665  1.0000
  H   H5367     1.0  0.63325  0.22360  0.93460  1.0000
  H   H5368     1.0  0.70280  0.04047  0.65641  1.0000
  H   H5369     1.0  0.70344  0.02330  0.67225  1.0000
  H   H5370     1.0  0.69153  0.04205  0.67588  1.0000
  H   H5371     1.0  0.50635  0.10772  0.74803  1.0000
  H   H5372     1.0  0.70571  0.16575  0.97968  1.0000
  H   H5373     1.0  0.68880  0.22866  0.85114  1.0000
  H   H5374     1.0  0.62109  0.04673  0.85449  1.0000
  C   C3051     1.0  0.49627  0.11786  0.74939  1.0000
  H   H5375     1.0  0.74101  0.16119  0.97723  1.0000
  H   H5376     1.0  0.66713  0.02263  0.81043  1.0000
  C   C3052     1.0  0.57236  0.10978  0.66439  1.0000
  H   H5377     1.0  0.52225  0.01453  0.49715  1.0000
  H   H5378     1.0  0.64443  0.02893  0.80418  1.0000
  H   H5379     1.0  0.60721  0.16199  0.89312  1.0000
  C   C3053     1.0  0.51557  0.05998  0.70143  1.0000
  H   H5380     1.0  0.55908  0.11529  0.62788  1.0000
  H   H5381     1.0  0.73392  0.05350  0.85620  1.0000
  H   H5382     1.0  0.62438  0.01788  0.79247  1.0000
  H   H5383     1.0  0.59996  0.17371  0.87580  1.0000
  H   H5384     1.0  0.56881  0.11647  0.65323  1.0000
  H   H5385     1.0  0.55893  0.05203  0.75104  1.0000
  H   H5386     1.0  0.71745  0.02575  0.74513  1.0000
  H   H5387     1.0  0.73458  0.15775  0.63795  1.0000
  H   H5388     1.0  0.64488  0.10459  0.84259  1.0000
  H   H5389     1.0  0.65029  0.01012  0.83726  1.0000
  H   H5390     1.0  0.71512  0.13749  0.71731  1.0000
  C   C3054     1.0  0.56616  0.02017  0.80626  1.0000
  H   H5391     1.0  0.56789  0.99703  0.83850  1.0000
  S   S694      1.0  0.58240  0.21104  0.88316  1.0000
  C   C3055     1.0  0.57902  0.18533  0.84844  1.0000
  H   H5392     1.0  0.72324  0.04340  0.71694  1.0000
  N   N168      1.0  0.70017  0.19775  0.97681  1.0000
  C   C3056     1.0  0.53262  0.09764  0.68283  1.0000
  C   C3057     1.0  0.50466  0.99634  0.73732  1.0000
  H   H5393     1.0  0.61801  0.14235  0.87666  1.0000
  H   H5394     1.0  0.60567  0.01854  0.87169  1.0000
  Fe  Fe347     1.0  0.62240  0.22327  0.87364  1.0000
  C   C3058     1.0  0.64322  0.05709  0.80684  1.0000
  H   H5395     1.0  0.50791  0.98702  0.66338  1.0000
  C   C3059     1.0  0.61274  0.16003  0.78975  1.0000
  H   H5396     1.0  0.57666  0.05066  0.69359  1.0000
  H   H5397     1.0  0.55748  0.17805  0.85104  1.0000
  H   H5398     1.0  0.57226  0.04663  0.67698  1.0000
  H   H5399     1.0  0.57328  0.19493  0.85436  1.0000
  C   C3060     1.0  0.57008  0.17576  0.84652  1.0000
  H   H5400     1.0  0.67641  0.20229  0.88095  1.0000
  H   H5401     1.0  0.65017  0.07535  0.81318  1.0000
  N   N169      1.0  0.68594  0.12636  0.72677  1.0000
  C   C3061     1.0  0.70278  0.11858  0.72066  1.0000
  C   C3062     1.0  0.67685  0.11426  0.73758  1.0000
  C   C3063     1.0  0.67849  0.13381  0.71267  1.0000
  C   C3064     1.0  0.68492  0.13919  0.73484  1.0000
  C   C3065     1.0  0.69306  0.13430  0.74891  1.0000
  H   H5402     1.0  0.64716  0.13558  0.80076  1.0000
  C   C3066     1.0  0.66058  0.14116  0.71632  1.0000
  C   C3067     1.0  0.68584  0.10008  0.74818  1.0000
  C   C3068     1.0  0.67483  0.09010  0.75998  1.0000
  C   C3069     1.0  0.69425  0.14872  0.75377  1.0000
  S   S695      1.0  0.72321  0.16721  0.91414  1.0000
  H   H5403     1.0  0.70295  0.11017  0.71367  1.0000
  H   H5404     1.0  0.70867  0.11136  0.73033  1.0000
  H   H5405     1.0  0.66624  0.12000  0.74534  1.0000
  H   H5406     1.0  0.67230  0.10882  0.73058  1.0000
  H   H5407     1.0  0.68047  0.12503  0.70542  1.0000
  H   H5408     1.0  0.68412  0.14344  0.70476  1.0000
  H   H5409     1.0  0.68962  0.14910  0.72616  1.0000
  H   H5410     1.0  0.67243  0.14441  0.73955  1.0000
  H   H5411     1.0  0.70515  0.12717  0.74617  1.0000
  H   H5412     1.0  0.68598  0.12751  0.75920  1.0000
  H   H5413     1.0  0.51093  0.14856  0.48485  1.0000
  C   C3070     1.0  0.69856  0.09697  0.82897  1.0000
  H   H5414     1.0  0.65837  0.15159  0.72135  1.0000
  H   H5415     1.0  0.65377  0.13273  0.72471  1.0000
  H   H5416     1.0  0.69446  0.09237  0.74076  1.0000
  H   H5417     1.0  0.69233  0.10368  0.75480  1.0000
  H   H5418     1.0  0.68177  0.07999  0.76714  1.0000
  H   H5419     1.0  0.66595  0.09711  0.76803  1.0000
  H   H5420     1.0  0.66881  0.08537  0.75373  1.0000
  C   C3071     1.0  0.71870  0.99437  0.79683  1.0000
  H   H5421     1.0  0.55384  0.18158  0.80701  1.0000
  C   C3072     1.0  0.57880  0.17849  0.79668  1.0000
  H   H5422     1.0  0.68239  0.15624  0.75693  1.0000
  H   H5423     1.0  0.70052  0.19055  0.93302  1.0000
  H   H5424     1.0  0.60427  0.16848  0.75247  1.0000
  H   H5425     1.0  0.65982  0.15578  0.69283  1.0000
  N   N170      1.0  0.55472  0.00622  0.55588  1.0000
  H   H5426     1.0  0.71385  0.13119  0.86247  1.0000
  C   C3073     1.0  0.54607  0.01903  0.56486  1.0000
  C   C3074     1.0  0.55443  0.01305  0.53871  1.0000
  C   C3075     1.0  0.57173  0.00082  0.55721  1.0000
  H   H5427     1.0  0.72458  0.06042  0.69093  1.0000
  H   H5428     1.0  0.51003  0.09840  0.72097  1.0000
  C   C3076     1.0  0.56081  0.02828  0.53115  1.0000
  C   C3077     1.0  0.53808  0.01382  0.58237  1.0000
  H   H5429     1.0  0.73306  0.13903  0.66555  1.0000
  H   H5430     1.0  0.62177  0.22540  0.92056  1.0000
  H   H5431     1.0  0.50287  0.07287  0.68318  1.0000
  C   C3078     1.0  0.56094  0.03326  0.51357  1.0000
  C   C3079     1.0  0.70794  0.12650  0.87470  1.0000
  C   C3080     1.0  0.51310  0.06409  0.68603  1.0000
  H   H5432     1.0  0.55405  0.02670  0.56422  1.0000
  H   H5433     1.0  0.53627  0.02691  0.55935  1.0000
  H   H5434     1.0  0.54216  0.01576  0.53702  1.0000
  H   H5435     1.0  0.56138  0.00439  0.53140  1.0000
  C   C3081     1.0  0.59270  0.98446  0.57220  1.0000
  H   H5436     1.0  0.57727  0.01106  0.55435  1.0000
  H   H5437     1.0  0.68081  0.01433  0.83989  1.0000
  H   H5438     1.0  0.62632  0.19927  0.91077  1.0000
  Fe  Fe348     1.0  0.50678  0.05763  0.77540  1.0000
  H   H5439     1.0  0.73139  0.01222  0.78098  1.0000
  H   H5440     1.0  0.57302  0.02666  0.53236  1.0000
  H   H5441     1.0  0.55332  0.03808  0.53667  1.0000
  S   S696      1.0  0.62078  0.19863  0.87572  1.0000
  C   C3082     1.0  0.73725  0.08455  0.85335  1.0000
  H   H5442     1.0  0.53921  0.06264  0.49541  1.0000
  H   H5443     1.0  0.71696  0.06622  0.83000  1.0000
  H   H5444     1.0  0.56023  0.10498  0.73107  1.0000
  H   H5445     1.0  0.70172  0.15573  0.74405  1.0000
  H   H5446     1.0  0.64115  0.15168  0.70445  1.0000
  H   H5447     1.0  0.71133  0.22052  0.86389  1.0000
  C   C3083     1.0  0.69496  0.19891  0.96201  1.0000
  Fe  Fe349     1.0  0.56524  0.11873  0.79821  1.0000
  C   C3084     1.0  0.71486  0.22962  0.58136  1.0000
  H   H5448     1.0  0.71952  0.17065  0.96163  1.0000
  H   H5449     1.0  0.65564  0.13662  0.69592  1.0000
  C   C3085     1.0  0.52433  0.05753  0.67412  1.0000
  S   S697      1.0  0.73186  0.19920  0.71788  1.0000
  H   H5450     1.0  0.60720  0.14968  0.86184  1.0000
  H   H5451     1.0  0.56227  0.11479  0.88090  1.0000
  S   S698      1.0  0.56005  0.11575  0.82447  1.0000
  H   H5452     1.0  0.56945  0.08005  0.73123  1.0000
  H   H5453     1.0  0.57646  0.11363  0.71842  1.0000
  H   H5454     1.0  0.57185  0.06348  0.76533  1.0000
  H   H5455     1.0  0.70728  0.99151  0.79781  1.0000
  H   H5456     1.0  0.68356  0.20747  0.96156  1.0000
  H   H5457     1.0  0.61198  0.10220  0.88776  1.0000
  H   H5458     1.0  0.67795  0.13582  0.67065  1.0000
  H   H5459     1.0  0.62945  0.10569  0.91877  1.0000
  H   H5460     1.0  0.73861  0.05301  0.67522  1.0000
  H   H5461     1.0  0.49971  0.12657  0.75359  1.0000
  C   C3086     1.0  0.68994  0.13639  0.66977  1.0000
  H   H5462     1.0  0.52756  0.07828  0.51684  1.0000
  C   C3087     1.0  0.52825  0.08972  0.50830  1.0000
  H   H5463     1.0  0.54016  0.09165  0.50707  1.0000
  C   C3088     1.0  0.56970  0.11072  0.73066  1.0000
  H   H5464     1.0  0.59049  0.10132  0.87880  1.0000
  H   H5465     1.0  0.60567  0.18500  0.80115  1.0000
  H   H5466     1.0  0.59071  0.07547  0.76294  1.0000
  C   C3089     1.0  0.71772  0.12440  0.66574  1.0000
  H   H5467     1.0  0.60699  0.15932  0.80228  1.0000
  H   H5468     1.0  0.62861  0.09248  0.90754  1.0000
  H   H5469     1.0  0.59321  0.99214  0.66513  1.0000
  C   C3090     1.0  0.69335  0.15040  0.67038  1.0000
  H   H5470     1.0  0.68390  0.16057  0.67184  1.0000
  C   C3091     1.0  0.72315  0.22901  0.59417  1.0000
  H   H5471     1.0  0.73875  0.20875  0.63687  1.0000
  C   C3092     1.0  0.56184  0.12634  0.73565  1.0000
  H   H5472     1.0  0.55467  0.12434  0.74783  1.0000
  C   C3093     1.0  0.71910  0.01557  0.73989  1.0000
  C   C3094     1.0  0.53275  0.99671  0.66374  1.0000
  H   H5473     1.0  0.60031  0.22838  0.78697  1.0000
  Fe  Fe350     1.0  0.49684  0.05501  0.50366  1.0000
  H   H5474     1.0  0.56918  0.23056  0.91817  1.0000
  H   H5475     1.0  0.60861  0.15122  0.78637  1.0000
  H   H5476     1.0  0.69505  0.10876  0.82151  1.0000
  C   C3095     1.0  0.71679  0.16990  0.97450  1.0000
  C   C3096     1.0  0.61628  0.16671  0.75438  1.0000
  H   H5477     1.0  0.60045  0.21250  0.80409  1.0000
  H   H5478     1.0  0.69219  0.08894  0.82728  1.0000
  H   H5479     1.0  0.55964  0.17424  0.78926  1.0000
  C   C3097     1.0  0.62211  0.10319  0.91214  1.0000
  C   C3098     1.0  0.73951  0.03862  0.83964  1.0000
  N   N171      1.0  0.73117  0.03502  0.69527  1.0000
  C   C3099     1.0  0.72844  0.03215  0.71298  1.0000
  H   H5480     1.0  0.54241  0.12230  0.65389  1.0000
  C   C3100     1.0  0.56544  0.07128  0.75624  1.0000
  H   H5481     1.0  0.53463  0.02115  0.65798  1.0000
  C   C3101     1.0  0.59518  0.18296  0.84198  1.0000
  H   H5482     1.0  0.70470  0.02782  0.72310  1.0000
  Fe  Fe351     1.0  0.51415  0.05054  0.74303  1.0000
  C   C3102     1.0  0.72661  0.04866  0.79071  1.0000
  H   H5483     1.0  0.73704  0.14290  0.93739  1.0000
  C   C3103     1.0  0.71632  0.09094  0.82430  1.0000
  C   C3104     1.0  0.54116  0.09126  0.79897  1.0000
  C   C3105     1.0  0.70890  0.15142  0.66888  1.0000
  S   S699      1.0  0.60060  0.18333  0.91869  1.0000
  C   C3106     1.0  0.57888  0.05319  0.68055  1.0000
  C   C3107     1.0  0.60780  0.11445  0.88958  1.0000
  S   S700      1.0  0.52208  0.00126  0.52975  1.0000
  S   S701      1.0  0.51858  0.03573  0.76626  1.0000
  C   C3108     1.0  0.71706  0.02122  0.72294  1.0000
  H   H5484     1.0  0.68891  0.15414  0.86063  1.0000
  C   C3109     1.0  0.60244  0.17042  0.83432  1.0000
  H   H5485     1.0  0.73543  0.21380  0.74065  1.0000
  H   H5486     1.0  0.53045  0.99829  0.65194  1.0000
  H   H5487     1.0  0.58100  0.16655  0.80419  1.0000
  H   H5488     1.0  0.58971  0.20759  0.78382  1.0000
  H   H5489     1.0  0.73738  0.07408  0.86320  1.0000
  H   H5490     1.0  0.49337  0.11006  0.77981  1.0000
  C   C3110     1.0  0.58995  0.12673  0.87130  1.0000
  H   H5491     1.0  0.71172  0.21735  0.96693  1.0000
  C   C3111     1.0  0.63787  0.19031  0.93027  1.0000
  C   C3112     1.0  0.61880  0.11717  0.89862  1.0000
  C   C3113     1.0  0.62643  0.19131  0.92208  1.0000
  H   H5492     1.0  0.72763  0.03310  0.66609  1.0000
  H   H5493     1.0  0.64641  0.19765  0.92537  1.0000
  Fe  Fe352     1.0  0.50617  0.02509  0.52662  1.0000
  H   H5494     1.0  0.61257  0.22033  0.96416  1.0000
  H   H5495     1.0  0.61734  0.10835  0.86004  1.0000
  H   H5496     1.0  0.55292  0.07552  0.48723  1.0000
  H   H5497     1.0  0.58174  0.07649  0.67709  1.0000
  H   H5498     1.0  0.57636  0.07255  0.66095  1.0000
  C   C3114     1.0  0.57407  0.07082  0.67388  1.0000
  H   H5499     1.0  0.61321  0.12770  0.90374  1.0000
  H   H5500     1.0  0.59004  0.14333  0.89671  1.0000
  H   H5501     1.0  0.58641  0.19006  0.77219  1.0000
  H   H5502     1.0  0.61985  0.15439  0.76059  1.0000
  Fe  Fe353     1.0  0.73442  0.17316  0.67390  1.0000
  H   H5503     1.0  0.67946  0.19091  0.90018  1.0000
  C   C3115     1.0  0.73024  0.12033  0.70454  1.0000
  S   S702      1.0  0.73755  0.07690  0.72813  1.0000
  H   H5504     1.0  0.61461  0.04582  0.80889  1.0000
  N   N172      1.0  0.60593  0.12582  0.87413  1.0000
  H   H5505     1.0  0.58772  0.13596  0.86064  1.0000
  H   H5506     1.0  0.60775  0.20959  0.76957  1.0000
  H   H5507     1.0  0.54612  0.00458  0.58889  1.0000
  H   H5508     1.0  0.54268  0.10825  0.62666  1.0000
  H   H5509     1.0  0.54698  0.09167  0.80776  1.0000
  S   S703      1.0  0.54887  0.11974  0.78277  1.0000
  C   C3116     1.0  0.52604  0.08999  0.77634  1.0000
  C   C3117     1.0  0.55662  0.07730  0.68089  1.0000
  H   H5510     1.0  0.58251  0.15529  0.87981  1.0000
  N   N173      1.0  0.60746  0.17637  0.78048  1.0000
  H   H5511     1.0  0.72191  0.09961  0.82594  1.0000
  C   C3118     1.0  0.59358  0.16046  0.83301  1.0000
  H   H5512     1.0  0.71643  0.05254  0.66802  1.0000
  H   H5513     1.0  0.62875  0.13058  0.80258  1.0000
  S   S704      1.0  0.60651  0.19600  0.84213  1.0000
  H   H5514     1.0  0.57169  0.13173  0.67027  1.0000
  H   H5515     1.0  0.60572  0.03456  0.87983  1.0000
  H   H5516     1.0  0.54583  0.05973  0.76734  1.0000
  H   H5517     1.0  0.62281  0.18732  0.78652  1.0000
  H   H5518     1.0  0.64281  0.17486  0.84407  1.0000
  H   H5519     1.0  0.51508  0.09211  0.53916  1.0000
  S   S705      1.0  0.71251  0.16950  0.66914  1.0000
  S   S706      1.0  0.56546  0.15251  0.83528  1.0000
  C   C3119     1.0  0.61816  0.12015  0.86059  1.0000
  C   C3120     1.0  0.59311  0.15108  0.88500  1.0000
  C   C3121     1.0  0.73611  0.16712  0.92551  1.0000
  H   H5520     1.0  0.52658  0.02351  0.60310  1.0000
  H   H5521     1.0  0.58844  0.16954  0.77573  1.0000
  H   H5522     1.0  0.54499  0.08725  0.65543  1.0000
  N   N174      1.0  0.54971  0.09428  0.67440  1.0000
  H   H5523     1.0  0.58146  0.09937  0.66171  1.0000
  H   H5524     1.0  0.56210  0.10008  0.68859  1.0000
  H   H5525     1.0  0.56230  0.09438  0.65022  1.0000
  C   C3122     1.0  0.55005  0.09640  0.65719  1.0000
  H   H5526     1.0  0.62387  0.18084  0.73110  1.0000
  Fe  Fe354     1.0  0.60158  0.20219  0.89668  1.0000
  C   C3123     1.0  0.52632  0.07803  0.78991  1.0000
  H   H5527     1.0  0.66510  0.17501  0.85809  1.0000
  C   C3124     1.0  0.65071  0.02283  0.83366  1.0000
  H   H5528     1.0  0.63785  0.12864  0.86309  1.0000
  C   C3125     1.0  0.54613  0.11634  0.63162  1.0000
  H   H5529     1.0  0.60008  0.99882  0.80518  1.0000
  H   H5530     1.0  0.71704  0.12089  0.88181  1.0000
  C   C3126     1.0  0.55318  0.06298  0.75544  1.0000
  C   C3127     1.0  0.53467  0.10355  0.53116  1.0000
  H   H5531     1.0  0.58335  0.11460  0.68074  1.0000
  C   C3128     1.0  0.55804  0.10520  0.67735  1.0000
  C   C3129     1.0  0.60688  0.14225  0.87390  1.0000
  H   H5532     1.0  0.61591  0.12812  0.84923  1.0000
  H   H5533     1.0  0.63027  0.11903  0.89100  1.0000
  H   H5534     1.0  0.63899  0.10776  0.87024  1.0000
  C   C3130     1.0  0.54090  0.11265  0.64952  1.0000
  C   C3131     1.0  0.64645  0.11521  0.84531  1.0000
  H   H5535     1.0  0.60985  0.02686  0.81723  1.0000
  C   C3132     1.0  0.73518  0.05099  0.68828  1.0000
  C   C3133     1.0  0.63560  0.11814  0.86094  1.0000
  H   H5536     1.0  0.55589  0.07514  0.69372  1.0000
  C   C3134     1.0  0.68021  0.01245  0.82848  1.0000
  H   H5537     1.0  0.54533  0.07082  0.74761  1.0000
  C   C3135     1.0  0.57726  0.16351  0.83849  1.0000
  H   H5538     1.0  0.73543  0.11286  0.71460  1.0000
  Fe  Fe355     1.0  0.69802  0.13232  0.96175  1.0000
  C   C3136     1.0  0.60605  0.03118  0.86884  1.0000
  H   H5539     1.0  0.54027  0.12852  0.62676  1.0000
  H   H5540     1.0  0.58685  0.17181  0.89486  1.0000
  C   C3137     1.0  0.57994  0.12027  0.66930  1.0000
  H   H5541     1.0  0.53933  0.11265  0.52133  1.0000
  C   C3138     1.0  0.54627  0.99281  0.56122  1.0000
  H   H5542     1.0  0.65150  0.02594  0.84433  1.0000
  H   H5543     1.0  0.52812  0.11274  0.65248  1.0000
  H   H5544     1.0  0.54972  0.11652  0.67904  1.0000
  H   H5545     1.0  0.63966  0.16693  0.73947  1.0000
  C   C3139     1.0  0.51213  0.10122  0.70794  1.0000
  C   C3140     1.0  0.56840  0.22143  0.92927  1.0000
  C   C3141     1.0  0.57376  0.22604  0.94162  1.0000
  H   H5546     1.0  0.68876  0.21036  0.93196  1.0000
  C   C3142     1.0  0.53285  0.10280  0.77434  1.0000
  C   C3143     1.0  0.53395  0.07869  0.80117  1.0000
  H   H5547     1.0  0.53229  0.11217  0.76398  1.0000
  C   C3144     1.0  0.50254  0.00328  0.74998  1.0000
  C   C3145     1.0  0.52116  0.00246  0.49965  1.0000
  Fe  Fe356     1.0  0.49443  0.03173  0.77010  1.0000
  C   C3146     1.0  0.56500  0.00274  0.80946  1.0000
  H   H5548     1.0  0.58620  0.98680  0.78433  1.0000
  S   S707      1.0  0.64637  0.22789  0.87013  1.0000
  C   C3147     1.0  0.60571  0.21588  0.79133  1.0000
  S   S708      1.0  0.60483  0.22590  0.89598  1.0000
  H   H5549     1.0  0.73105  0.00808  0.74032  1.0000
  C   C3148     1.0  0.74071  0.02389  0.85281  1.0000
  N   N175      1.0  0.57828  0.99071  0.81586  1.0000
  H   H5550     1.0  0.49339  0.12347  0.73768  1.0000
  N   N176      1.0  0.59839  0.23196  0.94688  1.0000
  H   H5551     1.0  0.72481  0.18486  0.62462  1.0000
  C   C3149     1.0  0.73613  0.18209  0.62827  1.0000
  H   H5552     1.0  0.59829  0.21723  0.93174  1.0000
  C   C3150     1.0  0.58147  0.98482  0.61820  1.0000
  C   C3151     1.0  0.59393  0.99015  0.80424  1.0000
  N   N177      1.0  0.73911  0.06844  0.83308  1.0000
  C   C3152     1.0  0.73034  0.21186  0.60147  1.0000
  H   H5553     1.0  0.72012  0.20644  0.60786  1.0000
  H   H5554     1.0  0.73629  0.20553  0.59178  1.0000
  H   H5555     1.0  0.72065  0.21291  0.63097  1.0000
  H   H5556     1.0  0.50098  0.08871  0.83018  1.0000
  C   C3153     1.0  0.73449  0.22950  0.92993  1.0000
  H   H5557     1.0  0.52353  0.99287  0.79390  1.0000
  C   C3154     1.0  0.72919  0.22972  0.91670  1.0000
  H   H5558     1.0  0.73875  0.01405  0.84904  1.0000
  C   C3155     1.0  0.61022  0.98888  0.77667  1.0000
  H   H5559     1.0  0.49469  0.12819  0.49596  1.0000
  H   H5560     1.0  0.58282  0.99475  0.85983  1.0000
  H   H5561     1.0  0.49824  0.09963  0.80306  1.0000
  H   H5562     1.0  0.49993  0.08665  0.52362  1.0000
  C   C3156     1.0  0.49281  0.99817  0.76440  1.0000
  H   H5563     1.0  0.52490  0.99719  0.77292  1.0000
  H   H5564     1.0  0.70704  0.22947  0.83682  1.0000
  C   C3157     1.0  0.70685  0.23319  0.85920  1.0000
  H   H5565     1.0  0.72543  0.23047  0.65214  1.0000
  H   H5566     1.0  0.72341  0.22479  0.57152  1.0000
  C   C3158     1.0  0.74095  0.21463  0.71582  1.0000
  C   C3159     1.0  0.60428  0.19381  0.97980  1.0000
  S   S709      1.0  0.60516  0.23394  0.85796  1.0000
  S   S710      1.0  0.74099  0.16414  0.69743  1.0000
  Fe  Fe357     1.0  0.74077  0.18919  0.69625  1.0000
  C   C3160     1.0  0.74105  0.21951  0.72914  1.0000
  H   H5567     1.0  0.50844  0.30261  0.03130  1.0000
  C   C3161     1.0  0.72570  0.29283  0.30055  1.0000
  S   S711      1.0  0.67980  0.37864  0.99338  1.0000
  Fe  Fe358     1.0  0.58432  0.36788  0.06822  1.0000
  S   S712      1.0  0.59260  0.34177  0.07487  1.0000
  S   S713      1.0  0.59989  0.38531  0.06059  1.0000
  Fe  Fe359     1.0  0.58161  0.34061  0.05595  1.0000
  S   S714      1.0  0.59486  0.32797  0.03637  1.0000
  Fe  Fe360     1.0  0.67440  0.42052  0.06053  1.0000
  S   S715      1.0  0.65180  0.43260  0.07401  1.0000
  S   S716      1.0  0.67651  0.42662  0.03421  1.0000
  Fe  Fe361     1.0  0.68817  0.40783  0.08992  1.0000
  S   S717      1.0  0.66672  0.41965  0.10537  1.0000
  S   S718      1.0  0.70989  0.39207  0.09811  1.0000
  Fe  Fe362     1.0  0.65387  0.41076  0.09282  1.0000
  S   S719      1.0  0.63389  0.39886  0.10619  1.0000
  Fe  Fe363     1.0  0.66672  0.44067  0.08500  1.0000
  S   S720      1.0  0.65924  0.46710  0.08359  1.0000
  S   S721      1.0  0.67526  0.39776  0.07851  1.0000
  S   S722      1.0  0.68935  0.42962  0.07053  1.0000
  H   H5568     1.0  0.63187  0.30319  0.06262  1.0000
  C   C3162     1.0  0.65670  0.35943  0.10764  1.0000
  N   N178      1.0  0.62624  0.28773  0.08529  1.0000
  H   H5569     1.0  0.70137  0.29047  0.31036  1.0000
  H   H5570     1.0  0.54884  0.23777  0.17140  1.0000
  H   H5571     1.0  0.69959  0.46684  0.01493  1.0000
  H   H5572     1.0  0.52097  0.39617  0.09224  1.0000
  H   H5573     1.0  0.50028  0.41147  0.07800  1.0000
  C   C3163     1.0  0.71557  0.24082  0.14874  1.0000
  H   H5574     1.0  0.60848  0.38922  0.99950  1.0000
  H   H5575     1.0  0.60614  0.47416  0.08141  1.0000
  C   C3164     1.0  0.61917  0.30106  0.09386  1.0000
  H   H5576     1.0  0.62532  0.32754  0.10056  1.0000
  H   H5577     1.0  0.62510  0.34925  0.00379  1.0000
  H   H5578     1.0  0.72722  0.29564  0.24558  1.0000
  H   H5579     1.0  0.50430  0.34700  0.07678  1.0000
  Fe  Fe364     1.0  0.72254  0.32521  0.17142  1.0000
  S   S723      1.0  0.72726  0.30762  0.15647  1.0000
  S   S724      1.0  0.70583  0.34889  0.16683  1.0000
  H   H5580     1.0  0.56737  0.24271  0.19652  1.0000
  C   C3165     1.0  0.67436  0.42277  0.14242  1.0000
  H   H5581     1.0  0.51160  0.32011  0.09236  1.0000
  H   H5582     1.0  0.69868  0.27705  0.05135  1.0000
  H   H5583     1.0  0.69774  0.40909  0.14175  1.0000
  Fe  Fe365     1.0  0.72327  0.29046  0.17956  1.0000
  S   S725      1.0  0.71219  0.26983  0.18375  1.0000
  H   H5584     1.0  0.74090  0.26623  0.14978  1.0000
  S   S726      1.0  0.71681  0.30819  0.19460  1.0000
  C   C3166     1.0  0.72421  0.24972  0.11936  1.0000
  Fe  Fe366     1.0  0.61898  0.25151  0.14602  1.0000
  S   S727      1.0  0.61652  0.25575  0.16994  1.0000
  S   S728      1.0  0.60043  0.25806  0.13158  1.0000
  Fe  Fe367     1.0  0.64104  0.26015  0.16075  1.0000
  S   S729      1.0  0.64794  0.28145  0.16297  1.0000
  H   H5585     1.0  0.69335  0.23864  0.99265  1.0000
  S   S730      1.0  0.64243  0.25806  0.13629  1.0000
  H   H5586     1.0  0.73737  0.40326  0.11342  1.0000
  C   C3167     1.0  0.69372  0.27353  0.17906  1.0000
  C   C3168     1.0  0.68603  0.28874  0.17294  1.0000
  C   C3169     1.0  0.67173  0.29113  0.16842  1.0000
  C   C3170     1.0  0.66517  0.27833  0.16989  1.0000
  C   C3171     1.0  0.67268  0.26322  0.17643  1.0000
  C   C3172     1.0  0.68687  0.26084  0.18105  1.0000
  H   H5587     1.0  0.69118  0.29862  0.17152  1.0000
  H   H5588     1.0  0.66591  0.30288  0.16352  1.0000
  H   H5589     1.0  0.66754  0.25336  0.17800  1.0000
  H   H5590     1.0  0.69263  0.24910  0.18607  1.0000
  H   H5591     1.0  0.56730  0.30289  0.10303  1.0000
  H   H5592     1.0  0.50400  0.32555  0.06587  1.0000
  H   H5593     1.0  0.63255  0.45010  0.01271  1.0000
  H   H5594     1.0  0.65892  0.28742  0.08003  1.0000
  H   H5595     1.0  0.59529  0.30614  0.08042  1.0000
  C   C3173     1.0  0.66385  0.30007  0.05613  1.0000
  H   H5596     1.0  0.73665  0.46730  0.12408  1.0000
  H   H5597     1.0  0.49231  0.40594  0.09870  1.0000
  H   H5598     1.0  0.65775  0.48329  0.02202  1.0000
  H   H5599     1.0  0.53210  0.31931  0.08270  1.0000
  H   H5600     1.0  0.71335  0.23730  0.98126  1.0000
  C   C3174     1.0  0.64622  0.35600  0.08567  1.0000
  H   H5601     1.0  0.61797  0.27548  0.07275  1.0000
  H   H5602     1.0  0.50007  0.31788  0.01646  1.0000
  C   C3175     1.0  0.51055  0.33216  0.03394  1.0000
  H   H5603     1.0  0.73041  0.23870  0.35913  1.0000
  H   H5604     1.0  0.51972  0.36286  0.01398  1.0000
  H   H5605     1.0  0.52145  0.32273  0.03298  1.0000
  H   H5606     1.0  0.66819  0.28933  0.05122  1.0000
  H   H5607     1.0  0.64440  0.36064  0.14995  1.0000
  H   H5608     1.0  0.73189  0.41383  0.08132  1.0000
  H   H5609     1.0  0.64891  0.30794  0.07648  1.0000
  C   C3176     1.0  0.50677  0.33239  0.98351  1.0000
  C   C3177     1.0  0.65111  0.48228  0.03449  1.0000
  H   H5610     1.0  0.56466  0.31963  0.04483  1.0000
  C   C3178     1.0  0.64771  0.36985  0.13946  1.0000
  H   H5611     1.0  0.60138  0.36610  0.99558  1.0000
  H   H5612     1.0  0.54874  0.31524  0.02885  1.0000
  C   C3179     1.0  0.57428  0.29898  0.11188  1.0000
  C   C3180     1.0  0.70825  0.37954  0.11698  1.0000
  C   C3181     1.0  0.72110  0.36738  0.12045  1.0000
  C   C3182     1.0  0.72045  0.35773  0.13564  1.0000
  C   C3183     1.0  0.70710  0.36051  0.14757  1.0000
  C   C3184     1.0  0.69435  0.37281  0.14414  1.0000
  C   C3185     1.0  0.69478  0.38208  0.12883  1.0000
  H   H5613     1.0  0.73159  0.36538  0.11135  1.0000
  H   H5614     1.0  0.73035  0.34827  0.13817  1.0000
  H   H5615     1.0  0.68404  0.37502  0.15336  1.0000
  H   H5616     1.0  0.68480  0.39137  0.12630  1.0000
  C   C3186     1.0  0.63365  0.27324  0.09599  1.0000
  C   C3187     1.0  0.67640  0.47153  0.10227  1.0000
  H   H5617     1.0  0.73478  0.24875  0.16232  1.0000
  H   H5618     1.0  0.72134  0.24157  0.37894  1.0000
  H   H5619     1.0  0.62359  0.44332  0.03316  1.0000
  H   H5620     1.0  0.49258  0.36060  0.02310  1.0000
  H   H5621     1.0  0.67867  0.45894  0.10641  1.0000
  H   H5622     1.0  0.71369  0.28690  0.05110  1.0000
  H   H5623     1.0  0.63558  0.38836  0.15218  1.0000
  H   H5624     1.0  0.64026  0.32243  0.15766  1.0000
  C   C3188     1.0  0.57566  0.30977  0.11960  1.0000
  H   H5625     1.0  0.65883  0.33710  0.10092  1.0000
  N   N179      1.0  0.72381  0.25196  0.13536  1.0000
  C   C3189     1.0  0.59074  0.27794  0.12739  1.0000
  C   C3190     1.0  0.59221  0.28872  0.13504  1.0000
  C   C3191     1.0  0.58438  0.30454  0.13138  1.0000
  H   H5626     1.0  0.67479  0.41245  0.98664  1.0000
  H   H5627     1.0  0.59917  0.28486  0.14392  1.0000
  H   H5628     1.0  0.58524  0.31281  0.13757  1.0000
  C   C3192     1.0  0.60935  0.38838  0.07365  1.0000
  C   C3193     1.0  0.62083  0.39741  0.06751  1.0000
  C   C3194     1.0  0.62848  0.40049  0.07746  1.0000
  C   C3195     1.0  0.62450  0.39476  0.09368  1.0000
  C   C3196     1.0  0.61306  0.38562  0.09989  1.0000
  C   C3197     1.0  0.60555  0.38233  0.08986  1.0000
  H   H5629     1.0  0.62381  0.40211  0.05501  1.0000
  H   H5630     1.0  0.63737  0.40740  0.07254  1.0000
  H   H5631     1.0  0.60997  0.38115  0.11245  1.0000
  H   H5632     1.0  0.59665  0.37539  0.09467  1.0000
  C   C3198     1.0  0.67922  0.39182  0.00477  1.0000
  C   C3199     1.0  0.67636  0.40801  0.99856  1.0000
  C   C3200     1.0  0.67559  0.41848  0.00774  1.0000
  C   C3201     1.0  0.67743  0.41289  0.02332  1.0000
  C   C3202     1.0  0.68019  0.39670  0.02965  1.0000
  C   C3203     1.0  0.68123  0.38617  0.02032  1.0000
  H   H5633     1.0  0.55329  0.35729  0.01894  1.0000
  H   H5634     1.0  0.67344  0.43099  0.00277  1.0000
  H   H5635     1.0  0.68167  0.39230  0.04164  1.0000
  H   H5636     1.0  0.68340  0.37366  0.02522  1.0000
  C   C3204     1.0  0.56409  0.32237  0.00665  1.0000
  C   C3205     1.0  0.55939  0.31946  0.02310  1.0000
  C   C3206     1.0  0.56844  0.32187  0.03217  1.0000
  C   C3207     1.0  0.58269  0.32650  0.02490  1.0000
  C   C3208     1.0  0.58756  0.32925  0.00845  1.0000
  C   C3209     1.0  0.73264  0.31228  0.25615  1.0000
  H   H5637     1.0  0.59857  0.33285  0.00277  1.0000
  H   H5638     1.0  0.65060  0.39386  0.13532  1.0000
  H   H5639     1.0  0.54639  0.36752  0.00121  1.0000
  H   H5640     1.0  0.58080  0.30226  0.06344  1.0000
  H   H5641     1.0  0.51606  0.41028  0.10441  1.0000
  H   H5642     1.0  0.51630  0.37003  0.08482  1.0000
  H   H5643     1.0  0.73059  0.44579  0.08777  1.0000
  C   C3210     1.0  0.52493  0.35037  0.03737  1.0000
  C   C3211     1.0  0.62778  0.46925  0.06379  1.0000
  C   C3212     1.0  0.71707  0.31913  0.23485  1.0000
  H   H5644     1.0  0.71459  0.25157  0.06291  1.0000
  C   C3213     1.0  0.63145  0.47323  0.12367  1.0000
  H   H5645     1.0  0.62731  0.36662  0.98896  1.0000
  H   H5646     1.0  0.54564  0.25779  0.14689  1.0000
  C   C3214     1.0  0.69253  0.46400  0.99488  1.0000
  H   H5647     1.0  0.72218  0.47367  0.14050  1.0000
  H   H5648     1.0  0.69215  0.41628  0.12290  1.0000
  H   H5649     1.0  0.62662  0.31796  0.12061  1.0000
  H   H5650     1.0  0.63884  0.33765  0.12311  1.0000
  C   C3215     1.0  0.57978  0.24190  0.18995  1.0000
  H   H5651     1.0  0.68817  0.47571  0.11799  1.0000
  H   H5652     1.0  0.49925  0.32362  0.98744  1.0000
  H   H5653     1.0  0.64391  0.36310  0.11238  1.0000
  H   H5654     1.0  0.72364  0.27671  0.12720  1.0000
  C   C3216     1.0  0.51301  0.38397  0.06206  1.0000
  H   H5655     1.0  0.63096  0.25438  0.08651  1.0000
  H   H5656     1.0  0.64964  0.26015  0.07841  1.0000
  H   H5657     1.0  0.71211  0.45801  0.11083  1.0000
  H   H5658     1.0  0.49909  0.44384  0.03116  1.0000
  Fe  Fe368     1.0  0.56829  0.34244  0.08999  1.0000
  N   N180      1.0  0.51116  0.34233  0.04436  1.0000
  C   C3217     1.0  0.64845  0.35445  0.99657  1.0000
  H   H5659     1.0  0.64643  0.36836  0.07938  1.0000
  Fe  Fe369     1.0  0.55222  0.36549  0.06501  1.0000
  H   H5660     1.0  0.59464  0.28434  0.06015  1.0000
  C   C3218     1.0  0.68171  0.48102  0.10876  1.0000
  S   S731      1.0  0.55784  0.33902  0.07157  1.0000
  C   C3219     1.0  0.57813  0.32746  0.99931  1.0000
  C   C3220     1.0  0.64197  0.33756  0.13412  1.0000
  H   H5661     1.0  0.65376  0.36473  0.99035  1.0000
  H   H5662     1.0  0.57313  0.37466  0.00179  1.0000
  C   C3221     1.0  0.69168  0.41936  0.13402  1.0000
  H   H5663     1.0  0.73483  0.27868  0.26994  1.0000
  H   H5664     1.0  0.62164  0.47043  0.12056  1.0000
  H   H5665     1.0  0.65600  0.38103  0.15316  1.0000
  H   H5666     1.0  0.63441  0.35549  0.09339  1.0000
  H   H5667     1.0  0.49674  0.48227  0.03471  1.0000
  H   H5668     1.0  0.72092  0.43268  0.07263  1.0000
  H   H5669     1.0  0.71785  0.25869  0.03462  1.0000
  H   H5670     1.0  0.58016  0.27468  0.11028  1.0000
  C   C3222     1.0  0.66759  0.47843  0.09074  1.0000
  H   H5671     1.0  0.57446  0.24746  0.16715  1.0000
  H   H5672     1.0  0.50637  0.35539  0.98538  1.0000
  C   C3223     1.0  0.63050  0.47353  0.02778  1.0000
  C   C3224     1.0  0.64037  0.25818  0.08923  1.0000
  C   C3225     1.0  0.50783  0.37703  0.07781  1.0000
  C   C3226     1.0  0.58153  0.28304  0.11603  1.0000
  S   S732      1.0  0.57531  0.36657  0.04819  1.0000
  H   H5673     1.0  0.64170  0.28342  0.06324  1.0000
  C   C3227     1.0  0.63774  0.32302  0.14616  1.0000
  H   H5674     1.0  0.64291  0.45168  0.04172  1.0000
  C   C3228     1.0  0.71943  0.44874  0.11841  1.0000
  H   H5675     1.0  0.57364  0.38426  0.01654  1.0000
  H   H5676     1.0  0.73426  0.29726  0.30391  1.0000
  H   H5677     1.0  0.69211  0.24588  0.14309  1.0000
  H   H5678     1.0  0.54080  0.24373  0.13915  1.0000
  H   H5679     1.0  0.63858  0.37347  0.13246  1.0000
  H   H5680     1.0  0.73401  0.32593  0.28650  1.0000
  H   H5681     1.0  0.70496  0.45768  0.13933  1.0000
  C   C3229     1.0  0.50200  0.39306  0.05306  1.0000
  C   C3230     1.0  0.49818  0.31239  0.02918  1.0000
  H   H5682     1.0  0.62518  0.29296  0.11702  1.0000
  H   H5683     1.0  0.64339  0.43407  0.02504  1.0000
  N   N181      1.0  0.62301  0.36971  0.01272  1.0000
  C   C3231     1.0  0.63297  0.38123  0.01098  1.0000
  C   C3232     1.0  0.58912  0.29199  0.06876  1.0000
  C   C3233     1.0  0.60706  0.37922  0.00980  1.0000
  C   C3234     1.0  0.62038  0.35952  0.02908  1.0000
  C   C3235     1.0  0.63521  0.34961  0.03525  1.0000
  C   C3236     1.0  0.62656  0.39253  0.02248  1.0000
  C   C3237     1.0  0.59625  0.37025  0.00672  1.0000
  H   H5684     1.0  0.50600  0.39841  0.04084  1.0000
  H   H5685     1.0  0.51054  0.33882  0.02169  1.0000
  C   C3238     1.0  0.63114  0.34258  0.05286  1.0000
  C   C3239     1.0  0.63728  0.40384  0.01961  1.0000
  C   C3240     1.0  0.52972  0.35540  0.01919  1.0000
  H   H5686     1.0  0.64509  0.37522  0.01243  1.0000
  H   H5687     1.0  0.72537  0.25458  0.01071  1.0000
  C   C3241     1.0  0.60161  0.29771  0.07274  1.0000
  H   H5688     1.0  0.51736  0.32745  0.98870  1.0000
  H   H5689     1.0  0.60019  0.38463  0.01996  1.0000
  H   H5690     1.0  0.61312  0.36675  0.03769  1.0000
  H   H5691     1.0  0.61319  0.35109  0.02987  1.0000
  H   H5692     1.0  0.64405  0.35665  0.03338  1.0000
  H   H5693     1.0  0.64045  0.33953  0.02942  1.0000
  H   H5694     1.0  0.61475  0.39978  0.02120  1.0000
  H   H5695     1.0  0.62592  0.38575  0.03475  1.0000
  H   H5696     1.0  0.59438  0.35992  0.01636  1.0000
  H   H5697     1.0  0.50226  0.43409  0.05840  1.0000
  H   H5698     1.0  0.72393  0.41929  0.14173  1.0000
  H   H5699     1.0  0.65357  0.34906  0.00702  1.0000
  C   C3242     1.0  0.72774  0.25961  0.03911  1.0000
  N   N182      1.0  0.73754  0.30148  0.27080  1.0000
  H   H5700     1.0  0.72398  0.44554  0.14191  1.0000
  H   H5701     1.0  0.64207  0.33606  0.05702  1.0000
  H   H5702     1.0  0.62521  0.35199  0.05954  1.0000
  H   H5703     1.0  0.62339  0.33425  0.05518  1.0000
  H   H5704     1.0  0.63157  0.41264  0.02698  1.0000
  H   H5705     1.0  0.64854  0.39732  0.02303  1.0000
  H   H5706     1.0  0.63962  0.41012  0.00710  1.0000
  N   N183      1.0  0.71543  0.43298  0.12085  1.0000
  C   C3243     1.0  0.71537  0.43091  0.10489  1.0000
  C   C3244     1.0  0.69909  0.43363  0.13116  1.0000
  H   H5707     1.0  0.71743  0.47908  0.12142  1.0000
  H   H5708     1.0  0.52400  0.41576  0.08346  1.0000
  H   H5709     1.0  0.58233  0.28545  0.07953  1.0000
  H   H5710     1.0  0.69705  0.27173  0.12395  1.0000
  C   C3245     1.0  0.73054  0.40358  0.12559  1.0000
  H   H5711     1.0  0.70527  0.43940  0.10033  1.0000
  H   H5712     1.0  0.71336  0.41923  0.10560  1.0000
  H   H5713     1.0  0.69893  0.43476  0.14311  1.0000
  H   H5714     1.0  0.69088  0.44433  0.12625  1.0000
  H   H5715     1.0  0.58280  0.25344  0.18804  1.0000
  H   H5716     1.0  0.73313  0.39038  0.14915  1.0000
  H   H5717     1.0  0.71110  0.24589  0.15942  1.0000
  H   H5718     1.0  0.72983  0.28004  0.30104  1.0000
  H   H5719     1.0  0.58147  0.39183  0.99611  1.0000
  C   C3246     1.0  0.73997  0.39129  0.13682  1.0000
  H   H5720     1.0  0.66941  0.41225  0.14453  1.0000
  H   H5721     1.0  0.49425  0.40347  0.99105  1.0000
  C   C3247     1.0  0.51387  0.33156  0.05987  1.0000
  C   C3248     1.0  0.69347  0.45919  0.01219  1.0000
  S   S733      1.0  0.53304  0.38150  0.05296  1.0000
  H   H5722     1.0  0.64836  0.34889  0.07680  1.0000
  H   H5723     1.0  0.71220  0.25101  0.11777  1.0000
  H   H5724     1.0  0.69108  0.27017  0.14485  1.0000
  H   H5725     1.0  0.67310  0.42556  0.15395  1.0000
  C   C3249     1.0  0.71629  0.26890  0.13612  1.0000
  H   H5726     1.0  0.57181  0.23994  0.14673  1.0000
  H   H5727     1.0  0.49661  0.36140  0.05535  1.0000
  H   H5728     1.0  0.64959  0.33168  0.99215  1.0000
  S   S734      1.0  0.56068  0.36894  0.08464  1.0000
  C   C3250     1.0  0.64771  0.24447  0.10106  1.0000
  C   C3251     1.0  0.69910  0.27496  0.13400  1.0000
  C   C3252     1.0  0.69444  0.29290  0.13116  1.0000
  C   C3253     1.0  0.71757  0.45463  0.13349  1.0000
  H   H5729     1.0  0.64337  0.27532  0.09982  1.0000
  H   H5730     1.0  0.66747  0.43276  0.13509  1.0000
  H   H5731     1.0  0.72904  0.25916  0.10999  1.0000
  H   H5732     1.0  0.63185  0.47799  0.01481  1.0000
  H   H5733     1.0  0.71595  0.27107  0.14773  1.0000
  H   H5734     1.0  0.53434  0.34490  0.01393  1.0000
  C   C3254     1.0  0.52064  0.32722  0.08640  1.0000
  C   C3255     1.0  0.54281  0.36452  0.01424  1.0000
  C   C3256     1.0  0.61311  0.28370  0.08089  1.0000
  H   H5735     1.0  0.72774  0.32123  0.22566  1.0000
  H   H5736     1.0  0.52814  0.25022  0.15641  1.0000
  C   C3257     1.0  0.65978  0.33725  0.13127  1.0000
  H   H5737     1.0  0.64453  0.31222  0.14189  1.0000
  H   H5738     1.0  0.53584  0.34267  0.04102  1.0000
  H   H5739     1.0  0.69979  0.44674  0.01513  1.0000
  H   H5740     1.0  0.52271  0.36102  0.04211  1.0000
  C   C3258     1.0  0.63472  0.44545  0.02479  1.0000
  H   H5741     1.0  0.70303  0.27732  0.06952  1.0000
  H   H5742     1.0  0.70086  0.29820  0.11942  1.0000
  H   H5743     1.0  0.68160  0.29683  0.13163  1.0000
  H   H5744     1.0  0.69719  0.29714  0.14027  1.0000
  C   C3259     1.0  0.65244  0.29696  0.07203  1.0000
  H   H5745     1.0  0.71959  0.39983  0.12689  1.0000
  H   H5746     1.0  0.73265  0.26078  0.33173  1.0000
  C   C3260     1.0  0.64130  0.45681  0.02955  1.0000
  H   H5747     1.0  0.50082  0.43841  0.08285  1.0000
  S   S735      1.0  0.55213  0.31942  0.99578  1.0000
  C   C3261     1.0  0.63775  0.29264  0.07028  1.0000
  H   H5748     1.0  0.63434  0.34798  0.13843  1.0000
  C   C3262     1.0  0.62166  0.31813  0.11066  1.0000
  N   N184      1.0  0.66549  0.35159  0.12070  1.0000
  C   C3263     1.0  0.66423  0.36358  0.12995  1.0000
  C   C3264     1.0  0.68270  0.34673  0.11314  1.0000
  C   C3265     1.0  0.65896  0.34960  0.09529  1.0000
  C   C3266     1.0  0.69409  0.33856  0.12450  1.0000
  C   C3267     1.0  0.71070  0.33262  0.11549  1.0000
  H   H5749     1.0  0.66035  0.37065  0.10104  1.0000
  H   H5750     1.0  0.67157  0.35867  0.13888  1.0000
  H   H5751     1.0  0.66889  0.37382  0.12190  1.0000
  H   H5752     1.0  0.68711  0.35713  0.10508  1.0000
  H   H5753     1.0  0.68430  0.33824  0.10573  1.0000
  H   H5754     1.0  0.66611  0.32660  0.12645  1.0000
  H   H5755     1.0  0.67046  0.35009  0.08689  1.0000
  H   H5756     1.0  0.69009  0.32840  0.13324  1.0000
  H   H5757     1.0  0.69509  0.34685  0.13089  1.0000
  H   H5758     1.0  0.71864  0.32717  0.12386  1.0000
  H   H5759     1.0  0.71079  0.32367  0.10921  1.0000
  H   H5760     1.0  0.71535  0.34254  0.10687  1.0000
  H   H5761     1.0  0.73906  0.42351  0.12517  1.0000
  C   C3268     1.0  0.63026  0.35984  0.00048  1.0000
  C   C3269     1.0  0.51569  0.33948  0.07225  1.0000
  H   H5762     1.0  0.61807  0.47226  0.03227  1.0000
  C   C3270     1.0  0.64754  0.38414  0.14538  1.0000
  C   C3271     1.0  0.49607  0.32446  0.03889  1.0000
  H   H5763     1.0  0.64261  0.46551  0.11889  1.0000
  C   C3272     1.0  0.72306  0.30156  0.28395  1.0000
  H   H5764     1.0  0.49404  0.31822  0.05137  1.0000
  H   H5765     1.0  0.63449  0.38850  0.99876  1.0000
  C   C3273     1.0  0.72153  0.30694  0.24927  1.0000
  C   C3274     1.0  0.54058  0.24718  0.15008  1.0000
  H   H5766     1.0  0.62980  0.47066  0.13666  1.0000
  C   C3275     1.0  0.71037  0.29503  0.31293  1.0000
  C   C3276     1.0  0.58015  0.38093  0.00522  1.0000
  C   C3277     1.0  0.73050  0.43309  0.09206  1.0000
  H   H5767     1.0  0.64054  0.30031  0.10201  1.0000
  H   H5768     1.0  0.58184  0.32975  0.98663  1.0000
  H   H5769     1.0  0.71043  0.30548  0.25795  1.0000
  H   H5770     1.0  0.52198  0.33323  0.09495  1.0000
  H   H5771     1.0  0.72645  0.32416  0.25834  1.0000
  H   H5772     1.0  0.71653  0.31382  0.28449  1.0000
  H   H5773     1.0  0.71465  0.29602  0.28163  1.0000
  H   H5774     1.0  0.64048  0.46580  0.06367  1.0000
  H   H5775     1.0  0.62275  0.48012  0.08382  1.0000
  C   C3278     1.0  0.62763  0.30213  0.10616  1.0000
  H   H5776     1.0  0.70578  0.30764  0.31330  1.0000
  H   H5777     1.0  0.53873  0.37557  0.01864  1.0000
  H   H5778     1.0  0.60863  0.32086  0.11439  1.0000
  H   H5779     1.0  0.66278  0.33483  0.14297  1.0000
  H   H5780     1.0  0.63875  0.24166  0.11199  1.0000
  C   C3279     1.0  0.51613  0.40876  0.09264  1.0000
  C   C3280     1.0  0.61907  0.47100  0.08047  1.0000
  S   S736      1.0  0.56581  0.32959  0.11539  1.0000
  H   H5781     1.0  0.71256  0.28843  0.32470  1.0000
  H   H5782     1.0  0.62203  0.45968  0.08887  1.0000
  H   H5783     1.0  0.60709  0.30018  0.10076  1.0000
  H   H5784     1.0  0.71031  0.33042  0.23812  1.0000
  H   H5785     1.0  0.60591  0.27735  0.09153  1.0000
  C   C3281     1.0  0.65373  0.34267  0.98590  1.0000
  H   H5786     1.0  0.52459  0.32207  0.05779  1.0000
  H   H5787     1.0  0.52460  0.34682  0.06728  1.0000
  H   H5788     1.0  0.62501  0.32340  0.14800  1.0000
  H   H5789     1.0  0.65311  0.45736  0.02177  1.0000
  H   H5790     1.0  0.68142  0.46034  0.01970  1.0000
  C   C3282     1.0  0.72737  0.42029  0.12876  1.0000
  H   H5791     1.0  0.70965  0.31479  0.22978  1.0000
  H   H5792     1.0  0.62482  0.27035  0.10706  1.0000
  C   C3283     1.0  0.70825  0.27660  0.05704  1.0000
  H   H5793     1.0  0.67681  0.47581  0.04829  1.0000
  H   H5794     1.0  0.65576  0.47012  0.04051  1.0000
  H   H5795     1.0  0.61962  0.42452  0.98823  1.0000
  H   H5796     1.0  0.61772  0.31256  0.08527  1.0000
  H   H5797     1.0  0.73184  0.44850  0.11190  1.0000
  H   H5798     1.0  0.62409  0.45969  0.06125  1.0000
  H   H5799     1.0  0.65320  0.45954  0.99207  1.0000
  C   C3284     1.0  0.72063  0.26130  0.05633  1.0000
  C   C3285     1.0  0.72388  0.46956  0.12956  1.0000
  H   H5800     1.0  0.60794  0.30416  0.06164  1.0000
  H   H5801     1.0  0.67411  0.30353  0.05762  1.0000
  H   H5802     1.0  0.65802  0.30978  0.04766  1.0000
  C   C3286     1.0  0.49593  0.35418  0.04755  1.0000
  C   C3287     1.0  0.49162  0.37921  0.08452  1.0000
  H   H5803     1.0  0.65756  0.24730  0.10406  1.0000
  H   H5804     1.0  0.68563  0.45657  0.99300  1.0000
  C   C3288     1.0  0.73135  0.42669  0.07786  1.0000
  H   H5805     1.0  0.49807  0.37532  0.02912  1.0000
  C   C3289     1.0  0.49779  0.34771  0.98862  1.0000
  H   H5806     1.0  0.68597  0.47639  0.99277  1.0000
  C   C3290     1.0  0.58199  0.23781  0.17409  1.0000
  C   C3291     1.0  0.73642  0.24546  0.00981  1.0000
  C   C3292     1.0  0.49949  0.41371  0.08962  1.0000
  H   H5807     1.0  0.61947  0.44192  0.99426  1.0000
  H   H5808     1.0  0.73615  0.24508  0.98602  1.0000
  S   S737      1.0  0.65293  0.23502  0.16854  1.0000
  H   H5809     1.0  0.60157  0.43908  0.99144  1.0000
  H   H5810     1.0  0.70239  0.43462  0.98301  1.0000
  H   H5811     1.0  0.73172  0.24071  0.09105  1.0000
  H   H5812     1.0  0.73089  0.27090  0.03205  1.0000
  H   H5813     1.0  0.73924  0.25839  0.37845  1.0000
  H   H5814     1.0  0.73972  0.28320  0.37346  1.0000
  C   C3293     1.0  0.61451  0.43732  0.98697  1.0000
  H   H5815     1.0  0.72967  0.26145  0.06237  1.0000
  C   C3294     1.0  0.70174  0.23573  0.14592  1.0000
  C   C3295     1.0  0.74064  0.24904  0.13689  1.0000
  C   C3296     1.0  0.70925  0.46232  0.98409  1.0000
  H   H5816     1.0  0.71620  0.45035  0.98818  1.0000
  H   H5817     1.0  0.71485  0.47052  0.98665  1.0000
  C   C3297     1.0  0.73114  0.23444  0.37170  1.0000
  H   H5818     1.0  0.66678  0.33980  0.98245  1.0000
  H   H5819     1.0  0.49365  0.34501  0.00155  1.0000
  H   H5820     1.0  0.59446  0.23747  0.16804  1.0000
  H   H5821     1.0  0.49129  0.43201  0.10256  1.0000
  C   C3298     1.0  0.49219  0.43121  0.09031  1.0000
  Fe  Fe370     1.0  0.54153  0.34940  0.94381  1.0000
  S   S738      1.0  0.54320  0.32366  0.95526  1.0000
  S   S739      1.0  0.51943  0.36897  0.94438  1.0000
  Fe  Fe371     1.0  0.57672  0.34673  0.94046  1.0000
  N   N185      1.0  0.68351  0.25637  0.82625  1.0000
  N   N186      1.0  0.58402  0.32130  0.87078  1.0000
  Fe  Fe372     1.0  0.56576  0.31931  0.93704  1.0000
  S   S740      1.0  0.57947  0.29951  0.92441  1.0000
  S   S741      1.0  0.56285  0.34476  0.92434  1.0000
  H   H5822     1.0  0.71965  0.43295  0.96742  1.0000
  Fe  Fe373     1.0  0.67409  0.39136  0.93622  1.0000
  S   S742      1.0  0.65345  0.41183  0.93456  1.0000
  S   S743      1.0  0.68547  0.38233  0.91391  1.0000
  H   H5823     1.0  0.57431  0.33081  0.84992  1.0000
  H   H5824     1.0  0.52826  0.40915  0.90173  1.0000
  H   H5825     1.0  0.58769  0.34174  0.82268  1.0000
  C   C3299     1.0  0.63020  0.31773  0.94328  1.0000
  C   C3300     1.0  0.73052  0.29102  0.79265  1.0000
  S   S744      1.0  0.66581  0.44739  0.93979  1.0000
  C   C3301     1.0  0.71014  0.25259  0.80618  1.0000
  C   C3302     1.0  0.56760  0.32083  0.88049  1.0000
  H   H5826     1.0  0.67295  0.27755  0.95894  1.0000
  C   C3303     1.0  0.59494  0.34603  0.82799  1.0000
  H   H5827     1.0  0.54591  0.32524  0.90878  1.0000
  H   H5828     1.0  0.49210  0.41042  0.97082  1.0000
  C   C3304     1.0  0.65580  0.46406  0.97951  1.0000
  H   H5829     1.0  0.60464  0.32316  0.84022  1.0000
  C   C3305     1.0  0.63799  0.30616  0.91996  1.0000
  H   H5830     1.0  0.69077  0.27847  0.81734  1.0000
  C   C3306     1.0  0.50342  0.37318  0.93527  1.0000
  C   C3307     1.0  0.69357  0.24877  0.81290  1.0000
  C   C3308     1.0  0.72060  0.23756  0.64172  1.0000
  H   H5831     1.0  0.61838  0.27718  0.92201  1.0000
  H   H5832     1.0  0.63002  0.34274  0.91712  1.0000
  C   C3309     1.0  0.66767  0.28366  0.83164  1.0000
  H   H5833     1.0  0.66258  0.32042  0.91211  1.0000
  S   S745      1.0  0.61687  0.39700  0.96597  1.0000
  H   H5834     1.0  0.61871  0.32262  0.97442  1.0000
  H   H5835     1.0  0.50224  0.42537  0.89406  1.0000
  H   H5836     1.0  0.65421  0.26695  0.81629  1.0000
  H   H5837     1.0  0.63195  0.28568  0.90525  1.0000
  H   H5838     1.0  0.63113  0.34206  0.94192  1.0000
  C   C3310     1.0  0.66376  0.30227  0.94926  1.0000
  H   H5839     1.0  0.58427  0.44049  0.93818  1.0000
  H   H5840     1.0  0.66862  0.31295  0.94430  1.0000
  C   C3311     1.0  0.73403  0.36122  0.77965  1.0000
  C   C3312     1.0  0.58347  0.29763  0.86008  1.0000
  C   C3313     1.0  0.56517  0.26671  0.96006  1.0000
  Fe  Fe374     1.0  0.67646  0.29419  0.87292  1.0000
  S   S746      1.0  0.69783  0.27942  0.86021  1.0000
  S   S747      1.0  0.65196  0.29544  0.87056  1.0000
  Fe  Fe375     1.0  0.69475  0.30203  0.89224  1.0000
  S   S748      1.0  0.71748  0.28773  0.88133  1.0000
  S   S749      1.0  0.69405  0.31061  0.91365  1.0000
  Fe  Fe376     1.0  0.70982  0.29856  0.85850  1.0000
  H   H5841     1.0  0.57681  0.23632  0.96450  1.0000
  Fe  Fe377     1.0  0.70368  0.26991  0.88392  1.0000
  H   H5842     1.0  0.65208  0.46433  0.91222  1.0000
  S   S750      1.0  0.68787  0.31455  0.86918  1.0000
  S   S751      1.0  0.68145  0.28313  0.89679  1.0000
  H   H5843     1.0  0.67643  0.30521  0.82144  1.0000
  H   H5844     1.0  0.70172  0.25902  0.83606  1.0000
  S   S752      1.0  0.56777  0.25591  0.88647  1.0000
  H   H5845     1.0  0.70857  0.23582  0.64318  1.0000
  H   H5846     1.0  0.49249  0.39388  0.94476  1.0000
  C   C3314     1.0  0.70180  0.45503  0.96300  1.0000
  H   H5847     1.0  0.68247  0.29116  0.96198  1.0000
  H   H5848     1.0  0.70919  0.26532  0.80095  1.0000
  H   H5849     1.0  0.61899  0.34325  0.96924  1.0000
  H   H5850     1.0  0.63122  0.44541  0.96633  1.0000
  C   C3315     1.0  0.61090  0.24104  0.93734  1.0000
  H   H5851     1.0  0.58839  0.26633  0.94577  1.0000
  H   H5852     1.0  0.63303  0.38514  0.93788  1.0000
  H   H5853     1.0  0.72772  0.34444  0.88170  1.0000
  H   H5854     1.0  0.72276  0.32726  0.73662  1.0000
  C   C3316     1.0  0.54283  0.33346  0.89791  1.0000
  C   C3317     1.0  0.51205  0.42871  0.91138  1.0000
  H   H5855     1.0  0.65654  0.30786  0.83282  1.0000
  C   C3318     1.0  0.64920  0.27639  0.87288  1.0000
  C   C3319     1.0  0.66119  0.26331  0.87629  1.0000
  C   C3320     1.0  0.65988  0.24831  0.87614  1.0000
  C   C3321     1.0  0.64642  0.24624  0.87297  1.0000
  C   C3322     1.0  0.63395  0.25915  0.87055  1.0000
  C   C3323     1.0  0.63540  0.27424  0.87039  1.0000
  H   H5856     1.0  0.67173  0.26473  0.87859  1.0000
  H   H5857     1.0  0.73663  0.47494  0.96989  1.0000
  H   H5858     1.0  0.62352  0.25756  0.86812  1.0000
  H   H5859     1.0  0.62605  0.28428  0.86787  1.0000
  C   C3324     1.0  0.69845  0.23512  0.84607  1.0000
  H   H5860     1.0  0.68885  0.45863  0.96698  1.0000
  S   S753      1.0  0.66196  0.37780  0.95875  1.0000
  H   H5861     1.0  0.66947  0.23832  0.87821  1.0000
  C   C3325     1.0  0.73622  0.32364  0.89847  1.0000
  C   C3326     1.0  0.59603  0.42077  0.92776  1.0000
  C   C3327     1.0  0.71874  0.24300  0.91045  1.0000
  H   H5862     1.0  0.64902  0.34770  0.97504  1.0000
  H   H5863     1.0  0.72411  0.30745  0.95937  1.0000
  C   C3328     1.0  0.72911  0.24247  0.93698  1.0000
  H   H5864     1.0  0.51943  0.40401  0.92245  1.0000
  H   H5865     1.0  0.61352  0.29780  0.91323  1.0000
  Fe  Fe378     1.0  0.66431  0.42180  0.94807  1.0000
  H   H5866     1.0  0.65604  0.28048  0.83481  1.0000
  C   C3329     1.0  0.74099  0.34496  0.77589  1.0000
  C   C3330     1.0  0.71580  0.29895  0.81713  1.0000
  C   C3331     1.0  0.71616  0.29529  0.80293  1.0000
  H   H5867     1.0  0.64506  0.23537  0.83374  1.0000
  H   H5868     1.0  0.70308  0.41489  0.96889  1.0000
  H   H5869     1.0  0.70467  0.30217  0.82504  1.0000
  H   H5870     1.0  0.70530  0.29588  0.79981  1.0000
  H   H5871     1.0  0.63667  0.44519  0.93465  1.0000
  H   H5872     1.0  0.68386  0.25736  0.84967  1.0000
  Fe  Fe379     1.0  0.64223  0.39902  0.95804  1.0000
  C   C3332     1.0  0.56919  0.47391  0.95694  1.0000
  H   H5873     1.0  0.56071  0.27887  0.95381  1.0000
  H   H5874     1.0  0.66619  0.47983  0.93449  1.0000
  H   H5875     1.0  0.59524  0.42775  0.91572  1.0000
  H   H5876     1.0  0.64047  0.48072  0.92101  1.0000
  N   N187      1.0  0.64395  0.31226  0.93066  1.0000
  H   H5877     1.0  0.58608  0.41466  0.93250  1.0000
  H   H5878     1.0  0.50883  0.43239  0.92271  1.0000
  H   H5879     1.0  0.55939  0.47197  0.96729  1.0000
  H   H5880     1.0  0.60573  0.33930  0.84773  1.0000
  H   H5881     1.0  0.62764  0.30755  0.95301  1.0000
  C   C3333     1.0  0.62329  0.28781  0.91624  1.0000
  C   C3334     1.0  0.59388  0.28240  0.85562  1.0000
  H   H5882     1.0  0.62818  0.45820  0.90984  1.0000
  Fe  Fe380     1.0  0.55803  0.32779  0.96934  1.0000
  C   C3335     1.0  0.65199  0.32528  0.92046  1.0000
  S   S754      1.0  0.71401  0.24453  0.89256  1.0000
  C   C3336     1.0  0.49765  0.42695  0.90641  1.0000
  H   H5883     1.0  0.64559  0.23617  0.90837  1.0000
  C   C3337     1.0  0.60282  0.36867  0.93949  1.0000
  C   C3338     1.0  0.68738  0.36241  0.91409  1.0000
  C   C3339     1.0  0.68736  0.35091  0.92802  1.0000
  C   C3340     1.0  0.68962  0.33503  0.92767  1.0000
  C   C3341     1.0  0.69147  0.33062  0.91348  1.0000
  C   C3342     1.0  0.69130  0.34212  0.89959  1.0000
  C   C3343     1.0  0.68948  0.35795  0.89987  1.0000
  H   H5884     1.0  0.68596  0.35423  0.93899  1.0000
  H   H5885     1.0  0.68998  0.32618  0.93843  1.0000
  H   H5886     1.0  0.69263  0.33885  0.88861  1.0000
  H   H5887     1.0  0.68954  0.36681  0.88906  1.0000
  C   C3344     1.0  0.63511  0.24314  0.91509  1.0000
  C   C3345     1.0  0.65823  0.45402  0.96931  1.0000
  H   H5888     1.0  0.60626  0.34705  0.81944  1.0000
  H   H5889     1.0  0.62227  0.29257  0.93850  1.0000
  H   H5890     1.0  0.58646  0.45935  0.96985  1.0000
  C   C3346     1.0  0.59532  0.43141  0.93853  1.0000
  H   H5891     1.0  0.69863  0.23829  0.86904  1.0000
  C   C3347     1.0  0.66208  0.45965  0.95304  1.0000
  C   C3348     1.0  0.61835  0.44600  0.96979  1.0000
  H   H5892     1.0  0.58876  0.35789  0.83020  1.0000
  C   C3349     1.0  0.57535  0.28685  0.91507  1.0000
  C   C3350     1.0  0.56012  0.28713  0.91408  1.0000
  C   C3351     1.0  0.55785  0.27748  0.90542  1.0000
  C   C3352     1.0  0.57071  0.26721  0.89809  1.0000
  C   C3353     1.0  0.58582  0.26665  0.89955  1.0000
  C   C3354     1.0  0.58811  0.27648  0.90787  1.0000
  H   H5893     1.0  0.55017  0.29501  0.91964  1.0000
  H   H5894     1.0  0.54611  0.27798  0.90435  1.0000
  H   H5895     1.0  0.59586  0.25909  0.89375  1.0000
  H   H5896     1.0  0.59993  0.27631  0.90833  1.0000
  C   C3355     1.0  0.64090  0.47335  0.91287  1.0000
  H   H5897     1.0  0.62843  0.31530  0.91523  1.0000
  H   H5898     1.0  0.60857  0.44654  0.92093  1.0000
  N   N188      1.0  0.71002  0.46552  0.96667  1.0000
  C   C3356     1.0  0.71775  0.25517  0.93147  1.0000
  C   C3357     1.0  0.61371  0.43848  0.95874  1.0000
  H   H5899     1.0  0.64751  0.30363  0.90955  1.0000
  H   H5900     1.0  0.61924  0.32255  0.93863  1.0000
  H   H5901     1.0  0.72363  0.36065  0.78959  1.0000
  C   C3358     1.0  0.59815  0.33459  0.84326  1.0000
  C   C3359     1.0  0.62180  0.38172  0.94220  1.0000
  H   H5902     1.0  0.51122  0.35351  0.92403  1.0000
  H   H5903     1.0  0.73122  0.24691  0.78855  1.0000
  H   H5904     1.0  0.65061  0.28882  0.94458  1.0000
  C   C3360     1.0  0.60966  0.43927  0.93280  1.0000
  C   C3361     1.0  0.64193  0.33875  0.91023  1.0000
  H   H5905     1.0  0.64177  0.36257  0.89668  1.0000
  H   H5906     1.0  0.60317  0.43366  0.96526  1.0000
  H   H5907     1.0  0.65648  0.33058  0.92753  1.0000
  H   H5908     1.0  0.57605  0.25872  0.93855  1.0000
  H   H5909     1.0  0.55411  0.34519  0.87535  1.0000
  H   H5910     1.0  0.59708  0.27375  0.86619  1.0000
  H   H5911     1.0  0.73476  0.27676  0.91538  1.0000
  C   C3362     1.0  0.63115  0.29121  0.92746  1.0000
  H   H5912     1.0  0.59481  0.42404  0.95057  1.0000
  S   S755      1.0  0.73738  0.24370  0.95173  1.0000
  H   H5913     1.0  0.62822  0.46235  0.94237  1.0000
  C   C3363     1.0  0.59710  0.38155  0.96120  1.0000
  C   C3364     1.0  0.62622  0.45515  0.93525  1.0000
  C   C3365     1.0  0.61168  0.38592  0.95582  1.0000
  H   H5914     1.0  0.53554  0.32850  0.89330  1.0000
  C   C3366     1.0  0.58334  0.46020  0.95859  1.0000
  H   H5915     1.0  0.72935  0.30239  0.89942  1.0000
  H   H5916     1.0  0.72825  0.46151  0.94595  1.0000
  C   C3367     1.0  0.65719  0.47974  0.97353  1.0000
  S   S756      1.0  0.58064  0.32126  0.95234  1.0000
  H   H5917     1.0  0.56044  0.31773  0.87407  1.0000
  C   C3368     1.0  0.72067  0.29665  0.95924  1.0000
  C   C3369     1.0  0.67726  0.28858  0.95349  1.0000
  H   H5918     1.0  0.62319  0.42793  0.95685  1.0000
  S   S757      1.0  0.68591  0.40227  0.94804  1.0000
  C   C3370     1.0  0.59278  0.37271  0.95321  1.0000
  H   H5919     1.0  0.62490  0.37052  0.92317  1.0000
  H   H5920     1.0  0.49475  0.45805  0.89166  1.0000
  H   H5921     1.0  0.49466  0.41552  0.91334  1.0000
  S   S758      1.0  0.59789  0.35753  0.92919  1.0000
  C   C3371     1.0  0.64973  0.35280  0.90305  1.0000
  H   H5922     1.0  0.64061  0.33466  0.90030  1.0000
  H   H5923     1.0  0.65229  0.35702  0.91229  1.0000
  H   H5924     1.0  0.59101  0.23755  0.92479  1.0000
  N   N189      1.0  0.61137  0.44902  0.94308  1.0000
  H   H5925     1.0  0.73019  0.36983  0.76931  1.0000
  H   H5926     1.0  0.61543  0.24548  0.94517  1.0000
  H   H5927     1.0  0.58163  0.36917  0.95758  1.0000
  C   C3372     1.0  0.73983  0.30555  0.90090  1.0000
  H   H5928     1.0  0.64281  0.32816  0.95445  1.0000
  H   H5929     1.0  0.60480  0.28468  0.84693  1.0000
  H   H5930     1.0  0.58738  0.27714  0.85039  1.0000
  H   H5931     1.0  0.56822  0.31142  0.89128  1.0000
  H   H5932     1.0  0.67594  0.27708  0.80891  1.0000
  H   H5933     1.0  0.60716  0.41170  0.92710  1.0000
  H   H5934     1.0  0.71983  0.25014  0.64113  1.0000
  C   C3373     1.0  0.58263  0.33315  0.85557  1.0000
  H   H5935     1.0  0.70940  0.24200  0.57664  1.0000
  H   H5936     1.0  0.56441  0.34136  0.89082  1.0000
  C   C3374     1.0  0.73178  0.28899  0.94605  1.0000
  H   H5937     1.0  0.51773  0.43771  0.90228  1.0000
  H   H5938     1.0  0.60405  0.30447  0.86111  1.0000
  C   C3375     1.0  0.55776  0.33629  0.88561  1.0000
  H   H5939     1.0  0.55564  0.26014  0.96335  1.0000
  H   H5940     1.0  0.69495  0.23578  0.81642  1.0000
  C   C3376     1.0  0.52434  0.41325  0.91295  1.0000
  H   H5941     1.0  0.72104  0.32733  0.88217  1.0000
  C   C3377     1.0  0.59274  0.32621  0.88008  1.0000
  C   C3378     1.0  0.61080  0.31974  0.87768  1.0000
  C   C3379     1.0  0.61822  0.32849  0.88490  1.0000
  H   H5942     1.0  0.59317  0.29676  0.87961  1.0000
  H   H5943     1.0  0.59047  0.33927  0.87788  1.0000
  H   H5944     1.0  0.58820  0.32230  0.89298  1.0000
  H   H5945     1.0  0.61329  0.30711  0.88360  1.0000
  H   H5946     1.0  0.61682  0.32073  0.86515  1.0000
  H   H5947     1.0  0.61748  0.34086  0.87827  1.0000
  H   H5948     1.0  0.61212  0.32839  0.89736  1.0000
  H   H5949     1.0  0.63082  0.32271  0.88438  1.0000
  H   H5950     1.0  0.71337  0.26511  0.93705  1.0000
  H   H5951     1.0  0.72652  0.32788  0.90788  1.0000
  C   C3380     1.0  0.61721  0.37342  0.93389  1.0000
  H   H5952     1.0  0.63921  0.24995  0.92105  1.0000
  H   H5953     1.0  0.62810  0.25137  0.90665  1.0000
  H   H5954     1.0  0.53578  0.34475  0.90102  1.0000
  C   C3381     1.0  0.66328  0.47540  0.94707  1.0000
  C   C3382     1.0  0.70671  0.43719  0.97004  1.0000
  C   C3383     1.0  0.61816  0.33331  0.96480  1.0000
  H   H5955     1.0  0.66085  0.34954  0.89452  1.0000
  C   C3384     1.0  0.63164  0.33075  0.95062  1.0000
  C   C3385     1.0  0.72969  0.32092  0.74574  1.0000
  C   C3386     1.0  0.66521  0.30124  0.82431  1.0000
  H   H5956     1.0  0.73722  0.34144  0.74498  1.0000
  H   H5957     1.0  0.61237  0.45855  0.96896  1.0000
  H   H5958     1.0  0.57253  0.29462  0.86821  1.0000
  H   H5959     1.0  0.72163  0.32074  0.75749  1.0000
  H   H5960     1.0  0.70446  0.42903  0.95040  1.0000
  H   H5961     1.0  0.73154  0.34124  0.77313  1.0000
  H   H5962     1.0  0.72683  0.24100  0.61661  1.0000
  C   C3387     1.0  0.49143  0.38640  0.93784  1.0000
  C   C3388     1.0  0.73123  0.33150  0.88282  1.0000
  H   H5963     1.0  0.72842  0.31212  0.93052  1.0000
  H   H5964     1.0  0.65740  0.44188  0.97406  1.0000
  H   H5965     1.0  0.70471  0.26582  0.91339  1.0000
  H   H5966     1.0  0.70837  0.29974  0.95764  1.0000
  C   C3389     1.0  0.57958  0.25886  0.94927  1.0000
  H   H5967     1.0  0.66551  0.29459  0.92806  1.0000
  S   S759      1.0  0.65108  0.41088  0.97146  1.0000
  H   H5968     1.0  0.53475  0.41493  0.91598  1.0000
  H   H5969     1.0  0.71943  0.29877  0.92731  1.0000
  H   H5970     1.0  0.56830  0.26736  0.97085  1.0000
  H   H5971     1.0  0.58047  0.30572  0.84917  1.0000
  H   H5972     1.0  0.64079  0.48098  0.90096  1.0000
  H   H5973     1.0  0.57957  0.44929  0.95964  1.0000
  H   H5974     1.0  0.72836  0.27785  0.94706  1.0000
  S   S760      1.0  0.72956  0.30456  0.83796  1.0000
  H   H5975     1.0  0.60577  0.25164  0.92917  1.0000
  C   C3390     1.0  0.59188  0.30495  0.86814  1.0000
  S   S761      1.0  0.73042  0.28615  0.77519  1.0000
  H   H5976     1.0  0.66065  0.30394  0.81346  1.0000
  C   C3391     1.0  0.59754  0.46280  0.94461  1.0000
  H   H5977     1.0  0.51067  0.33460  0.97050  1.0000
  H   H5978     1.0  0.71339  0.24711  0.78335  1.0000
  H   H5979     1.0  0.68663  0.28682  0.94285  1.0000
  H   H5980     1.0  0.70376  0.45647  0.95005  1.0000
  H   H5981     1.0  0.67177  0.28180  0.84258  1.0000
  S   S762      1.0  0.55545  0.35350  0.95883  1.0000
  H   H5982     1.0  0.58913  0.38496  0.97156  1.0000
  H   H5983     1.0  0.57730  0.34511  0.85793  1.0000
  H   H5984     1.0  0.64064  0.28072  0.92998  1.0000
  C   C3392     1.0  0.67988  0.27394  0.82020  1.0000
  H   H5985     1.0  0.62048  0.42983  0.93100  1.0000
  H   H5986     1.0  0.60130  0.47301  0.94591  1.0000
  C   C3393     1.0  0.58670  0.24200  0.95759  1.0000
  C   C3394     1.0  0.73051  0.29974  0.92963  1.0000
  C   C3395     1.0  0.65598  0.29893  0.93768  1.0000
  C   C3396     1.0  0.50205  0.36374  0.92606  1.0000
  H   H5987     1.0  0.66178  0.25427  0.84326  1.0000
  C   C3397     1.0  0.72710  0.46228  0.95828  1.0000
  H   H5988     1.0  0.60662  0.33627  0.96142  1.0000
  C   C3398     1.0  0.72980  0.29904  0.82075  1.0000
  H   H5989     1.0  0.59233  0.24326  0.96654  1.0000
  C   C3399     1.0  0.71282  0.25558  0.91804  1.0000
  C   C3400     1.0  0.65759  0.25411  0.82088  1.0000
  H   H5990     1.0  0.71701  0.24925  0.81542  1.0000
  H   H5991     1.0  0.65502  0.30356  0.96039  1.0000
  C   C3401     1.0  0.69191  0.25274  0.83950  1.0000
  C   C3402     1.0  0.64242  0.24827  0.82900  1.0000
  H   H5992     1.0  0.68766  0.25251  0.80281  1.0000
  H   H5993     1.0  0.73334  0.45054  0.96387  1.0000
  C   C3403     1.0  0.69984  0.42755  0.96330  1.0000
  C   C3404     1.0  0.66867  0.25012  0.83245  1.0000
  H   H5994     1.0  0.49480  0.45606  0.91158  1.0000
  Fe  Fe381     1.0  0.67176  0.39057  0.97064  1.0000
  H   H5995     1.0  0.63581  0.25422  0.83882  1.0000
  H   H5996     1.0  0.72123  0.28831  0.97075  1.0000
  H   H5997     1.0  0.73460  0.30868  0.74418  1.0000
  H   H5998     1.0  0.59307  0.46702  0.93355  1.0000
  C   C3405     1.0  0.71954  0.24377  0.79322  1.0000
  H   H5999     1.0  0.66334  0.24835  0.81080  1.0000
  H   H6000     1.0  0.68684  0.43122  0.96563  1.0000
  H   H6001     1.0  0.73215  0.23620  0.58873  1.0000
  H   H6002     1.0  0.63481  0.25088  0.82047  1.0000
  H   H6003     1.0  0.61601  0.47487  0.91776  1.0000
  H   H6004     1.0  0.71697  0.23908  0.85476  1.0000
  C   C3406     1.0  0.70203  0.48239  0.96132  1.0000
  H   H6005     1.0  0.56560  0.23716  0.94395  1.0000
  C   C3407     1.0  0.62682  0.46548  0.91836  1.0000
  H   H6006     1.0  0.56508  0.47487  0.94618  1.0000
  C   C3408     1.0  0.73677  0.47418  0.95786  1.0000
  H   H6007     1.0  0.67150  0.23709  0.83619  1.0000
  Fe  Fe382     1.0  0.58716  0.23490  0.88082  1.0000
  H   H6008     1.0  0.69520  0.48239  0.93985  1.0000
  H   H6009     1.0  0.71409  0.23443  0.60333  1.0000
  H   H6010     1.0  0.50563  0.49194  0.00571  1.0000
  H   H6011     1.0  0.58020  0.54170  0.14961  1.0000
  Fe  Fe383     1.0  0.67549  0.53092  0.99716  1.0000
  S   S763      1.0  0.68431  0.52453  0.01939  1.0000
  Fe  Fe384     1.0  0.53444  0.61617  0.08059  1.0000
  S   S764      1.0  0.55014  0.63072  0.06192  1.0000
  H   H6012     1.0  0.59165  0.62959  0.02648  1.0000
  Fe  Fe385     1.0  0.56189  0.59455  0.09406  1.0000
  S   S765      1.0  0.57964  0.60654  0.07623  1.0000
  S   S766      1.0  0.56972  0.57296  0.11177  1.0000
  Fe  Fe386     1.0  0.56282  0.62901  0.08072  1.0000
  S   S767      1.0  0.57686  0.64723  0.07824  1.0000
  Fe  Fe387     1.0  0.56588  0.60748  0.05889  1.0000
  S   S768      1.0  0.57709  0.60135  0.03534  1.0000
  S   S769      1.0  0.54550  0.61677  0.10001  1.0000
  S   S770      1.0  0.54975  0.59316  0.07627  1.0000
  Fe  Fe388     1.0  0.68698  0.56587  0.10637  1.0000
  S   S771      1.0  0.66446  0.58093  0.10000  1.0000
  S   S772      1.0  0.70591  0.57790  0.10631  1.0000
  Fe  Fe389     1.0  0.65301  0.56259  0.11776  1.0000
  S   S773      1.0  0.63049  0.56948  0.13480  1.0000
  Fe  Fe390     1.0  0.66817  0.56536  0.08342  1.0000
  S   S774      1.0  0.66301  0.57612  0.05940  1.0000
  H   H6013     1.0  0.63497  0.61611  0.07908  1.0000
  H   H6014     1.0  0.52052  0.58607  0.09095  1.0000
  H   H6015     1.0  0.56870  0.57796  0.99447  1.0000
  Fe  Fe391     1.0  0.72061  0.65055  0.15122  1.0000
  S   S775      1.0  0.70502  0.67164  0.13890  1.0000
  S   S776      1.0  0.71371  0.63573  0.17515  1.0000
  Fe  Fe392     1.0  0.61781  0.69127  0.14665  1.0000
  S   S777      1.0  0.61689  0.68656  0.12404  1.0000
  S   S778      1.0  0.63238  0.67227  0.16175  1.0000
  C   C3409     1.0  0.63358  0.72151  0.17677  1.0000
  S   S779      1.0  0.59338  0.72174  0.11855  1.0000
  H   H6016     1.0  0.57584  0.64924  0.04241  1.0000
  Fe  Fe393     1.0  0.59108  0.69688  0.13059  1.0000
  S   S780      1.0  0.57282  0.68411  0.13029  1.0000
  Fe  Fe394     1.0  0.61937  0.71150  0.11418  1.0000
  S   S781      1.0  0.63783  0.71828  0.09292  1.0000
  S   S782      1.0  0.59178  0.70006  0.15425  1.0000
  S   S783      1.0  0.62250  0.71539  0.13631  1.0000
  C   C3410     1.0  0.68478  0.67226  0.14583  1.0000
  C   C3411     1.0  0.67917  0.66160  0.15926  1.0000
  C   C3412     1.0  0.66305  0.66179  0.16419  1.0000
  C   C3413     1.0  0.65245  0.67257  0.15566  1.0000
  C   C3414     1.0  0.65799  0.68345  0.14239  1.0000
  C   C3415     1.0  0.67412  0.68340  0.13758  1.0000
  H   H6017     1.0  0.68718  0.65303  0.16577  1.0000
  H   H6018     1.0  0.65882  0.65339  0.17452  1.0000
  H   H6019     1.0  0.64993  0.69168  0.13561  1.0000
  H   H6020     1.0  0.67839  0.69163  0.12714  1.0000
  H   H6021     1.0  0.73775  0.64098  0.10216  1.0000
  H   H6022     1.0  0.51153  0.60361  0.03365  1.0000
  H   H6023     1.0  0.50061  0.51248  0.98138  1.0000
  H   H6024     1.0  0.66212  0.68870  0.10832  1.0000
  H   H6025     1.0  0.54972  0.56231  0.06552  1.0000
  C   C3416     1.0  0.70586  0.56244  0.99856  1.0000
  C   C3417     1.0  0.53496  0.56613  0.04315  1.0000
  C   C3418     1.0  0.62890  0.50144  0.02549  1.0000
  H   H6026     1.0  0.63052  0.51050  0.03069  1.0000
  H   H6027     1.0  0.58631  0.51157  0.13772  1.0000
  H   H6028     1.0  0.71558  0.50898  0.07705  1.0000
  H   H6029     1.0  0.64997  0.49279  0.05416  1.0000
  H   H6030     1.0  0.68918  0.62196  0.06926  1.0000
  H   H6031     1.0  0.73165  0.71108  0.15843  1.0000
  H   H6032     1.0  0.60943  0.73407  0.05913  1.0000
  H   H6033     1.0  0.54327  0.51252  0.05822  1.0000
  H   H6034     1.0  0.66080  0.62852  0.15257  1.0000
  H   H6035     1.0  0.56373  0.57497  0.02381  1.0000
  H   H6036     1.0  0.68461  0.65574  0.08943  1.0000
  H   H6037     1.0  0.60872  0.49796  0.01848  1.0000
  C   C3419     1.0  0.61167  0.50653  0.02329  1.0000
  C   C3420     1.0  0.54847  0.51580  0.06630  1.0000
  H   H6038     1.0  0.69640  0.51601  0.07236  1.0000
  H   H6039     1.0  0.63303  0.62484  0.05154  1.0000
  C   C3421     1.0  0.54575  0.53366  0.06351  1.0000
  C   C3422     1.0  0.68312  0.62710  0.12376  1.0000
  H   H6040     1.0  0.60400  0.60229  0.04932  1.0000
  C   C3423     1.0  0.56444  0.65131  0.99154  1.0000
  H   H6041     1.0  0.61155  0.53164  0.01619  1.0000
  H   H6042     1.0  0.72009  0.64138  0.08555  1.0000
  C   C3424     1.0  0.70780  0.58277  0.12322  1.0000
  C   C3425     1.0  0.69801  0.57885  0.13798  1.0000
  C   C3426     1.0  0.69998  0.58297  0.15111  1.0000
  C   C3427     1.0  0.71154  0.59128  0.14956  1.0000
  C   C3428     1.0  0.71941  0.59096  0.12171  1.0000
  H   H6043     1.0  0.68910  0.57244  0.13934  1.0000
  H   H6044     1.0  0.69253  0.57971  0.16254  1.0000
  H   H6045     1.0  0.51704  0.67409  0.02847  1.0000
  C   C3429     1.0  0.57558  0.65727  0.09293  1.0000
  C   C3430     1.0  0.56355  0.65686  0.10648  1.0000
  C   C3431     1.0  0.56293  0.66509  0.11783  1.0000
  C   C3432     1.0  0.57431  0.67377  0.11578  1.0000
  C   C3433     1.0  0.58641  0.67407  0.10228  1.0000
  C   C3434     1.0  0.58699  0.66591  0.09089  1.0000
  H   H6046     1.0  0.55466  0.65032  0.10818  1.0000
  H   H6047     1.0  0.55350  0.66482  0.12822  1.0000
  H   H6048     1.0  0.59517  0.68080  0.10053  1.0000
  H   H6049     1.0  0.59629  0.66636  0.08041  1.0000
  C   C3435     1.0  0.58636  0.57366  0.11764  1.0000
  C   C3436     1.0  0.60047  0.57528  0.10667  1.0000
  C   C3437     1.0  0.61414  0.57399  0.11184  1.0000
  C   C3438     1.0  0.61358  0.57155  0.12791  1.0000
  C   C3439     1.0  0.59934  0.57055  0.13876  1.0000
  C   C3440     1.0  0.58582  0.57142  0.13365  1.0000
  H   H6050     1.0  0.60095  0.57697  0.09427  1.0000
  H   H6051     1.0  0.62513  0.57479  0.10341  1.0000
  H   H6052     1.0  0.59884  0.56876  0.15119  1.0000
  H   H6053     1.0  0.57488  0.57039  0.14212  1.0000
  C   C3441     1.0  0.67563  0.53849  0.03101  1.0000
  C   C3442     1.0  0.66660  0.56152  0.04887  1.0000
  C   C3443     1.0  0.66583  0.56574  0.03301  1.0000
  C   C3444     1.0  0.67009  0.55418  0.02413  1.0000
  H   H6054     1.0  0.66255  0.57797  0.02741  1.0000
  H   H6055     1.0  0.66996  0.55755  0.01177  1.0000
  C   C3445     1.0  0.54147  0.61879  0.00398  1.0000
  C   C3446     1.0  0.55667  0.61070  0.99836  1.0000
  C   C3447     1.0  0.56766  0.60537  0.00802  1.0000
  C   C3448     1.0  0.56336  0.60789  0.02333  1.0000
  C   C3449     1.0  0.54802  0.61556  0.02903  1.0000
  C   C3450     1.0  0.53716  0.62115  0.01933  1.0000
  H   H6056     1.0  0.51675  0.48480  0.02904  1.0000
  H   H6057     1.0  0.57946  0.59924  0.00370  1.0000
  H   H6058     1.0  0.54436  0.61701  0.04100  1.0000
  H   H6059     1.0  0.52538  0.62722  0.02382  1.0000
  C   C3451     1.0  0.51072  0.58740  0.08578  1.0000
  C   C3452     1.0  0.50217  0.60159  0.99329  1.0000
  H   H6060     1.0  0.61127  0.48633  0.05174  1.0000
  C   C3453     1.0  0.71542  0.64850  0.09467  1.0000
  C   C3454     1.0  0.59117  0.63443  0.98274  1.0000
  H   H6061     1.0  0.61396  0.49758  0.13573  1.0000
  H   H6062     1.0  0.67719  0.49586  0.04703  1.0000
  C   C3455     1.0  0.67188  0.70342  0.16732  1.0000
  C   C3456     1.0  0.50593  0.57399  0.08562  1.0000
  H   H6063     1.0  0.51251  0.58675  0.02626  1.0000
  C   C3457     1.0  0.63398  0.70414  0.17779  1.0000
  C   C3458     1.0  0.61793  0.70019  0.18603  1.0000
  C   C3459     1.0  0.68247  0.69236  0.17815  1.0000
  H   H6064     1.0  0.72022  0.53586  0.06209  1.0000
  H   H6065     1.0  0.65739  0.50029  0.07667  1.0000
  H   H6066     1.0  0.71483  0.59356  0.04002  1.0000
  H   H6067     1.0  0.65239  0.71573  0.14838  1.0000
  C   C3460     1.0  0.64996  0.72778  0.15034  1.0000
  H   H6068     1.0  0.56372  0.67837  0.99561  1.0000
  C   C3461     1.0  0.71592  0.51866  0.05207  1.0000
  C   C3462     1.0  0.63757  0.63673  0.01947  1.0000
  S   S784      1.0  0.73235  0.63045  0.13933  1.0000
  H   H6069     1.0  0.53269  0.65311  0.00190  1.0000
  H   H6070     1.0  0.67947  0.70691  0.15560  1.0000
  H   H6071     1.0  0.66429  0.69654  0.16583  1.0000
  C   C3463     1.0  0.68758  0.61228  0.07979  1.0000
  H   H6072     1.0  0.73906  0.52773  0.02644  1.0000
  C   C3464     1.0  0.61801  0.57533  0.03860  1.0000
  H   H6073     1.0  0.52736  0.67370  0.00045  1.0000
  H   H6074     1.0  0.63706  0.70150  0.16598  1.0000
  H   H6075     1.0  0.64257  0.69631  0.18481  1.0000
  H   H6076     1.0  0.61340  0.70402  0.19738  1.0000
  H   H6077     1.0  0.60938  0.70589  0.17833  1.0000
  H   H6078     1.0  0.61898  0.68729  0.18850  1.0000
  H   H6079     1.0  0.67522  0.68692  0.18932  1.0000
  H   H6080     1.0  0.69028  0.68280  0.17238  1.0000
  H   H6081     1.0  0.68986  0.69876  0.18087  1.0000
  C   C3465     1.0  0.61383  0.60407  0.03899  1.0000
  C   C3466     1.0  0.71497  0.53596  0.05229  1.0000
  C   C3467     1.0  0.58429  0.65267  0.03126  1.0000
  H   H6082     1.0  0.68081  0.48899  0.02925  1.0000
  C   C3468     1.0  0.62584  0.58815  0.03889  1.0000
  H   H6083     1.0  0.71106  0.58287  0.06034  1.0000
  N   N190      1.0  0.61472  0.62765  0.13350  1.0000
  C   C3469     1.0  0.60690  0.61735  0.12895  1.0000
  C   C3470     1.0  0.62869  0.61743  0.14010  1.0000
  C   C3471     1.0  0.60307  0.63481  0.14655  1.0000
  C   C3472     1.0  0.61949  0.64084  0.12005  1.0000
  C   C3473     1.0  0.62443  0.63757  0.10323  1.0000
  C   C3474     1.0  0.59070  0.62551  0.12467  1.0000
  C   C3475     1.0  0.60936  0.64448  0.15427  1.0000
  C   C3476     1.0  0.64229  0.60883  0.12872  1.0000
  C   C3477     1.0  0.65437  0.59706  0.13752  1.0000
  C   C3478     1.0  0.63146  0.65079  0.09132  1.0000
  C   C3479     1.0  0.58604  0.61634  0.11548  1.0000
  C   C3480     1.0  0.59592  0.65424  0.16433  1.0000
  H   H6084     1.0  0.60502  0.60697  0.13873  1.0000
  H   H6085     1.0  0.61458  0.61218  0.11899  1.0000
  H   H6086     1.0  0.63429  0.62448  0.14432  1.0000
  H   H6087     1.0  0.62469  0.60842  0.15059  1.0000
  H   H6088     1.0  0.59827  0.62550  0.15613  1.0000
  H   H6089     1.0  0.59273  0.64291  0.14210  1.0000
  H   H6090     1.0  0.60968  0.65147  0.11958  1.0000
  H   H6091     1.0  0.62925  0.64472  0.12212  1.0000
  H   H6092     1.0  0.61408  0.63681  0.09941  1.0000
  H   H6093     1.0  0.63320  0.62643  0.10252  1.0000
  H   H6094     1.0  0.58142  0.62635  0.13558  1.0000
  H   H6095     1.0  0.59078  0.63757  0.11759  1.0000
  H   H6096     1.0  0.61615  0.65265  0.14531  1.0000
  H   H6097     1.0  0.61710  0.63652  0.16215  1.0000
  H   H6098     1.0  0.63810  0.60218  0.12274  1.0000
  H   H6099     1.0  0.64854  0.61746  0.11979  1.0000
  H   H6100     1.0  0.64899  0.58751  0.14598  1.0000
  H   H6101     1.0  0.66442  0.59166  0.12907  1.0000
  H   H6102     1.0  0.65895  0.60292  0.14400  1.0000
  H   H6103     1.0  0.64239  0.65158  0.09409  1.0000
  H   H6104     1.0  0.63437  0.64846  0.07933  1.0000
  H   H6105     1.0  0.62290  0.66223  0.09139  1.0000
  H   H6106     1.0  0.58579  0.60419  0.12233  1.0000
  H   H6107     1.0  0.57411  0.62211  0.11325  1.0000
  H   H6108     1.0  0.59439  0.61601  0.10396  1.0000
  H   H6109     1.0  0.58819  0.66306  0.15692  1.0000
  H   H6110     1.0  0.58882  0.64658  0.17364  1.0000
  H   H6111     1.0  0.60082  0.66064  0.17002  1.0000
  Fe  Fe395     1.0  0.73713  0.63604  0.17901  1.0000
  C   C3481     1.0  0.53126  0.58427  0.03806  1.0000
  H   H6112     1.0  0.49866  0.63239  0.02093  1.0000
  C   C3482     1.0  0.53727  0.66332  0.00188  1.0000
  H   H6113     1.0  0.65410  0.50552  0.03498  1.0000
  H   H6114     1.0  0.63669  0.50254  0.01358  1.0000
  C   C3483     1.0  0.61972  0.60908  0.06856  1.0000
  H   H6115     1.0  0.50137  0.49910  0.03803  1.0000
  C   C3484     1.0  0.49278  0.57535  0.07965  1.0000
  C   C3485     1.0  0.57949  0.56068  0.06807  1.0000
  H   H6116     1.0  0.67173  0.54237  0.06826  1.0000
  C   C3486     1.0  0.73881  0.53817  0.03079  1.0000
  H   H6117     1.0  0.50951  0.50887  0.00928  1.0000
  H   H6118     1.0  0.73850  0.68164  0.16903  1.0000
  H   H6119     1.0  0.60858  0.60651  0.02859  1.0000
  H   H6120     1.0  0.50368  0.57686  0.00508  1.0000
  H   H6121     1.0  0.61668  0.52180  0.00005  1.0000
  N   N191      1.0  0.62023  0.61788  0.03866  1.0000
  H   H6122     1.0  0.58357  0.55732  0.04471  1.0000
  H   H6123     1.0  0.73385  0.68672  0.11950  1.0000
  H   H6124     1.0  0.64254  0.49248  0.11957  1.0000
  H   H6125     1.0  0.69989  0.55318  0.02989  1.0000
  C   C3487     1.0  0.56730  0.56573  0.99652  1.0000
  H   H6126     1.0  0.65847  0.62938  0.00198  1.0000
  C   C3488     1.0  0.55579  0.68047  0.98743  1.0000
  C   C3489     1.0  0.59070  0.52110  0.13953  1.0000
  H   H6127     1.0  0.71143  0.71063  0.16452  1.0000
  H   H6128     1.0  0.70935  0.51810  0.04364  1.0000
  H   H6129     1.0  0.59288  0.63181  0.99496  1.0000
  H   H6130     1.0  0.63951  0.59538  0.07916  1.0000
  H   H6131     1.0  0.57778  0.65744  0.02164  1.0000
  H   H6132     1.0  0.60730  0.49947  0.11859  1.0000
  H   H6133     1.0  0.51243  0.56247  0.09028  1.0000
  C   C3490     1.0  0.68424  0.63115  0.13894  1.0000
  H   H6134     1.0  0.61381  0.51843  0.09527  1.0000
  H   H6135     1.0  0.70230  0.54118  0.05600  1.0000
  H   H6136     1.0  0.61050  0.64135  0.04313  1.0000
  H   H6137     1.0  0.59137  0.55397  0.06980  1.0000
  H   H6138     1.0  0.64149  0.64071  0.99394  1.0000
  C   C3491     1.0  0.73487  0.72343  0.29735  1.0000
  H   H6139     1.0  0.65890  0.71446  0.18699  1.0000
  H   H6140     1.0  0.62915  0.50473  0.14603  1.0000
  C   C3492     1.0  0.72301  0.70003  0.14415  1.0000
  C   C3493     1.0  0.71247  0.54837  0.02514  1.0000
  H   H6141     1.0  0.59218  0.73093  0.17925  1.0000
  H   H6142     1.0  0.72542  0.72382  0.33616  1.0000
  H   H6143     1.0  0.59896  0.59252  0.98252  1.0000
  C   C3494     1.0  0.67385  0.48808  0.04153  1.0000
  N   N192      1.0  0.55209  0.55831  0.04236  1.0000
  C   C3495     1.0  0.71979  0.70867  0.10905  1.0000
  C   C3496     1.0  0.57488  0.55500  0.05594  1.0000
  C   C3497     1.0  0.62906  0.61428  0.05157  1.0000
  C   C3498     1.0  0.72663  0.68885  0.17262  1.0000
  H   H6144     1.0  0.54801  0.53739  0.03859  1.0000
  H   H6145     1.0  0.72315  0.68732  0.14623  1.0000
  H   H6146     1.0  0.71126  0.70594  0.14155  1.0000
  C   C3499     1.0  0.52469  0.66219  0.03089  1.0000
  C   C3500     1.0  0.61683  0.50164  0.12277  1.0000
  H   H6147     1.0  0.62256  0.60356  0.09262  1.0000
  H   H6148     1.0  0.55467  0.54931  0.01353  1.0000
  H   H6149     1.0  0.67395  0.73256  0.14258  1.0000
  H   H6150     1.0  0.63346  0.51796  0.09569  1.0000
  H   H6151     1.0  0.52228  0.58204  0.99473  1.0000
  H   H6152     1.0  0.56030  0.64036  0.99344  1.0000
  H   H6153     1.0  0.56265  0.56490  0.98672  1.0000
  H   H6154     1.0  0.65435  0.67671  0.10087  1.0000
  S   S785      1.0  0.65444  0.49170  0.98683  1.0000
  H   H6155     1.0  0.67050  0.62827  0.12405  1.0000
  H   H6156     1.0  0.70862  0.70975  0.11797  1.0000
  Fe  Fe396     1.0  0.72658  0.61546  0.16342  1.0000
  H   H6157     1.0  0.67830  0.60686  0.07906  1.0000
  C   C3501     1.0  0.59732  0.63846  0.02767  1.0000
  H   H6158     1.0  0.64005  0.60517  0.04944  1.0000
  C   C3502     1.0  0.55351  0.54076  0.04638  1.0000
  C   C3503     1.0  0.50254  0.60241  0.07980  1.0000
  H   H6159     1.0  0.57904  0.55764  0.99631  1.0000
  N   N193      1.0  0.64809  0.72763  0.16746  1.0000
  C   C3504     1.0  0.73801  0.72046  0.33048  1.0000
  H   H6160     1.0  0.71392  0.73128  0.14114  1.0000
  H   H6161     1.0  0.62780  0.64722  0.02000  1.0000
  H   H6162     1.0  0.51833  0.65327  0.03100  1.0000
  H   H6163     1.0  0.70808  0.65986  0.08981  1.0000
  H   H6164     1.0  0.61805  0.52430  0.14822  1.0000
  H   H6165     1.0  0.57414  0.55535  0.02522  1.0000
  H   H6166     1.0  0.65409  0.51404  0.13936  1.0000
  H   H6167     1.0  0.71381  0.62838  0.11422  1.0000
  C   C3505     1.0  0.56202  0.56279  0.02610  1.0000
  C   C3506     1.0  0.60074  0.52857  0.12375  1.0000
  H   H6168     1.0  0.64291  0.53346  0.14167  1.0000
  C   C3507     1.0  0.70870  0.50986  0.06830  1.0000
  H   H6169     1.0  0.71044  0.56905  0.98663  1.0000
  H   H6170     1.0  0.55788  0.57625  0.04986  1.0000
  H   H6171     1.0  0.70061  0.57710  0.03323  1.0000
  S   S786      1.0  0.50883  0.61942  0.07950  1.0000
  S   S787      1.0  0.68558  0.50881  0.11191  1.0000
  N   N194      1.0  0.72211  0.54597  0.03711  1.0000
  C   C3508     1.0  0.55592  0.56145  0.01221  1.0000
  S   S788      1.0  0.69173  0.55158  0.08811  1.0000
  H   H6172     1.0  0.72621  0.72734  0.06275  1.0000
  C   C3509     1.0  0.70582  0.63959  0.10980  1.0000
  H   H6173     1.0  0.57991  0.57331  0.06391  1.0000
  H   H6174     1.0  0.64226  0.51709  0.15828  1.0000
  H   H6175     1.0  0.63546  0.58904  0.02827  1.0000
  H   H6176     1.0  0.72162  0.72054  0.10249  1.0000
  H   H6177     1.0  0.65251  0.65027  0.00076  1.0000
  H   H6178     1.0  0.53890  0.58842  0.02667  1.0000
  C   C3510     1.0  0.67500  0.66433  0.11086  1.0000
  H   H6179     1.0  0.64209  0.61176  0.02221  1.0000
  H   H6180     1.0  0.59655  0.52607  0.01064  1.0000
  H   H6181     1.0  0.71231  0.71953  0.05790  1.0000
  H   H6182     1.0  0.65919  0.58749  0.98644  1.0000
  H   H6183     1.0  0.72566  0.65919  0.10718  1.0000
  H   H6184     1.0  0.70036  0.63250  0.08444  1.0000
  H   H6185     1.0  0.70781  0.70772  0.09176  1.0000
  H   H6186     1.0  0.60936  0.61846  0.07170  1.0000
  C   C3511     1.0  0.72955  0.65207  0.09805  1.0000
  H   H6187     1.0  0.54750  0.64921  0.02217  1.0000
  H   H6188     1.0  0.68128  0.64391  0.13819  1.0000
  H   H6189     1.0  0.62606  0.62190  0.01321  1.0000
  C   C3512     1.0  0.64815  0.63938  0.00302  1.0000
  H   H6190     1.0  0.67614  0.61079  0.15507  1.0000
  H   H6191     1.0  0.68539  0.66759  0.11221  1.0000
  H   H6192     1.0  0.73042  0.60127  0.13347  1.0000
  C   C3513     1.0  0.67328  0.62376  0.15349  1.0000
  C   C3514     1.0  0.72121  0.59528  0.13476  1.0000
  Fe  Fe397     1.0  0.66165  0.51511  0.98034  1.0000
  H   H6193     1.0  0.49891  0.53130  0.99647  1.0000
  H   H6194     1.0  0.54613  0.67002  0.01900  1.0000
  C   C3515     1.0  0.62986  0.60586  0.08054  1.0000
  H   H6195     1.0  0.52717  0.65997  0.04275  1.0000
  C   C3516     1.0  0.71777  0.55895  0.00885  1.0000
  H   H6196     1.0  0.72823  0.51222  0.04878  1.0000
  H   H6197     1.0  0.50603  0.58627  0.04703  1.0000
  H   H6198     1.0  0.61320  0.57844  0.02783  1.0000
  H   H6199     1.0  0.69873  0.60325  0.07964  1.0000
  H   H6200     1.0  0.71788  0.68153  0.17497  1.0000
  H   H6201     1.0  0.63095  0.58420  0.04949  1.0000
  H   H6202     1.0  0.64465  0.63599  0.02798  1.0000
  C   C3517     1.0  0.67116  0.54570  0.05600  1.0000
  H   H6203     1.0  0.55064  0.53626  0.07222  1.0000
  H   H6204     1.0  0.56607  0.53450  0.04392  1.0000
  N   N195      1.0  0.69100  0.63614  0.10820  1.0000
  H   H6205     1.0  0.59746  0.51594  0.14889  1.0000
  N   N196      1.0  0.61690  0.51896  0.11802  1.0000
  C   C3518     1.0  0.62093  0.52332  0.10023  1.0000
  C   C3519     1.0  0.62924  0.52274  0.12384  1.0000
  C   C3520     1.0  0.61851  0.54118  0.09266  1.0000
  C   C3521     1.0  0.62625  0.54414  0.07515  1.0000
  H   H6206     1.0  0.60163  0.54031  0.12460  1.0000
  H   H6207     1.0  0.59322  0.53111  0.11508  1.0000
  C   C3522     1.0  0.69580  0.62582  0.09637  1.0000
  C   C3523     1.0  0.55793  0.56347  0.05378  1.0000
  H   H6208     1.0  0.64129  0.51788  0.11752  1.0000
  H   H6209     1.0  0.62827  0.53564  0.12110  1.0000
  H   H6210     1.0  0.62365  0.54736  0.09823  1.0000
  H   H6211     1.0  0.60579  0.54671  0.09386  1.0000
  H   H6212     1.0  0.63913  0.53920  0.07335  1.0000
  H   H6213     1.0  0.62105  0.53879  0.06870  1.0000
  H   H6214     1.0  0.59774  0.62828  0.05185  1.0000
  C   C3524     1.0  0.60659  0.63165  0.04100  1.0000
  H   H6215     1.0  0.70327  0.64665  0.11881  1.0000
  C   C3525     1.0  0.68275  0.61855  0.09485  1.0000
  H   H6216     1.0  0.60503  0.64235  0.01618  1.0000
  N   N197      1.0  0.63369  0.48515  0.03515  1.0000
  H   H6217     1.0  0.52797  0.56345  0.05540  1.0000
  C   C3526     1.0  0.70572  0.57258  0.04385  1.0000
  H   H6218     1.0  0.69741  0.56647  0.05330  1.0000
  H   H6219     1.0  0.70857  0.49780  0.06778  1.0000
  C   C3527     1.0  0.73417  0.69945  0.11631  1.0000
  H   H6220     1.0  0.61569  0.59819  0.06996  1.0000
  H   H6221     1.0  0.56966  0.53951  0.13629  1.0000
  H   H6222     1.0  0.68063  0.60863  0.10502  1.0000
  C   C3528     1.0  0.62876  0.51748  0.14167  1.0000
  Fe  Fe398     1.0  0.59640  0.72410  0.14170  1.0000
  H   H6223     1.0  0.67143  0.62713  0.09446  1.0000
  H   H6224     1.0  0.72719  0.59384  0.11040  1.0000
  H   H6225     1.0  0.53289  0.58947  0.04711  1.0000
  H   H6226     1.0  0.67976  0.52202  0.05245  1.0000
  C   C3529     1.0  0.54015  0.66103  0.01858  1.0000
  H   H6227     1.0  0.67101  0.72565  0.17187  1.0000
  S   S789      1.0  0.71376  0.59621  0.16633  1.0000
  C   C3530     1.0  0.64288  0.52072  0.14542  1.0000
  H   H6228     1.0  0.54271  0.51105  0.07858  1.0000
  H   H6229     1.0  0.66693  0.51698  0.08801  1.0000
  C   C3531     1.0  0.67838  0.49744  0.10364  1.0000
  C   C3532     1.0  0.60898  0.52248  0.01186  1.0000
  H   H6230     1.0  0.71264  0.53693  0.02274  1.0000
  H   H6231     1.0  0.72765  0.71558  0.30633  1.0000
  H   H6232     1.0  0.58934  0.66208  0.03236  1.0000
  H   H6233     1.0  0.60831  0.57375  0.04911  1.0000
  H   H6234     1.0  0.60329  0.50772  0.03464  1.0000
  H   H6235     1.0  0.67488  0.62651  0.16408  1.0000
  H   H6236     1.0  0.56124  0.51038  0.06452  1.0000
  C   C3533     1.0  0.50970  0.58417  0.99433  1.0000
  H   H6237     1.0  0.56849  0.52712  0.15576  1.0000
  H   H6238     1.0  0.67232  0.68319  0.09001  1.0000
  H   H6239     1.0  0.71541  0.68878  0.10310  1.0000
  S   S790      1.0  0.65478  0.54815  0.10066  1.0000
  Fe  Fe399     1.0  0.67795  0.53543  0.10690  1.0000
  C   C3534     1.0  0.63144  0.62146  0.02303  1.0000
  C   C3535     1.0  0.51428  0.59058  0.03614  1.0000
  H   H6240     1.0  0.72742  0.55935  0.05064  1.0000
  H   H6241     1.0  0.70572  0.61583  0.09919  1.0000
  H   H6242     1.0  0.62683  0.56405  0.03859  1.0000
  H   H6243     1.0  0.69643  0.62658  0.14090  1.0000
  C   C3536     1.0  0.67978  0.65086  0.10201  1.0000
  H   H6244     1.0  0.66853  0.64815  0.10212  1.0000
  S   S791      1.0  0.65115  0.52827  0.99977  1.0000
  H   H6245     1.0  0.54436  0.56956  0.01143  1.0000
  H   H6246     1.0  0.53283  0.53833  0.06597  1.0000
  H   H6247     1.0  0.57103  0.55894  0.07959  1.0000
  S   S792      1.0  0.67518  0.54855  0.12567  1.0000
  C   C3537     1.0  0.72210  0.56145  0.04034  1.0000
  H   H6248     1.0  0.68844  0.61428  0.12519  1.0000
  C   C3538     1.0  0.70680  0.58674  0.04920  1.0000
  C   C3539     1.0  0.66539  0.67906  0.10193  1.0000
  H   H6249     1.0  0.56002  0.60882  0.98650  1.0000
  C   C3540     1.0  0.50170  0.50039  0.01355  1.0000
  H   H6250     1.0  0.66740  0.66087  0.12255  1.0000
  C   C3541     1.0  0.57639  0.53313  0.14559  1.0000
  C   C3542     1.0  0.71787  0.70059  0.09716  1.0000
  C   C3543     1.0  0.67575  0.53420  0.04704  1.0000
  C   C3544     1.0  0.66956  0.50435  0.09206  1.0000
  H   H6251     1.0  0.52982  0.56131  0.03614  1.0000
  H   H6252     1.0  0.62442  0.55699  0.07021  1.0000
  H   H6253     1.0  0.56787  0.65076  0.00255  1.0000
  H   H6254     1.0  0.54526  0.68929  0.99167  1.0000
  H   H6255     1.0  0.57598  0.54213  0.06007  1.0000
  S   S793      1.0  0.52790  0.62684  0.99187  1.0000
  C   C3545     1.0  0.66239  0.71821  0.17395  1.0000
  C   C3546     1.0  0.65625  0.49319  0.04173  1.0000
  N   N198      1.0  0.73600  0.70428  0.13030  1.0000
  H   H6256     1.0  0.50912  0.58066  0.98374  1.0000
  C   C3547     1.0  0.66588  0.73281  0.12222  1.0000
  C   C3548     1.0  0.71524  0.73051  0.05826  1.0000
  C   C3549     1.0  0.73665  0.72142  0.12652  1.0000
  H   H6257     1.0  0.69456  0.56972  0.00368  1.0000
  S   S794      1.0  0.67233  0.55405  0.98006  1.0000
  C   C3550     1.0  0.63229  0.49043  0.11659  1.0000
  H   H6258     1.0  0.71909  0.57036  0.00994  1.0000
  H   H6259     1.0  0.63094  0.72247  0.18921  1.0000
  H   H6260     1.0  0.73600  0.65880  0.08717  1.0000
  H   H6261     1.0  0.72958  0.72692  0.28686  1.0000
  H   H6262     1.0  0.50519  0.60523  0.00259  1.0000
  C   C3551     1.0  0.50424  0.49108  0.02984  1.0000
  H   H6263     1.0  0.50766  0.60815  0.98181  1.0000
  H   H6264     1.0  0.69492  0.59452  0.05139  1.0000
  S   S795      1.0  0.73978  0.64554  0.19869  1.0000
  C   C3552     1.0  0.66425  0.49486  0.08559  1.0000
  H   H6265     1.0  0.62326  0.72879  0.17187  1.0000
  H   H6266     1.0  0.70370  0.55136  0.99740  1.0000
  C   C3553     1.0  0.72320  0.70371  0.15992  1.0000
  H   H6267     1.0  0.72867  0.69940  0.08768  1.0000
  H   H6268     1.0  0.72919  0.55293  0.00251  1.0000
  N   N199      1.0  0.55125  0.66534  0.98832  1.0000
  Fe  Fe400     1.0  0.64880  0.55003  0.98087  1.0000
  H   H6269     1.0  0.62462  0.49459  0.05616  1.0000
  H   H6270     1.0  0.72606  0.69209  0.18376  1.0000
  S   S796      1.0  0.62795  0.57015  0.98409  1.0000
  H   H6271     1.0  0.67074  0.72010  0.12253  1.0000
  H   H6272     1.0  0.49332  0.63164  0.99596  1.0000
  H   H6273     1.0  0.63432  0.49209  0.10366  1.0000
  H   H6274     1.0  0.72972  0.56809  0.03039  1.0000
  H   H6275     1.0  0.67895  0.59054  0.98173  1.0000
  H   H6276     1.0  0.66255  0.60721  0.98177  1.0000
  C   C3554     1.0  0.72075  0.73356  0.12888  1.0000
  H   H6277     1.0  0.54777  0.73152  0.18817  1.0000
  H   H6278     1.0  0.71320  0.73354  0.12118  1.0000
  H   H6279     1.0  0.58645  0.62493  0.98133  1.0000
  H   H6280     1.0  0.74002  0.70918  0.32695  1.0000
  H   H6281     1.0  0.63865  0.73373  0.14658  1.0000
  C   C3555     1.0  0.62392  0.48463  0.05164  1.0000
  H   H6282     1.0  0.67536  0.72337  0.91627  1.0000
  H   H6283     1.0  0.66844  0.69025  0.92939  1.0000
  H   H6284     1.0  0.58234  0.69843  0.85712  1.0000
  C   C3556     1.0  0.56372  0.68905  0.97100  1.0000
  H   H6285     1.0  0.49511  0.49667  0.96047  1.0000
  Fe  Fe401     1.0  0.52429  0.61477  0.94327  1.0000
  S   S797      1.0  0.52263  0.63733  0.95012  1.0000
  C   C3557     1.0  0.61497  0.57432  0.97150  1.0000
  Fe  Fe402     1.0  0.55926  0.60468  0.94371  1.0000
  H   H6286     1.0  0.64091  0.57951  0.93053  1.0000
  H   H6287     1.0  0.65193  0.59136  0.91443  1.0000
  C   C3558     1.0  0.71242  0.59392  0.93390  1.0000
  Fe  Fe403     1.0  0.54573  0.63907  0.93326  1.0000
  S   S798      1.0  0.55028  0.66198  0.91668  1.0000
  H   H6288     1.0  0.70421  0.51216  0.94152  1.0000
  S   S799      1.0  0.54621  0.61797  0.92449  1.0000
  H   H6289     1.0  0.53149  0.66841  0.94991  1.0000
  C   C3559     1.0  0.66103  0.61817  0.91204  1.0000
  H   H6290     1.0  0.57806  0.65171  0.96707  1.0000
  C   C3560     1.0  0.50411  0.58201  0.93829  1.0000
  S   S800      1.0  0.65718  0.53682  0.96144  1.0000
  S   S801      1.0  0.69407  0.64983  0.86726  1.0000
  Fe  Fe404     1.0  0.60287  0.71979  0.90908  1.0000
  H   H6291     1.0  0.70494  0.57300  0.91180  1.0000
  S   S802      1.0  0.59238  0.70129  0.92866  1.0000
  H   H6292     1.0  0.55608  0.66739  0.96308  1.0000
  H   H6293     1.0  0.58784  0.67935  0.88872  1.0000
  C   C3561     1.0  0.60133  0.58614  0.97339  1.0000
  C   C3562     1.0  0.63390  0.67076  0.91413  1.0000
  H   H6294     1.0  0.57873  0.69866  0.97932  1.0000
  S   S803      1.0  0.63652  0.70742  0.85869  1.0000
  S   S804      1.0  0.58102  0.58594  0.93882  1.0000
  S   S805      1.0  0.62916  0.71281  0.90188  1.0000
  C   C3563     1.0  0.67848  0.66633  0.86537  1.0000
  C   C3564     1.0  0.67375  0.67691  0.87538  1.0000
  C   C3565     1.0  0.66081  0.68966  0.87355  1.0000
  C   C3566     1.0  0.65275  0.69182  0.86166  1.0000
  C   C3567     1.0  0.65761  0.68124  0.85172  1.0000
  C   C3568     1.0  0.67035  0.66855  0.85361  1.0000
  H   H6295     1.0  0.68004  0.67525  0.88448  1.0000
  H   H6296     1.0  0.65727  0.69793  0.88112  1.0000
  H   H6297     1.0  0.65154  0.68291  0.84245  1.0000
  H   H6298     1.0  0.67409  0.66050  0.84577  1.0000
  H   H6299     1.0  0.61280  0.64201  0.90299  1.0000
  C   C3569     1.0  0.56221  0.67266  0.92004  1.0000
  C   C3570     1.0  0.56271  0.68787  0.91093  1.0000
  C   C3571     1.0  0.57225  0.69663  0.91315  1.0000
  C   C3572     1.0  0.58118  0.69030  0.92467  1.0000
  C   C3573     1.0  0.58077  0.67505  0.93370  1.0000
  C   C3574     1.0  0.57134  0.66625  0.93141  1.0000
  H   H6300     1.0  0.55568  0.69291  0.90212  1.0000
  H   H6301     1.0  0.57241  0.70841  0.90619  1.0000
  H   H6302     1.0  0.58789  0.67002  0.94242  1.0000
  H   H6303     1.0  0.57121  0.65451  0.93834  1.0000
  C   C3575     1.0  0.59393  0.58160  0.95151  1.0000
  C   C3576     1.0  0.59073  0.58966  0.96353  1.0000
  C   C3577     1.0  0.53116  0.67687  0.97036  1.0000
  C   C3578     1.0  0.70265  0.48810  0.94340  1.0000
  C   C3579     1.0  0.61815  0.56625  0.95950  1.0000
  C   C3580     1.0  0.60222  0.69182  0.86854  1.0000
  H   H6304     1.0  0.72623  0.73253  0.90894  1.0000
  H   H6305     1.0  0.64898  0.62154  0.90984  1.0000
  C   C3581     1.0  0.70287  0.56589  0.93691  1.0000
  H   H6306     1.0  0.62485  0.62497  0.95484  1.0000
  C   C3582     1.0  0.70860  0.71183  0.93184  1.0000
  H   H6307     1.0  0.53017  0.68836  0.97304  1.0000
  S   S806      1.0  0.59903  0.72710  0.88446  1.0000
  C   C3583     1.0  0.66838  0.59648  0.96153  1.0000
  H   H6308     1.0  0.67644  0.60442  0.95471  1.0000
  C   C3584     1.0  0.49359  0.59570  0.94192  1.0000
  H   H6309     1.0  0.68434  0.50934  0.94586  1.0000
  H   H6310     1.0  0.73208  0.48611  0.95134  1.0000
  H   H6311     1.0  0.51664  0.58120  0.93609  1.0000
  H   H6312     1.0  0.71465  0.70163  0.92632  1.0000
  H   H6313     1.0  0.71901  0.68280  0.95106  1.0000
  H   H6314     1.0  0.64139  0.63181  0.86006  1.0000
  N   N200      1.0  0.61105  0.66434  0.88604  1.0000
  C   C3585     1.0  0.63793  0.64606  0.87707  1.0000
  H   H6315     1.0  0.60719  0.69759  0.87472  1.0000
  H   H6316     1.0  0.55526  0.69384  0.96313  1.0000
  H   H6317     1.0  0.74065  0.65811  0.92607  1.0000
  H   H6318     1.0  0.62863  0.55719  0.95788  1.0000
  H   H6319     1.0  0.66705  0.70214  0.90994  1.0000
  C   C3586     1.0  0.57999  0.65035  0.97896  1.0000
  C   C3587     1.0  0.70610  0.57599  0.92212  1.0000
  N   N201      1.0  0.69664  0.72276  0.92282  1.0000
  H   H6320     1.0  0.60862  0.68184  0.89932  1.0000
  H   H6321     1.0  0.67179  0.58516  0.93368  1.0000
  H   H6322     1.0  0.59357  0.67122  0.87173  1.0000
  H   H6323     1.0  0.66460  0.55739  0.93044  1.0000
  C   C3588     1.0  0.70503  0.72717  0.90584  1.0000
  C   C3589     1.0  0.54661  0.66516  0.97361  1.0000
  H   H6324     1.0  0.49136  0.54212  0.97096  1.0000
  C   C3590     1.0  0.63438  0.60782  0.93951  1.0000
  Fe  Fe405     1.0  0.71212  0.64812  0.88076  1.0000
  C   C3591     1.0  0.49840  0.56950  0.93707  1.0000
  H   H6325     1.0  0.66772  0.60763  0.90729  1.0000
  C   C3592     1.0  0.68921  0.69974  0.91646  1.0000
  H   H6326     1.0  0.68175  0.62854  0.90416  1.0000
  H   H6327     1.0  0.72581  0.69799  0.95504  1.0000
  H   H6328     1.0  0.53934  0.68586  0.94531  1.0000
  C   C3593     1.0  0.70456  0.56980  0.95015  1.0000
  C   C3594     1.0  0.66083  0.48544  0.95728  1.0000
  H   H6329     1.0  0.70244  0.56197  0.96153  1.0000
  C   C3595     1.0  0.56952  0.70286  0.97226  1.0000
  C   C3596     1.0  0.60810  0.62736  0.94135  1.0000
  H   H6330     1.0  0.58602  0.65950  0.97886  1.0000
  H   H6331     1.0  0.67559  0.56945  0.91416  1.0000
  C   C3597     1.0  0.71073  0.59003  0.92063  1.0000
  C   C3598     1.0  0.62331  0.65841  0.87269  1.0000
  C   C3599     1.0  0.66365  0.56731  0.92012  1.0000
  H   H6332     1.0  0.67382  0.58464  0.95914  1.0000
  C   C3600     1.0  0.65874  0.58686  0.93737  1.0000
  C   C3601     1.0  0.65281  0.58206  0.92519  1.0000
  S   S807      1.0  0.55999  0.62597  0.95133  1.0000
  C   C3602     1.0  0.67506  0.69332  0.91707  1.0000
  H   H6333     1.0  0.66966  0.63340  0.89004  1.0000
  H   H6334     1.0  0.65653  0.57769  0.94836  1.0000
  C   C3603     1.0  0.62508  0.66198  0.90853  1.0000
  H   H6335     1.0  0.50664  0.55910  0.93395  1.0000
  H   H6336     1.0  0.58389  0.65148  0.88811  1.0000
  Fe  Fe406     1.0  0.53696  0.62238  0.96747  1.0000
  H   H6337     1.0  0.62562  0.68095  0.91855  1.0000
  H   H6338     1.0  0.58135  0.63395  0.91482  1.0000
  S   S808      1.0  0.50004  0.61222  0.94274  1.0000
  H   H6339     1.0  0.60198  0.63828  0.88126  1.0000
  H   H6340     1.0  0.64547  0.65182  0.88046  1.0000
  C   C3604     1.0  0.64785  0.63898  0.86305  1.0000
  H   H6341     1.0  0.67347  0.61083  0.93050  1.0000
  C   C3605     1.0  0.70248  0.70553  0.94954  1.0000
  H   H6342     1.0  0.67679  0.71173  0.93514  1.0000
  H   H6343     1.0  0.58179  0.62433  0.89977  1.0000
  H   H6344     1.0  0.71807  0.71771  0.93120  1.0000
  C   C3606     1.0  0.68384  0.71490  0.92309  1.0000
  C   C3607     1.0  0.60769  0.56994  0.94948  1.0000
  H   H6345     1.0  0.64771  0.61456  0.95989  1.0000
  H   H6346     1.0  0.64394  0.59527  0.96572  1.0000
  H   H6347     1.0  0.57474  0.70900  0.96032  1.0000
  H   H6348     1.0  0.62810  0.66830  0.86416  1.0000
  H   H6349     1.0  0.51844  0.68718  0.95153  1.0000
  S   S809      1.0  0.73213  0.66059  0.87149  1.0000
  H   H6350     1.0  0.69640  0.50963  0.92636  1.0000
  S   S810      1.0  0.70743  0.65180  0.90526  1.0000
  H   H6351     1.0  0.57388  0.68117  0.96515  1.0000
  H   H6352     1.0  0.63475  0.63620  0.88676  1.0000
  H   H6353     1.0  0.71063  0.58667  0.95892  1.0000
  H   H6354     1.0  0.50169  0.51507  0.95313  1.0000
  S   S811      1.0  0.53756  0.59972  0.96173  1.0000
  S   S812      1.0  0.72769  0.62403  0.88541  1.0000
  H   H6355     1.0  0.61090  0.68974  0.85759  1.0000
  H   H6356     1.0  0.63067  0.63358  0.93426  1.0000
  C   C3608     1.0  0.70929  0.58376  0.94864  1.0000
  H   H6357     1.0  0.67527  0.72737  0.95183  1.0000
  H   H6358     1.0  0.63301  0.60779  0.92775  1.0000
  S   S813      1.0  0.71831  0.61130  0.93272  1.0000
  H   H6359     1.0  0.60279  0.63454  0.97455  1.0000
  H   H6360     1.0  0.69701  0.69041  0.92339  1.0000
  C   C3609     1.0  0.61788  0.67240  0.89437  1.0000
  C   C3610     1.0  0.66939  0.63151  0.90274  1.0000
  C   C3611     1.0  0.53008  0.67971  0.95323  1.0000
  Fe  Fe407     1.0  0.72424  0.62836  0.90945  1.0000
  H   H6361     1.0  0.71313  0.59777  0.90921  1.0000
  H   H6362     1.0  0.60193  0.63938  0.94304  1.0000
  C   C3612     1.0  0.58764  0.70344  0.86377  1.0000
  H   H6363     1.0  0.62695  0.67851  0.88583  1.0000
  H   H6364     1.0  0.61793  0.65371  0.86582  1.0000
  C   C3613     1.0  0.71536  0.69308  0.95666  1.0000
  H   H6365     1.0  0.61554  0.65853  0.91860  1.0000
  Fe  Fe408     1.0  0.72917  0.66191  0.89657  1.0000
  H   H6366     1.0  0.60185  0.61882  0.95047  1.0000
  S   S814      1.0  0.69676  0.54849  0.93857  1.0000
  H   H6367     1.0  0.71194  0.71647  0.90138  1.0000
  H   H6368     1.0  0.62800  0.59886  0.94785  1.0000
  H   H6369     1.0  0.73162  0.72998  0.88136  1.0000
  H   H6370     1.0  0.64341  0.67491  0.90444  1.0000
  H   H6371     1.0  0.63929  0.66284  0.92390  1.0000
  H   H6372     1.0  0.59103  0.71443  0.85617  1.0000
  N   N202      1.0  0.65149  0.60317  0.94057  1.0000
  H   H6373     1.0  0.65901  0.63131  0.86600  1.0000
  H   H6374     1.0  0.66319  0.64266  0.90660  1.0000
  C   C3614     1.0  0.66087  0.61490  0.92973  1.0000
  C   C3615     1.0  0.59457  0.64316  0.89151  1.0000
  H   H6375     1.0  0.65885  0.56393  0.91181  1.0000
  H   H6376     1.0  0.55963  0.71141  0.97772  1.0000
  H   H6377     1.0  0.65688  0.62629  0.93353  1.0000
  H   H6378     1.0  0.69551  0.70202  0.90397  1.0000
  C   C3616     1.0  0.59801  0.67624  0.87912  1.0000
  H   H6379     1.0  0.65082  0.64836  0.85261  1.0000
  C   C3617     1.0  0.49125  0.50966  0.95733  1.0000
  H   H6380     1.0  0.60749  0.62641  0.92961  1.0000
  H   H6381     1.0  0.52090  0.67196  0.97787  1.0000
  H   H6382     1.0  0.61020  0.56367  0.94019  1.0000
  H   H6383     1.0  0.58011  0.59857  0.96525  1.0000
  C   C3618     1.0  0.60381  0.65138  0.89770  1.0000
  H   H6384     1.0  0.59547  0.65618  0.90769  1.0000
  Fe  Fe409     1.0  0.62541  0.72142  0.87739  1.0000
  H   H6385     1.0  0.66167  0.49758  0.95259  1.0000
  H   H6386     1.0  0.69903  0.71523  0.95588  1.0000
  H   H6387     1.0  0.71089  0.68897  0.96945  1.0000
  C   C3619     1.0  0.65198  0.60266  0.95726  1.0000
  C   C3620     1.0  0.62520  0.62417  0.94278  1.0000
  H   H6388     1.0  0.63336  0.65116  0.90568  1.0000
  H   H6389     1.0  0.57877  0.70643  0.87434  1.0000
  H   H6390     1.0  0.59902  0.62032  0.90767  1.0000
  C   C3621     1.0  0.69651  0.50587  0.93908  1.0000
  S   S815      1.0  0.73237  0.68427  0.90064  1.0000
  H   H6391     1.0  0.73856  0.73227  0.96180  1.0000
  Fe  Fe410     1.0  0.68105  0.53970  0.96166  1.0000
  C   C3622     1.0  0.58890  0.62963  0.90426  1.0000
  H   H6392     1.0  0.67917  0.68257  0.91218  1.0000
  H   H6393     1.0  0.69236  0.70005  0.95164  1.0000
  H   H6394     1.0  0.71476  0.48542  0.93629  1.0000
  H   H6395     1.0  0.70684  0.49037  0.96519  1.0000
  H   H6396     1.0  0.54511  0.65321  0.97411  1.0000
  H   H6397     1.0  0.68932  0.48444  0.96709  1.0000
  H   H6398     1.0  0.73118  0.61399  0.83720  1.0000
  H   H6399     1.0  0.49224  0.62834  0.97091  1.0000
  H   H6400     1.0  0.69627  0.73315  0.89831  1.0000
  H   H6401     1.0  0.57230  0.48512  0.95635  1.0000
  H   H6402     1.0  0.50317  0.55795  0.97981  1.0000
  S   S816      1.0  0.68640  0.51663  0.97877  1.0000
  C   C3623     1.0  0.66711  0.59540  0.97896  1.0000
  Fe  Fe411     1.0  0.56511  0.91429  0.34307  1.0000
  S   S817      1.0  0.59092  0.90783  0.34257  1.0000
  S   S818      1.0  0.55657  0.92224  0.32037  1.0000
  Fe  Fe412     1.0  0.55619  0.91115  0.37860  1.0000
  S   S819      1.0  0.58129  0.90372  0.38131  1.0000
  Fe  Fe413     1.0  0.58545  0.92303  0.35999  1.0000
  S   S820      1.0  0.59980  0.94049  0.35802  1.0000
  Fe  Fe414     1.0  0.58487  0.88897  0.36366  1.0000
  S   S821      1.0  0.59920  0.86405  0.36439  1.0000
  S   S822      1.0  0.56026  0.93142  0.35830  1.0000
  S   S823      1.0  0.55914  0.89451  0.36313  1.0000
  H   H6403     1.0  0.50691  0.89180  0.44107  1.0000
  C   C3624     1.0  0.72504  0.98218  0.23620  1.0000
  H   H6404     1.0  0.50321  0.87905  0.42162  1.0000
  S   S824      1.0  0.50814  0.91397  0.26889  1.0000
  S   S825      1.0  0.51648  0.88214  0.30664  1.0000
  C   C3625     1.0  0.54707  0.83893  0.29996  1.0000
  H   H6405     1.0  0.49941  0.88897  0.46715  1.0000
  C   C3626     1.0  0.56375  0.76705  0.24160  1.0000
  S   S826      1.0  0.51512  0.89819  0.23129  1.0000
  C   C3627     1.0  0.69724  0.82299  0.35432  1.0000
  C   C3628     1.0  0.74020  0.76560  0.29313  1.0000
  C   C3629     1.0  0.59620  0.74766  0.18992  1.0000
  H   H6406     1.0  0.67111  0.79603  0.19868  1.0000
  C   C3630     1.0  0.59704  0.76329  0.18825  1.0000
  H   H6407     1.0  0.58867  0.82229  0.28487  1.0000
  C   C3631     1.0  0.49720  0.89751  0.43477  1.0000
  Fe  Fe415     1.0  0.71589  0.88218  0.15834  1.0000
  S   S827      1.0  0.69357  0.89029  0.17488  1.0000
  C   C3632     1.0  0.68886  0.94466  0.10752  1.0000
  Fe  Fe416     1.0  0.69877  0.88389  0.13336  1.0000
  S   S828      1.0  0.67496  0.89244  0.14769  1.0000
  S   S829      1.0  0.70159  0.87991  0.10918  1.0000
  Fe  Fe417     1.0  0.68681  0.90792  0.15382  1.0000
  S   S830      1.0  0.67296  0.93238  0.15575  1.0000
  Fe  Fe418     1.0  0.68348  0.87424  0.16758  1.0000
  S   S831      1.0  0.66825  0.86008  0.18694  1.0000
  S   S832      1.0  0.71008  0.90116  0.13754  1.0000
  S   S833      1.0  0.70647  0.86428  0.15291  1.0000
  H   H6408     1.0  0.63916  0.76590  0.19767  1.0000
  H   H6409     1.0  0.72581  0.78685  0.11767  1.0000
  S   S834      1.0  0.72020  0.89785  0.25674  1.0000
  H   H6410     1.0  0.56297  0.76774  0.18552  1.0000
  H   H6411     1.0  0.62180  0.80361  0.11700  1.0000
  Fe  Fe419     1.0  0.56902  0.82261  0.21160  1.0000
  S   S835      1.0  0.58512  0.83742  0.21146  1.0000
  S   S836      1.0  0.54248  0.82971  0.21789  1.0000
  Fe  Fe420     1.0  0.60083  0.82729  0.19118  1.0000
  S   S837      1.0  0.61347  0.84188  0.16963  1.0000
  C   C3633     1.0  0.62975  0.77348  0.12767  1.0000
  H   H6412     1.0  0.71536  0.95876  0.13279  1.0000
  S   S838      1.0  0.58353  0.81441  0.18969  1.0000
  H   H6413     1.0  0.50806  0.92954  0.34651  1.0000
  Fe  Fe421     1.0  0.66604  0.83148  0.29785  1.0000
  S   S839      1.0  0.65019  0.85478  0.30190  1.0000
  Fe  Fe422     1.0  0.69774  0.82145  0.27675  1.0000
  S   S840      1.0  0.69742  0.79603  0.28506  1.0000
  S   S841      1.0  0.71803  0.82860  0.25811  1.0000
  Fe  Fe423     1.0  0.67225  0.80354  0.28298  1.0000
  H   H6414     1.0  0.57147  0.97018  0.44543  1.0000
  H   H6415     1.0  0.53895  0.75051  0.17779  1.0000
  S   S842      1.0  0.67331  0.82879  0.27280  1.0000
  S   S843      1.0  0.69092  0.82620  0.30091  1.0000
  Fe  Fe424     1.0  0.68698  0.81007  0.05703  1.0000
  S   S844      1.0  0.70221  0.80352  0.07464  1.0000
  S   S845      1.0  0.69588  0.82146  0.03192  1.0000
  Fe  Fe425     1.0  0.66151  0.79464  0.07964  1.0000
  S   S846      1.0  0.67451  0.78643  0.09905  1.0000
  H   H6416     1.0  0.70655  0.74285  0.29089  1.0000
  Fe  Fe426     1.0  0.67973  0.81050  0.09170  1.0000
  S   S847      1.0  0.67710  0.81997  0.11298  1.0000
  Fe  Fe427     1.0  0.69576  0.78012  0.08060  1.0000
  C   C3634     1.0  0.54670  0.84515  0.31443  1.0000
  S   S848      1.0  0.66491  0.81936  0.07355  1.0000
  S   S849      1.0  0.68229  0.78604  0.06164  1.0000
  H   H6417     1.0  0.65723  0.81356  0.19190  1.0000
  H   H6418     1.0  0.58861  0.86053  0.33477  1.0000
  H   H6419     1.0  0.62960  0.76193  0.13594  1.0000
  C   C3635     1.0  0.63018  0.78562  0.13622  1.0000
  S   S850      1.0  0.49858  0.93876  0.47469  1.0000
  C   C3636     1.0  0.72524  0.83352  0.06255  1.0000
  Fe  Fe428     1.0  0.68848  0.80117  0.30905  1.0000
  H   H6420     1.0  0.62712  0.79556  0.23838  1.0000
  H   H6421     1.0  0.65214  0.78324  0.24750  1.0000
  C   C3637     1.0  0.55125  0.95051  0.45730  1.0000
  C   C3638     1.0  0.71997  0.87833  0.25770  1.0000
  H   H6422     1.0  0.68870  0.76698  0.31127  1.0000
  H   H6423     1.0  0.71001  0.81644  0.20292  1.0000
  C   C3639     1.0  0.71848  0.84782  0.25783  1.0000
  C   C3640     1.0  0.70630  0.85683  0.26708  1.0000
  C   C3641     1.0  0.70711  0.87205  0.26709  1.0000
  S   S851      1.0  0.71228  0.75660  0.08502  1.0000
  C   C3642     1.0  0.68069  0.83118  0.36252  1.0000
  H   H6424     1.0  0.69621  0.85216  0.27416  1.0000
  H   H6425     1.0  0.69773  0.87898  0.27429  1.0000
  C   C3643     1.0  0.68259  0.94462  0.15981  1.0000
  C   C3644     1.0  0.67510  0.96037  0.15975  1.0000
  C   C3645     1.0  0.68320  0.97078  0.16137  1.0000
  C   C3646     1.0  0.69871  0.96535  0.16328  1.0000
  C   C3647     1.0  0.70585  0.94941  0.16421  1.0000
  C   C3648     1.0  0.69788  0.93906  0.16231  1.0000
  H   H6426     1.0  0.66321  0.96465  0.15791  1.0000
  H   H6427     1.0  0.53466  0.82778  0.33169  1.0000
  H   H6428     1.0  0.71775  0.94521  0.16592  1.0000
  H   H6429     1.0  0.70364  0.92688  0.16250  1.0000
  C   C3649     1.0  0.69312  0.86436  0.10996  1.0000
  C   C3650     1.0  0.68672  0.85561  0.12448  1.0000
  C   C3651     1.0  0.68119  0.84240  0.12516  1.0000
  C   C3652     1.0  0.68210  0.83782  0.11134  1.0000
  C   C3653     1.0  0.68788  0.84691  0.09675  1.0000
  C   C3654     1.0  0.69347  0.86015  0.09607  1.0000
  H   H6430     1.0  0.68618  0.85890  0.13522  1.0000
  H   H6431     1.0  0.67651  0.83554  0.13647  1.0000
  H   H6432     1.0  0.68838  0.84355  0.08604  1.0000
  H   H6433     1.0  0.69826  0.86700  0.08481  1.0000
  C   C3655     1.0  0.65278  0.85581  0.18176  1.0000
  C   C3656     1.0  0.64107  0.84968  0.19370  1.0000
  C   C3657     1.0  0.62905  0.84540  0.18996  1.0000
  C   C3658     1.0  0.62846  0.84749  0.17425  1.0000
  C   C3659     1.0  0.64002  0.85383  0.16226  1.0000
  C   C3660     1.0  0.65222  0.85793  0.16601  1.0000
  H   H6434     1.0  0.64129  0.84819  0.20590  1.0000
  H   H6435     1.0  0.62013  0.84062  0.19929  1.0000
  H   H6436     1.0  0.63965  0.85544  0.15008  1.0000
  H   H6437     1.0  0.66121  0.86262  0.15673  1.0000
  H   H6438     1.0  0.74047  0.77895  0.26905  1.0000
  H   H6439     1.0  0.53211  0.97166  0.43859  1.0000
  H   H6440     1.0  0.69254  0.94827  0.09457  1.0000
  H   H6441     1.0  0.54774  0.80098  0.20492  1.0000
  H   H6442     1.0  0.73324  0.97942  0.25749  1.0000
  C   C3661     1.0  0.52169  0.91885  0.44231  1.0000
  H   H6443     1.0  0.64146  0.78167  0.14021  1.0000
  H   H6444     1.0  0.50939  0.92711  0.32309  1.0000
  H   H6445     1.0  0.51894  0.80534  0.20750  1.0000
  C   C3662     1.0  0.71362  0.78368  0.00224  1.0000
  C   C3663     1.0  0.66572  0.81772  0.00072  1.0000
  C   C3664     1.0  0.68004  0.82236  0.99385  1.0000
  C   C3665     1.0  0.68918  0.82386  0.00343  1.0000
  C   C3666     1.0  0.68411  0.82048  0.01986  1.0000
  C   C3667     1.0  0.66971  0.81604  0.02665  1.0000
  C   C3668     1.0  0.66048  0.81489  0.01708  1.0000
  C   C3669     1.0  0.71703  0.74466  0.30948  1.0000
  H   H6446     1.0  0.70027  0.82741  0.99813  1.0000
  H   H6447     1.0  0.66555  0.81374  0.03927  1.0000
  H   H6448     1.0  0.64921  0.81185  0.02233  1.0000
  C   C3670     1.0  0.52357  0.87873  0.22892  1.0000
  C   C3671     1.0  0.53672  0.87598  0.21672  1.0000
  C   C3672     1.0  0.54294  0.86083  0.21370  1.0000
  C   C3673     1.0  0.53570  0.84843  0.22250  1.0000
  C   C3674     1.0  0.52255  0.85115  0.23473  1.0000
  C   C3675     1.0  0.51677  0.86615  0.23821  1.0000
  H   H6449     1.0  0.54205  0.88563  0.20946  1.0000
  H   H6450     1.0  0.55302  0.85889  0.20417  1.0000
  H   H6451     1.0  0.51687  0.84162  0.24157  1.0000
  H   H6452     1.0  0.50656  0.86813  0.24754  1.0000
  H   H6453     1.0  0.71961  0.80944  0.35976  1.0000
  C   C3676     1.0  0.50272  0.95909  0.26925  1.0000
  C   C3677     1.0  0.51275  0.96944  0.26642  1.0000
  C   C3678     1.0  0.64138  0.76430  0.18546  1.0000
  H   H6454     1.0  0.71222  0.79536  0.00470  1.0000
  C   C3679     1.0  0.56430  0.92780  0.44555  1.0000
  H   H6455     1.0  0.50734  0.94785  0.26597  1.0000
  H   H6456     1.0  0.52508  0.96604  0.26109  1.0000
  H   H6457     1.0  0.53921  0.82262  0.25385  1.0000
  S   S852      1.0  0.65407  0.81492  0.98953  1.0000
  C   C3680     1.0  0.61395  0.86109  0.34745  1.0000
  C   C3681     1.0  0.61827  0.84651  0.34310  1.0000
  C   C3682     1.0  0.62954  0.84426  0.32922  1.0000
  C   C3683     1.0  0.63672  0.85653  0.31982  1.0000
  C   C3684     1.0  0.63286  0.87083  0.32452  1.0000
  C   C3685     1.0  0.62149  0.87314  0.33823  1.0000
  H   H6458     1.0  0.61258  0.83708  0.35028  1.0000
  H   H6459     1.0  0.63251  0.83315  0.32570  1.0000
  H   H6460     1.0  0.63882  0.88013  0.31760  1.0000
  H   H6461     1.0  0.61884  0.88413  0.34186  1.0000
  C   C3686     1.0  0.58924  0.95512  0.36861  1.0000
  C   C3687     1.0  0.59532  0.96831  0.36683  1.0000
  C   C3688     1.0  0.51857  0.93663  0.36095  1.0000
  H   H6462     1.0  0.72599  0.80827  0.13058  1.0000
  H   H6463     1.0  0.56010  0.74434  0.17506  1.0000
  C   C3689     1.0  0.57445  0.95404  0.37832  1.0000
  H   H6464     1.0  0.71222  0.75883  0.12445  1.0000
  H   H6465     1.0  0.55893  0.86311  0.25293  1.0000
  C   C3690     1.0  0.73317  0.95572  0.06902  1.0000
  H   H6466     1.0  0.56978  0.94380  0.38001  1.0000
  C   C3691     1.0  0.54504  0.91118  0.31707  1.0000
  C   C3692     1.0  0.54167  0.89750  0.32777  1.0000
  C   C3693     1.0  0.53301  0.88858  0.32443  1.0000
  C   C3694     1.0  0.52744  0.89345  0.31050  1.0000
  C   C3695     1.0  0.53080  0.90717  0.29984  1.0000
  C   C3696     1.0  0.53955  0.91599  0.30312  1.0000
  H   H6467     1.0  0.54567  0.89376  0.33863  1.0000
  H   H6468     1.0  0.53044  0.87801  0.33277  1.0000
  H   H6469     1.0  0.52679  0.91099  0.28902  1.0000
  H   H6470     1.0  0.54208  0.92658  0.29477  1.0000
  H   H6471     1.0  0.73784  0.87525  0.21468  1.0000
  N   N203      1.0  0.62434  0.81601  0.13313  1.0000
  C   C3697     1.0  0.60839  0.81640  0.14416  1.0000
  C   C3698     1.0  0.63642  0.81619  0.14171  1.0000
  C   C3699     1.0  0.62288  0.83091  0.12042  1.0000
  C   C3700     1.0  0.62945  0.80219  0.12526  1.0000
  C   C3701     1.0  0.63853  0.83501  0.10989  1.0000
  H   H6472     1.0  0.72233  0.84208  0.10749  1.0000
  H   H6473     1.0  0.56083  0.91963  0.42629  1.0000
  C   C3702     1.0  0.63562  0.84883  0.09611  1.0000
  H   H6474     1.0  0.60479  0.82716  0.14910  1.0000
  H   H6475     1.0  0.60868  0.80658  0.15459  1.0000
  H   H6476     1.0  0.64849  0.81280  0.13461  1.0000
  H   H6477     1.0  0.63526  0.82838  0.14299  1.0000
  H   H6478     1.0  0.61643  0.84127  0.12571  1.0000
  H   H6479     1.0  0.64139  0.80195  0.11756  1.0000
  C   C3703     1.0  0.55085  0.79322  0.19648  1.0000
  H   H6480     1.0  0.64623  0.82492  0.10499  1.0000
  H   H6481     1.0  0.64494  0.83849  0.11675  1.0000
  C   C3704     1.0  0.52844  0.77978  0.21106  1.0000
  H   H6482     1.0  0.70114  0.85019  0.31273  1.0000
  H   H6483     1.0  0.52263  0.94667  0.31242  1.0000
  H   H6484     1.0  0.66266  0.76343  0.07683  1.0000
  H   H6485     1.0  0.64853  0.82965  0.35012  1.0000
  H   H6486     1.0  0.62993  0.84578  0.08828  1.0000
  H   H6487     1.0  0.62807  0.85937  0.10044  1.0000
  H   H6488     1.0  0.64705  0.85170  0.08914  1.0000
  H   H6489     1.0  0.65269  0.76763  0.17878  1.0000
  H   H6490     1.0  0.63492  0.75179  0.16365  1.0000
  H   H6491     1.0  0.62992  0.79800  0.98943  1.0000
  H   H6492     1.0  0.60332  0.83825  0.29273  1.0000
  H   H6493     1.0  0.65112  0.73962  0.19212  1.0000
  H   H6494     1.0  0.61069  0.79800  0.00201  1.0000
  C   C3705     1.0  0.59580  0.83056  0.30135  1.0000
  H   H6495     1.0  0.55487  0.92190  0.45373  1.0000
  C   C3706     1.0  0.55524  0.76892  0.21662  1.0000
  H   H6496     1.0  0.73196  0.75264  0.11394  1.0000
  H   H6497     1.0  0.68389  0.83307  0.33100  1.0000
  H   H6498     1.0  0.52529  0.94538  0.36041  1.0000
  C   C3707     1.0  0.54317  0.89951  0.42309  1.0000
  C   C3708     1.0  0.63821  0.73781  0.09156  1.0000
  H   H6499     1.0  0.70185  0.77352  0.99068  1.0000
  H   H6500     1.0  0.51398  0.96138  0.43004  1.0000
  H   H6501     1.0  0.67452  0.73949  0.11385  1.0000
  N   N204      1.0  0.68940  0.82022  0.22164  1.0000
  C   C3709     1.0  0.69640  0.81088  0.23561  1.0000
  C   C3710     1.0  0.67713  0.83414  0.22644  1.0000
  C   C3711     1.0  0.68235  0.80963  0.21662  1.0000
  C   C3712     1.0  0.70169  0.82627  0.20799  1.0000
  C   C3713     1.0  0.71136  0.83607  0.21158  1.0000
  H   H6502     1.0  0.72466  0.84543  0.08006  1.0000
  C   C3714     1.0  0.67348  0.81764  0.20310  1.0000
  C   C3715     1.0  0.66144  0.83055  0.23725  1.0000
  C   C3716     1.0  0.65013  0.84555  0.24124  1.0000
  H   H6503     1.0  0.65456  0.75083  0.04704  1.0000
  C   C3717     1.0  0.66804  0.80963  0.34899  1.0000
  C   C3718     1.0  0.54964  0.86191  0.27848  1.0000
  H   H6504     1.0  0.56924  0.87157  0.26175  1.0000
  H   H6505     1.0  0.69994  0.81868  0.24097  1.0000
  H   H6506     1.0  0.68185  0.84019  0.23271  1.0000
  H   H6507     1.0  0.67426  0.84322  0.21598  1.0000
  H   H6508     1.0  0.68734  0.80567  0.24511  1.0000
  H   H6509     1.0  0.57550  0.82176  0.30367  1.0000
  H   H6510     1.0  0.70124  0.77480  0.02565  1.0000
  H   H6511     1.0  0.69606  0.83397  0.19822  1.0000
  H   H6512     1.0  0.71807  0.82905  0.22070  1.0000
  H   H6513     1.0  0.70357  0.84659  0.21576  1.0000
  C   C3719     1.0  0.50327  0.79397  0.22678  1.0000
  H   H6514     1.0  0.72715  0.87553  0.20052  1.0000
  H   H6515     1.0  0.68194  0.82022  0.19173  1.0000
  H   H6516     1.0  0.66546  0.82879  0.20515  1.0000
  H   H6517     1.0  0.65532  0.82530  0.23164  1.0000
  H   H6518     1.0  0.66360  0.82226  0.24830  1.0000
  H   H6519     1.0  0.63896  0.84259  0.24872  1.0000
  H   H6520     1.0  0.65516  0.85101  0.24773  1.0000
  H   H6521     1.0  0.64752  0.85409  0.23035  1.0000
  H   H6522     1.0  0.72369  0.93121  0.13454  1.0000
  H   H6523     1.0  0.52205  0.77972  0.20219  1.0000
  C   C3720     1.0  0.70220  0.94358  0.11571  1.0000
  H   H6524     1.0  0.52594  0.92469  0.36406  1.0000
  H   H6525     1.0  0.55789  0.84007  0.31851  1.0000
  C   C3721     1.0  0.70432  0.79161  0.13461  1.0000
  H   H6526     1.0  0.65462  0.80476  0.21254  1.0000
  H   H6527     1.0  0.71538  0.97289  0.26071  1.0000
  H   H6528     1.0  0.72110  0.97301  0.09186  1.0000
  H   H6529     1.0  0.68270  0.84104  0.36628  1.0000
  C   C3722     1.0  0.70072  0.78483  0.99384  1.0000
  C   C3723     1.0  0.73391  0.83364  0.10754  1.0000
  C   C3724     1.0  0.67448  0.84239  0.33568  1.0000
  C   C3725     1.0  0.62457  0.74803  0.09756  1.0000
  C   C3726     1.0  0.65201  0.75921  0.08254  1.0000
  H   H6530     1.0  0.52624  0.79731  0.22505  1.0000
  H   H6531     1.0  0.61891  0.77701  0.12293  1.0000
  H   H6532     1.0  0.58315  0.94586  0.43485  1.0000
  Fe  Fe429     1.0  0.59582  0.79436  0.20590  1.0000
  C   C3727     1.0  0.73063  0.83388  0.07697  1.0000
  H   H6533     1.0  0.67201  0.77453  0.02210  1.0000
  H   H6534     1.0  0.62512  0.81057  0.16685  1.0000
  H   H6535     1.0  0.65868  0.74912  0.13719  1.0000
  C   C3728     1.0  0.73217  0.86920  0.24866  1.0000
  C   C3729     1.0  0.64511  0.74450  0.16890  1.0000
  H   H6536     1.0  0.62330  0.77985  0.99717  1.0000
  C   C3730     1.0  0.55042  0.76824  0.19168  1.0000
  H   H6537     1.0  0.67671  0.82297  0.37370  1.0000
  C   C3731     1.0  0.59330  0.74285  0.17767  1.0000
  C   C3732     1.0  0.71657  0.78839  0.24740  1.0000
  H   H6538     1.0  0.51393  0.87686  0.19618  1.0000
  H   H6539     1.0  0.71079  0.76173  0.28826  1.0000
  H   H6540     1.0  0.53635  0.94190  0.44009  1.0000
  C   C3733     1.0  0.73137  0.85404  0.24858  1.0000
  C   C3734     1.0  0.71573  0.79691  0.11927  1.0000
  N   N205      1.0  0.54593  0.77778  0.20418  1.0000
  H   H6541     1.0  0.57446  0.94639  0.46312  1.0000
  H   H6542     1.0  0.51127  0.85747  0.19750  1.0000
  C   C3735     1.0  0.50168  0.89200  0.41933  1.0000
  H   H6543     1.0  0.73133  0.96689  0.18618  1.0000
  C   C3736     1.0  0.74104  0.84972  0.12240  1.0000
  H   H6544     1.0  0.57888  0.92623  0.42173  1.0000
  C   C3737     1.0  0.57340  0.84530  0.28732  1.0000
  H   H6545     1.0  0.71169  0.76010  0.01461  1.0000
  H   H6546     1.0  0.70172  0.79406  0.98284  1.0000
  C   C3738     1.0  0.72862  0.95010  0.08687  1.0000
  H   H6547     1.0  0.49479  0.87601  0.22165  1.0000
  H   H6548     1.0  0.56152  0.77266  0.25168  1.0000
  C   C3739     1.0  0.50418  0.95523  0.34034  1.0000
  H   H6549     1.0  0.57186  0.87725  0.30759  1.0000
  H   H6550     1.0  0.54030  0.77617  0.23805  1.0000
  H   H6551     1.0  0.66520  0.84453  0.32899  1.0000
  C   C3740     1.0  0.69551  0.97141  0.11623  1.0000
  H   H6552     1.0  0.50775  0.93784  0.37039  1.0000
  H   H6553     1.0  0.72798  0.95794  0.20703  1.0000
  H   H6554     1.0  0.63029  0.74490  0.19276  1.0000
  C   C3741     1.0  0.72350  0.75019  0.12529  1.0000
  C   C3742     1.0  0.51452  0.93876  0.34511  1.0000
  H   H6555     1.0  0.50911  0.87261  0.18001  1.0000
  H   H6556     1.0  0.50360  0.78417  0.23731  1.0000
  C   C3743     1.0  0.71905  0.78313  0.32699  1.0000
  H   H6557     1.0  0.70632  0.95531  0.19590  1.0000
  H   H6558     1.0  0.53577  0.88510  0.25577  1.0000
  C   C3744     1.0  0.58296  0.82897  0.29431  1.0000
  C   C3745     1.0  0.57803  0.86630  0.32977  1.0000
  C   C3746     1.0  0.56557  0.96629  0.38580  1.0000
  H   H6559     1.0  0.71144  0.93317  0.11307  1.0000
  H   H6560     1.0  0.65016  0.81812  0.16482  1.0000
  H   H6561     1.0  0.71053  0.78684  0.14447  1.0000
  H   H6562     1.0  0.54496  0.97269  0.41928  1.0000
  H   H6563     1.0  0.68877  0.96758  0.12837  1.0000
  C   C3747     1.0  0.63587  0.80595  0.15861  1.0000
  H   H6564     1.0  0.52575  0.93685  0.33641  1.0000
  H   H6565     1.0  0.55403  0.96546  0.39306  1.0000
  H   H6566     1.0  0.70279  0.80532  0.37502  1.0000
  S   S853      1.0  0.51447  0.97358  0.47640  1.0000
  C   C3748     1.0  0.57524  0.97735  0.31735  1.0000
  H   H6567     1.0  0.52003  0.98230  0.30632  1.0000
  H   H6568     1.0  0.69916  0.78236  0.13338  1.0000
  H   H6569     1.0  0.52714  0.96142  0.41093  1.0000
  H   H6570     1.0  0.73601  0.93314  0.11521  1.0000
  H   H6571     1.0  0.52609  0.76948  0.22075  1.0000
  H   H6572     1.0  0.70622  0.96686  0.08759  1.0000
  H   H6573     1.0  0.56392  0.79121  0.19280  1.0000
  C   C3749     1.0  0.64626  0.84745  0.37560  1.0000
  H   H6574     1.0  0.68894  0.78807  0.00138  1.0000
  H   H6575     1.0  0.68334  0.86056  0.30568  1.0000
  H   H6576     1.0  0.71099  0.76313  0.04912  1.0000
  S   S854      1.0  0.49475  0.88187  0.27457  1.0000
  C   C3750     1.0  0.66356  0.80725  0.20150  1.0000
  H   H6577     1.0  0.68407  0.82475  0.98120  1.0000
  H   H6578     1.0  0.72702  0.77892  0.24473  1.0000
  H   H6579     1.0  0.55199  0.79831  0.17117  1.0000
  N   N206      1.0  0.59600  0.89509  0.29222  1.0000
  C   C3751     1.0  0.58149  0.90189  0.28543  1.0000
  C   C3752     1.0  0.59131  0.88669  0.30915  1.0000
  C   C3753     1.0  0.60256  0.90868  0.29233  1.0000
  C   C3754     1.0  0.60859  0.88426  0.28285  1.0000
  C   C3755     1.0  0.60300  0.87511  0.27399  1.0000
  C   C3756     1.0  0.58366  0.91352  0.26922  1.0000
  C   C3757     1.0  0.61689  0.90426  0.30010  1.0000
  C   C3758     1.0  0.61673  0.86319  0.26689  1.0000
  C   C3759     1.0  0.57046  0.91544  0.26090  1.0000
  C   C3760     1.0  0.62474  0.91811  0.29664  1.0000
  H   H6580     1.0  0.57215  0.90841  0.29358  1.0000
  H   H6581     1.0  0.57631  0.89253  0.28450  1.0000
  H   H6582     1.0  0.60182  0.88136  0.31442  1.0000
  H   H6583     1.0  0.58359  0.89528  0.31629  1.0000
  H   H6584     1.0  0.59323  0.91731  0.29843  1.0000
  H   H6585     1.0  0.60644  0.91520  0.28011  1.0000
  H   H6586     1.0  0.61683  0.89093  0.27367  1.0000
  H   H6587     1.0  0.61614  0.87551  0.29058  1.0000
  H   H6588     1.0  0.59788  0.88322  0.26415  1.0000
  H   H6589     1.0  0.59394  0.86876  0.28172  1.0000
  H   H6590     1.0  0.58339  0.92529  0.27091  1.0000
  H   H6591     1.0  0.59508  0.90964  0.26137  1.0000
  H   H6592     1.0  0.62592  0.89442  0.29582  1.0000
  H   H6593     1.0  0.61305  0.90079  0.31305  1.0000
  H   H6594     1.0  0.62231  0.85449  0.27618  1.0000
  H   H6595     1.0  0.61240  0.85681  0.26066  1.0000
  H   H6596     1.0  0.62572  0.86926  0.25829  1.0000
  H   H6597     1.0  0.55879  0.91923  0.26846  1.0000
  H   H6598     1.0  0.57185  0.92450  0.24980  1.0000
  H   H6599     1.0  0.57093  0.90420  0.25796  1.0000
  H   H6600     1.0  0.63456  0.91465  0.30287  1.0000
  H   H6601     1.0  0.62960  0.92163  0.28384  1.0000
  H   H6602     1.0  0.61619  0.92829  0.30082  1.0000
  H   H6603     1.0  0.69451  0.91975  0.10684  1.0000
  H   H6604     1.0  0.71652  0.79088  0.02953  1.0000
  H   H6605     1.0  0.67437  0.80371  0.22690  1.0000
  H   H6606     1.0  0.61393  0.74381  0.10339  1.0000
  H   H6607     1.0  0.62909  0.86970  0.37260  1.0000
  C   C3761     1.0  0.57067  0.91989  0.43119  1.0000
  C   C3762     1.0  0.58360  0.96104  0.32549  1.0000
  H   H6608     1.0  0.72073  0.80168  0.22373  1.0000
  H   H6609     1.0  0.58324  0.98073  0.30582  1.0000
  C   C3763     1.0  0.50701  0.87025  0.19303  1.0000
  H   H6610     1.0  0.69467  0.87113  0.31081  1.0000
  C   C3764     1.0  0.58608  0.94884  0.31581  1.0000
  C   C3765     1.0  0.57107  0.96996  0.43338  1.0000
  C   C3766     1.0  0.59155  0.75354  0.16350  1.0000
  C   C3767     1.0  0.53702  0.97597  0.36019  1.0000
  H   H6611     1.0  0.69749  0.94046  0.12861  1.0000
  H   H6612     1.0  0.59067  0.77763  0.15105  1.0000
  C   C3768     1.0  0.54165  0.89524  0.43952  1.0000
  H   H6613     1.0  0.66362  0.78842  0.34598  1.0000
  H   H6614     1.0  0.57408  0.92463  0.45183  1.0000
  H   H6615     1.0  0.56258  0.93271  0.47507  1.0000
  H   H6616     1.0  0.52943  0.96812  0.32120  1.0000
  H   H6617     1.0  0.67367  0.81257  0.33636  1.0000
  H   H6618     1.0  0.59539  0.96135  0.32663  1.0000
  H   H6619     1.0  0.57655  0.95693  0.33730  1.0000
  C   C3769     1.0  0.61923  0.81205  0.25353  1.0000
  H   H6620     1.0  0.69672  0.81409  0.34836  1.0000
  H   H6621     1.0  0.71999  0.79649  0.25245  1.0000
  H   H6622     1.0  0.55021  0.82587  0.30318  1.0000
  C   C3770     1.0  0.63702  0.81062  0.26995  1.0000
  H   H6623     1.0  0.56749  0.97649  0.35007  1.0000
  S   S855      1.0  0.52924  0.89945  0.46975  1.0000
  H   H6624     1.0  0.70924  0.82338  0.37200  1.0000
  C   C3771     1.0  0.53685  0.96601  0.42837  1.0000
  S   S856      1.0  0.58703  0.74815  0.14818  1.0000
  H   H6625     1.0  0.59293  0.93753  0.32136  1.0000
  H   H6626     1.0  0.57459  0.94702  0.31539  1.0000
  H   H6627     1.0  0.59274  0.95259  0.30365  1.0000
  H   H6628     1.0  0.52179  0.84627  0.32498  1.0000
  H   H6629     1.0  0.68923  0.96672  0.20654  1.0000
  H   H6630     1.0  0.54878  0.88438  0.44475  1.0000
  H   H6631     1.0  0.64264  0.78219  0.01099  1.0000
  H   H6632     1.0  0.72966  0.83049  0.13326  1.0000
  C   C3772     1.0  0.68950  0.75784  0.30492  1.0000
  H   H6633     1.0  0.73061  0.90828  0.16089  1.0000
  H   H6634     1.0  0.71597  0.75382  0.31598  1.0000
  H   H6635     1.0  0.68442  0.74810  0.31334  1.0000
  C   C3773     1.0  0.54878  0.74398  0.18375  1.0000
  C   C3774     1.0  0.54999  0.82344  0.25686  1.0000
  C   C3775     1.0  0.62444  0.76396  0.09537  1.0000
  H   H6636     1.0  0.72623  0.83392  0.28918  1.0000
  H   H6637     1.0  0.73113  0.83180  0.19189  1.0000
  C   C3776     1.0  0.52305  0.96714  0.42116  1.0000
  C   C3777     1.0  0.63814  0.76958  0.08788  1.0000
  H   H6638     1.0  0.64806  0.85653  0.35069  1.0000
  C   C3778     1.0  0.73676  0.96217  0.19660  1.0000
  H   H6639     1.0  0.55011  0.94469  0.42175  1.0000
  C   C3779     1.0  0.68097  0.85759  0.33090  1.0000
  H   H6640     1.0  0.63976  0.81490  0.27868  1.0000
  H   H6641     1.0  0.68696  0.97465  0.10849  1.0000
  H   H6642     1.0  0.72537  0.78013  0.05315  1.0000
  C   C3780     1.0  0.62989  0.79981  0.24711  1.0000
  C   C3781     1.0  0.65195  0.74340  0.08406  1.0000
  C   C3782     1.0  0.69062  0.85994  0.31400  1.0000
  C   C3783     1.0  0.56041  0.83493  0.27334  1.0000
  H   H6643     1.0  0.73088  0.97007  0.23454  1.0000
  C   C3784     1.0  0.65689  0.79901  0.35067  1.0000
  H   H6644     1.0  0.51559  0.93367  0.42084  1.0000
  H   H6645     1.0  0.53472  0.84171  0.29847  1.0000
  C   C3785     1.0  0.59506  0.77405  0.17419  1.0000
  H   H6646     1.0  0.49254  0.89781  0.41230  1.0000
  H   H6647     1.0  0.57958  0.80745  0.15910  1.0000
  C   C3786     1.0  0.52597  0.96983  0.30993  1.0000
  C   C3787     1.0  0.70659  0.75177  0.29713  1.0000
  H   H6648     1.0  0.72291  0.95784  0.06367  1.0000
  H   H6649     1.0  0.70770  0.78854  0.22789  1.0000
  C   C3788     1.0  0.72146  0.75660  0.04188  1.0000
  H   H6650     1.0  0.73076  0.75340  0.04870  1.0000
  C   C3789     1.0  0.51994  0.79495  0.21739  1.0000
  N   N207      1.0  0.55829  0.94543  0.44186  1.0000
  C   C3790     1.0  0.51516  0.95870  0.31131  1.0000
  H   H6651     1.0  0.72922  0.96381  0.11530  1.0000
  H   H6652     1.0  0.58113  0.84971  0.27597  1.0000
  S   S857      1.0  0.73906  0.87414  0.16595  1.0000
  H   H6653     1.0  0.72501  0.78117  0.99395  1.0000
  H   H6654     1.0  0.65166  0.75866  0.02726  1.0000
  H   H6655     1.0  0.59915  0.76284  0.04991  1.0000
  H   H6656     1.0  0.59735  0.80460  0.13321  1.0000
  H   H6657     1.0  0.67104  0.86800  0.33154  1.0000
  H   H6658     1.0  0.68237  0.76316  0.29580  1.0000
  H   H6659     1.0  0.65131  0.79514  0.36323  1.0000
  H   H6660     1.0  0.68846  0.85734  0.33883  1.0000
  H   H6661     1.0  0.71226  0.83495  0.06516  1.0000
  H   H6662     1.0  0.57613  0.76685  0.23511  1.0000
  C   C3791     1.0  0.57918  0.81738  0.14873  1.0000
  H   H6663     1.0  0.70316  0.83180  0.34525  1.0000
  H   H6664     1.0  0.62286  0.76673  0.02574  1.0000
  H   H6665     1.0  0.56951  0.83821  0.26265  1.0000
  H   H6666     1.0  0.59018  0.90241  0.43969  1.0000
  S   S858      1.0  0.60051  0.76887  0.20403  1.0000
  H   H6667     1.0  0.60687  0.96907  0.35950  1.0000
  H   H6668     1.0  0.64491  0.86979  0.38120  1.0000
  H   H6669     1.0  0.56976  0.81720  0.14315  1.0000
  H   H6670     1.0  0.54802  0.95459  0.30090  1.0000
  H   H6671     1.0  0.61480  0.82707  0.26961  1.0000
  H   H6672     1.0  0.56550  0.82254  0.27857  1.0000
  H   H6673     1.0  0.59873  0.76593  0.06890  1.0000
  H   H6674     1.0  0.59048  0.83545  0.31206  1.0000
  C   C3792     1.0  0.58506  0.97635  0.42226  1.0000
  N   N208      1.0  0.55766  0.84525  0.28475  1.0000
  H   H6675     1.0  0.60339  0.81879  0.30472  1.0000
  H   H6676     1.0  0.72923  0.80717  0.03973  1.0000
  H   H6677     1.0  0.49739  0.80511  0.23078  1.0000
  H   H6678     1.0  0.54505  0.85810  0.31161  1.0000
  C   C3793     1.0  0.63014  0.78828  0.01415  1.0000
  H   H6679     1.0  0.55329  0.89193  0.24467  1.0000
  C   C3794     1.0  0.64999  0.80594  0.16472  1.0000
  H   H6680     1.0  0.66115  0.80085  0.15722  1.0000
  C   C3795     1.0  0.66272  0.73618  0.13855  1.0000
  H   H6681     1.0  0.66255  0.86013  0.35826  1.0000
  S   S859      1.0  0.58006  0.80160  0.22786  1.0000
  C   C3796     1.0  0.54526  0.98152  0.34314  1.0000
  H   H6682     1.0  0.63160  0.77222  0.18008  1.0000
  S   S860      1.0  0.66533  0.78949  0.27000  1.0000
  H   H6683     1.0  0.51339  0.92639  0.44948  1.0000
  N   N209      1.0  0.62556  0.77588  0.04443  1.0000
  C   C3797     1.0  0.64265  0.77574  0.04265  1.0000
  C   C3798     1.0  0.61544  0.78834  0.05330  1.0000
  C   C3799     1.0  0.62257  0.76019  0.05446  1.0000
  C   C3800     1.0  0.62112  0.77824  0.02886  1.0000
  H   H6684     1.0  0.72640  0.78160  0.08524  1.0000
  C   C3801     1.0  0.65462  0.76135  0.03719  1.0000
  C   C3802     1.0  0.71745  0.74108  0.04179  1.0000
  C   C3803     1.0  0.61853  0.80515  0.04691  1.0000
  C   C3804     1.0  0.60807  0.81612  0.05764  1.0000
  C   C3805     1.0  0.60510  0.75879  0.05996  1.0000
  C   C3806     1.0  0.67132  0.76417  0.03203  1.0000
  H   H6685     1.0  0.64480  0.77619  0.05401  1.0000
  H   H6686     1.0  0.64587  0.78648  0.03443  1.0000
  H   H6687     1.0  0.60277  0.78949  0.05382  1.0000
  H   H6688     1.0  0.61680  0.78474  0.06574  1.0000
  H   H6689     1.0  0.62740  0.75728  0.06517  1.0000
  C   C3807     1.0  0.56226  0.94525  0.46913  1.0000
  C   C3808     1.0  0.64399  0.79282  0.25232  1.0000
  H   H6690     1.0  0.60832  0.78346  0.02984  1.0000
  H   H6691     1.0  0.70628  0.74356  0.03784  1.0000
  H   H6692     1.0  0.63002  0.79983  0.01602  1.0000
  C   C3809     1.0  0.72316  0.84182  0.19683  1.0000
  S   S861      1.0  0.61437  0.80662  0.20589  1.0000
  C   C3810     1.0  0.71570  0.96273  0.09435  1.0000
  H   H6693     1.0  0.54835  0.97514  0.29609  1.0000
  H   H6694     1.0  0.63086  0.80530  0.04638  1.0000
  H   H6695     1.0  0.61571  0.81017  0.03517  1.0000
  H   H6696     1.0  0.61055  0.81190  0.06963  1.0000
  H   H6697     1.0  0.61051  0.82808  0.05282  1.0000
  H   H6698     1.0  0.59544  0.81688  0.05841  1.0000
  H   H6699     1.0  0.64913  0.79882  0.17692  1.0000
  H   H6700     1.0  0.53467  0.82518  0.18855  1.0000
  C   C3811     1.0  0.59227  0.76922  0.16189  1.0000
  H   H6701     1.0  0.54032  0.84639  0.26182  1.0000
  C   C3812     1.0  0.71265  0.77082  0.01769  1.0000
  H   H6702     1.0  0.56805  0.76692  0.21119  1.0000
  N   N210      1.0  0.69003  0.91290  0.21211  1.0000
  C   C3813     1.0  0.70193  0.89886  0.20723  1.0000
  C   C3814     1.0  0.67684  0.91690  0.20348  1.0000
  C   C3815     1.0  0.69820  0.92653  0.20673  1.0000
  C   C3816     1.0  0.68376  0.91042  0.22970  1.0000
  C   C3817     1.0  0.68220  0.89345  0.23880  1.0000
  C   C3818     1.0  0.71743  0.89452  0.21311  1.0000
  C   C3819     1.0  0.68746  0.94293  0.20810  1.0000
  C   C3820     1.0  0.66635  0.90478  0.20771  1.0000
  C   C3821     1.0  0.65472  0.90942  0.19692  1.0000
  C   C3822     1.0  0.67232  0.89336  0.25548  1.0000
  C   C3823     1.0  0.72592  0.87759  0.21234  1.0000
  H   H6703     1.0  0.67755  0.98300  0.16089  1.0000
  H   H6704     1.0  0.70554  0.90101  0.19417  1.0000
  H   H6705     1.0  0.69680  0.88831  0.21079  1.0000
  H   H6706     1.0  0.66846  0.92795  0.20576  1.0000
  H   H6707     1.0  0.68169  0.91914  0.19053  1.0000
  H   H6708     1.0  0.70461  0.92744  0.19420  1.0000
  H   H6709     1.0  0.70744  0.92448  0.21348  1.0000
  H   H6710     1.0  0.69141  0.91377  0.23544  1.0000
  H   H6711     1.0  0.67208  0.91846  0.23234  1.0000
  H   H6712     1.0  0.69397  0.88589  0.23976  1.0000
  H   H6713     1.0  0.67678  0.88774  0.23301  1.0000
  H   H6714     1.0  0.72540  0.90234  0.20551  1.0000
  H   H6715     1.0  0.71538  0.89592  0.22532  1.0000
  H   H6716     1.0  0.67872  0.94239  0.21944  1.0000
  H   H6717     1.0  0.68110  0.94749  0.19831  1.0000
  H   H6718     1.0  0.67333  0.89285  0.20667  1.0000
  H   H6719     1.0  0.65925  0.90439  0.21988  1.0000
  H   H6720     1.0  0.66106  0.90957  0.18452  1.0000
  H   H6721     1.0  0.64717  0.90070  0.20041  1.0000
  H   H6722     1.0  0.64708  0.92121  0.19769  1.0000
  H   H6723     1.0  0.67220  0.88105  0.26203  1.0000
  H   H6724     1.0  0.67738  0.89892  0.26187  1.0000
  H   H6725     1.0  0.66001  0.89979  0.25518  1.0000
  H   H6726     1.0  0.50979  0.96411  0.34170  1.0000
  H   H6727     1.0  0.71918  0.86928  0.22118  1.0000
  H   H6728     1.0  0.73831  0.74930  0.01235  1.0000
  C   C3824     1.0  0.55237  0.77637  0.23087  1.0000
  H   H6729     1.0  0.55589  0.96751  0.47670  1.0000
  Fe  Fe430     1.0  0.50000  0.90213  0.25481  1.0000
  H   H6730     1.0  0.49625  0.79216  0.21938  1.0000
  H   H6731     1.0  0.73939  0.94778  0.09143  1.0000
  C   C3825     1.0  0.72107  0.81159  0.11986  1.0000
  H   H6732     1.0  0.55788  0.74357  0.20329  1.0000
  H   H6733     1.0  0.56480  0.97548  0.31463  1.0000
  C   C3826     1.0  0.57938  0.90287  0.43589  1.0000
  H   H6734     1.0  0.70251  0.95160  0.21719  1.0000
  H   H6735     1.0  0.73549  0.78816  0.01703  1.0000
  H   H6736     1.0  0.71325  0.82298  0.09403  1.0000
  H   H6737     1.0  0.71022  0.82088  0.12207  1.0000
  H   H6738     1.0  0.54703  0.96344  0.45546  1.0000
  H   H6739     1.0  0.72847  0.84333  0.05271  1.0000
  H   H6740     1.0  0.58560  0.97618  0.40992  1.0000
  H   H6741     1.0  0.59757  0.73928  0.20083  1.0000
  H   H6742     1.0  0.53365  0.84506  0.33843  1.0000
  S   S862      1.0  0.60102  0.82054  0.24810  1.0000
  C   C3827     1.0  0.65639  0.85092  0.35869  1.0000
  C   C3828     1.0  0.57176  0.95308  0.43197  1.0000
  H   H6743     1.0  0.65543  0.74967  0.16218  1.0000
  H   H6744     1.0  0.55577  0.81145  0.26235  1.0000
  H   H6745     1.0  0.70959  0.79944  0.10952  1.0000
  H   H6746     1.0  0.67471  0.92989  0.10527  1.0000
  H   H6747     1.0  0.69448  0.80157  0.13748  1.0000
  C   C3829     1.0  0.53375  0.91339  0.41634  1.0000
  H   H6748     1.0  0.55137  0.89192  0.41570  1.0000
  H   H6749     1.0  0.59078  0.86348  0.30687  1.0000
  C   C3830     1.0  0.63689  0.86266  0.38079  1.0000
  C   C3831     1.0  0.58278  0.87318  0.31219  1.0000
  C   C3832     1.0  0.62288  0.81746  0.26486  1.0000
  C   C3833     1.0  0.54821  0.75103  0.19744  1.0000
  C   C3834     1.0  0.54745  0.88620  0.25652  1.0000
  N   N211      1.0  0.66804  0.83701  0.35304  1.0000
  H   H6750     1.0  0.62893  0.75058  0.04812  1.0000
  H   H6751     1.0  0.58282  0.89721  0.42566  1.0000
  C   C3835     1.0  0.72633  0.82031  0.09109  1.0000
  H   H6752     1.0  0.61588  0.83036  0.11232  1.0000
  S   S863      1.0  0.53407  0.91865  0.39612  1.0000
  S   S864      1.0  0.63749  0.78970  0.08470  1.0000
  C   C3836     1.0  0.72810  0.78239  0.02794  1.0000
  H   H6753     1.0  0.57304  0.95343  0.41929  1.0000
  H   H6754     1.0  0.54045  0.94581  0.46341  1.0000
  C   C3837     1.0  0.72110  0.95563  0.12120  1.0000
  H   H6755     1.0  0.71901  0.80595  0.31159  1.0000
  H   H6756     1.0  0.53824  0.96804  0.28589  1.0000
  S   S865      1.0  0.66288  0.80661  0.30794  1.0000
  H   H6757     1.0  0.59578  0.78605  0.17282  1.0000
  C   C3838     1.0  0.69702  0.95484  0.20687  1.0000
  Fe  Fe431     1.0  0.50120  0.89466  0.28903  1.0000
  C   C3839     1.0  0.72599  0.79556  0.31764  1.0000
  H   H6758     1.0  0.65373  0.84064  0.38413  1.0000
  C   C3840     1.0  0.65902  0.82449  0.35543  1.0000
  H   H6759     1.0  0.65444  0.82006  0.36817  1.0000
  H   H6760     1.0  0.55265  0.75706  0.22185  1.0000
  H   H6761     1.0  0.57083  0.87559  0.33618  1.0000
  S   S866      1.0  0.69898  0.78401  0.32876  1.0000
  C   C3841     1.0  0.53095  0.90497  0.44918  1.0000
  N   N212      1.0  0.72604  0.76708  0.02598  1.0000
  H   H6762     1.0  0.57616  0.82863  0.15266  1.0000
  C   C3842     1.0  0.72826  0.76980  0.33493  1.0000
  H   H6763     1.0  0.73098  0.82230  0.05874  1.0000
  H   H6764     1.0  0.72292  0.76021  0.34232  1.0000
  C   C3843     1.0  0.62301  0.79116  0.99987  1.0000
  H   H6765     1.0  0.53932  0.82632  0.16765  1.0000
  C   C3844     1.0  0.73468  0.78177  0.04227  1.0000
  H   H6766     1.0  0.54569  0.89379  0.26487  1.0000
  H   H6767     1.0  0.55807  0.82790  0.24583  1.0000
  C   C3845     1.0  0.64754  0.79818  0.26379  1.0000
  C   C3846     1.0  0.54324  0.82021  0.17880  1.0000
  H   H6768     1.0  0.67705  0.80263  0.35583  1.0000
  C   C3847     1.0  0.70781  0.81482  0.36606  1.0000
  H   H6769     1.0  0.63586  0.79369  0.15925  1.0000
  H   H6770     1.0  0.73047  0.84815  0.19980  1.0000
  H   H6771     1.0  0.57198  0.85369  0.29479  1.0000
  H   H6772     1.0  0.59344  0.82568  0.12658  1.0000
  H   H6773     1.0  0.64028  0.77218  0.11794  1.0000
  H   H6774     1.0  0.72984  0.80920  0.08679  1.0000
  H   H6775     1.0  0.57102  0.85738  0.33171  1.0000
  C   C3848     1.0  0.73111  0.93874  0.12542  1.0000
  H   H6776     1.0  0.53666  0.83039  0.27833  1.0000
  C   C3849     1.0  0.59493  0.81589  0.13691  1.0000
  H   H6777     1.0  0.62030  0.78528  0.14659  1.0000
  H   H6778     1.0  0.53680  0.75028  0.20586  1.0000
  C   C3850     1.0  0.54566  0.83458  0.26807  1.0000
  H   H6779     1.0  0.70723  0.78294  0.25619  1.0000
  H   H6780     1.0  0.63752  0.84071  0.37609  1.0000
  H   H6781     1.0  0.56214  0.75478  0.24624  1.0000
  H   H6782     1.0  0.55487  0.82254  0.17789  1.0000
  H   H6783     1.0  0.66255  0.73549  0.07952  1.0000
  C   C3851     1.0  0.55751  0.86998  0.26182  1.0000
  H   H6784     1.0  0.64758  0.80527  0.34394  1.0000
  H   H6785     1.0  0.71692  0.85005  0.18776  1.0000
  H   H6786     1.0  0.61367  0.77191  0.09950  1.0000
  H   H6787     1.0  0.67963  0.75374  0.02811  1.0000
  H   H6788     1.0  0.51766  0.97967  0.41700  1.0000
  Fe  Fe432     1.0  0.59729  0.81584  0.22631  1.0000
  H   H6789     1.0  0.51184  0.96139  0.29974  1.0000
  C   C3852     1.0  0.54420  0.80259  0.18168  1.0000
  H   H6790     1.0  0.53226  0.80094  0.18265  1.0000
  H   H6791     1.0  0.53719  0.86254  0.27840  1.0000
  H   H6792     1.0  0.54876  0.86960  0.28649  1.0000
  C   C3853     1.0  0.52301  0.92301  0.42600  1.0000
  C   C3854     1.0  0.71076  0.79723  0.23239  1.0000
  H   H6793     1.0  0.69161  0.79992  0.21234  1.0000
  H   H6794     1.0  0.62937  0.85985  0.39272  1.0000
  H   H6795     1.0  0.72469  0.93898  0.08915  1.0000
  C   C3855     1.0  0.68433  0.92878  0.11115  1.0000
  C   C3856     1.0  0.53337  0.84073  0.32820  1.0000
  N   N213      1.0  0.50048  0.95945  0.32424  1.0000
  H   H6796     1.0  0.51299  0.89508  0.41231  1.0000
  H   H6797     1.0  0.54353  0.77402  0.18240  1.0000
  H   H6798     1.0  0.67812  0.95316  0.11174  1.0000
  H   H6799     1.0  0.59113  0.74119  0.07179  1.0000
  N   N214      1.0  0.73265  0.81803  0.10560  1.0000
  H   H6800     1.0  0.68008  0.92478  0.12400  1.0000
  H   H6801     1.0  0.67487  0.76620  0.04198  1.0000
  C   C3857     1.0  0.73185  0.75777  0.08247  1.0000
  N   N215      1.0  0.70889  0.95808  0.11171  1.0000
  C   C3858     1.0  0.54542  0.94871  0.43302  1.0000
  H   H6802     1.0  0.55398  0.78862  0.22719  1.0000
  N   N216      1.0  0.73409  0.73775  0.30318  1.0000
  C   C3859     1.0  0.54106  0.96666  0.29744  1.0000
  C   C3860     1.0  0.64189  0.74723  0.18581  1.0000
  C   C3861     1.0  0.73887  0.83351  0.12266  1.0000
  H   H6803     1.0  0.72690  0.73441  0.03390  1.0000
  H   H6804     1.0  0.56019  0.97818  0.43061  1.0000
  H   H6805     1.0  0.57169  0.89613  0.44563  1.0000
  C   C3862     1.0  0.73945  0.90389  0.16790  1.0000
  C   C3863     1.0  0.57142  0.97968  0.38368  1.0000
  C   C3864     1.0  0.73606  0.83835  0.29029  1.0000
  H   H6806     1.0  0.74048  0.94437  0.14247  1.0000
  H   H6807     1.0  0.59625  0.96923  0.42558  1.0000
  H   H6808     1.0  0.73002  0.85871  0.12118  1.0000
  C   C3865     1.0  0.73560  0.77161  0.08287  1.0000
  S   S867      1.0  0.70982  0.97823  0.16368  1.0000
  H   H6809     1.0  0.72818  0.75177  0.13473  1.0000
  H   H6810     1.0  0.54426  0.96493  0.36583  1.0000
  H   H6811     1.0  0.73356  0.85133  0.28615  1.0000
  H   H6812     1.0  0.52550  0.97368  0.36049  1.0000
  C   C3866     1.0  0.72200  0.98208  0.25367  1.0000
  H   H6813     1.0  0.60934  0.73736  0.07795  1.0000
  H   H6814     1.0  0.49466  0.91175  0.31649  1.0000
  H   H6815     1.0  0.49316  0.95566  0.34958  1.0000
  C   C3867     1.0  0.58639  0.98063  0.37431  1.0000
  H   H6816     1.0  0.54742  0.97184  0.33705  1.0000
  C   C3868     1.0  0.73944  0.79709  0.04078  1.0000
  C   C3869     1.0  0.60373  0.74181  0.06765  1.0000
  H   H6817     1.0  0.50398  0.93620  0.30460  1.0000
  H   H6818     1.0  0.72782  0.77138  0.29733  1.0000
  C   C3870     1.0  0.49935  0.93351  0.31754  1.0000
  H   H6819     1.0  0.74079  0.92691  0.16917  1.0000
  H   H6820     1.0  0.59177  0.98208  0.33605  1.0000
  H   H6821     1.0  0.73758  0.96671  0.06593  1.0000
  H   H6822     1.0  0.73659  0.83527  0.30290  1.0000
  H   H6823     1.0  0.71136  0.73554  0.31836  1.0000
  H   H6824     1.0  0.70548  0.73656  0.06651  1.0000
  H   H6825     1.0  0.73663  0.75131  0.27916  1.0000
  H   H6826     1.0  0.49630  0.91039  0.43176  1.0000
  C   C3871     1.0  0.74067  0.75911  0.01587  1.0000
  H   H6827     1.0  0.65483  0.73646  0.11779  1.0000
  H   H6828     1.0  0.74074  0.84712  0.24136  1.0000
  C   C3872     1.0  0.50978  0.88082  0.58323  1.0000
  Fe  Fe433     1.0  0.50537  0.92481  0.51712  1.0000
  S   S868      1.0  0.52516  0.92886  0.49624  1.0000
  S   S869      1.0  0.50767  0.91958  0.54246  1.0000
  H   H6829     1.0  0.62422  0.85586  0.89338  1.0000
  C   C3873     1.0  0.73458  0.97172  0.78447  1.0000
  C   C3874     1.0  0.66212  0.97460  0.91699  1.0000
  H   H6830     1.0  0.71621  0.80893  0.89979  1.0000
  Fe  Fe434     1.0  0.55959  0.94857  0.60548  1.0000
  S   S870      1.0  0.54730  0.93254  0.60110  1.0000
  Fe  Fe435     1.0  0.58998  0.92434  0.60691  1.0000
  S   S871      1.0  0.58037  0.90580  0.60260  1.0000
  S   S872      1.0  0.61467  0.92342  0.60905  1.0000
  Fe  Fe436     1.0  0.56971  0.92516  0.58432  1.0000
  S   S873      1.0  0.57015  0.92156  0.56034  1.0000
  Fe  Fe437     1.0  0.55848  0.91464  0.61962  1.0000
  S   S874      1.0  0.54194  0.90058  0.63744  1.0000
  S   S875      1.0  0.58123  0.94298  0.58709  1.0000
  S   S876      1.0  0.56890  0.93145  0.62551  1.0000
  C   C3875     1.0  0.67441  0.73795  0.94221  1.0000
  Fe  Fe438     1.0  0.68502  0.79703  0.93949  1.0000
  Fe  Fe439     1.0  0.67474  0.83260  0.93042  1.0000
  H   H6831     1.0  0.57200  0.81353  0.82706  1.0000
  S   S877      1.0  0.68319  0.85428  0.91504  1.0000
  Fe  Fe440     1.0  0.65139  0.81202  0.93664  1.0000
  S   S878      1.0  0.63071  0.80747  0.93074  1.0000
  H   H6832     1.0  0.55836  0.80510  0.82351  1.0000
  S   S879      1.0  0.67447  0.81322  0.91962  1.0000
  S   S880      1.0  0.58576  0.77369  0.87469  1.0000
  Fe  Fe441     1.0  0.64177  0.92363  0.85834  1.0000
  S   S881      1.0  0.62265  0.94499  0.85378  1.0000
  S   S882      1.0  0.63463  0.90332  0.87726  1.0000
  Fe  Fe442     1.0  0.66600  0.93748  0.83166  1.0000
  S   S883      1.0  0.64900  0.96008  0.82503  1.0000
  S   S884      1.0  0.69134  0.93514  0.81926  1.0000
  Fe  Fe443     1.0  0.64096  0.95843  0.85100  1.0000
  H   H6833     1.0  0.68819  0.97904  0.86114  1.0000
  Fe  Fe444     1.0  0.63247  0.94448  0.82840  1.0000
  S   S885      1.0  0.61851  0.94722  0.81048  1.0000
  S   S886      1.0  0.65942  0.93712  0.85745  1.0000
  S   S887      1.0  0.65004  0.92193  0.83306  1.0000
  H   H6834     1.0  0.66213  0.94582  0.64947  1.0000
  H   H6835     1.0  0.66499  0.92750  0.88826  1.0000
  C   C3876     1.0  0.49417  0.88228  0.57897  1.0000
  Fe  Fe445     1.0  0.51428  0.91673  0.48478  1.0000
  S   S888      1.0  0.71783  0.89052  0.77111  1.0000
  C   C3877     1.0  0.56722  0.88124  0.58087  1.0000
  Fe  Fe446     1.0  0.57720  0.86638  0.79299  1.0000
  S   S889      1.0  0.58190  0.88996  0.79071  1.0000
  S   S890      1.0  0.56200  0.86327  0.77869  1.0000
  Fe  Fe447     1.0  0.60237  0.84896  0.81177  1.0000
  S   S891      1.0  0.60954  0.87105  0.81072  1.0000
  S   S892      1.0  0.61679  0.82596  0.82269  1.0000
  Fe  Fe448     1.0  0.58368  0.88120  0.81593  1.0000
  S   S893      1.0  0.57622  0.89681  0.83313  1.0000
  Fe  Fe449     1.0  0.60730  0.87801  0.78570  1.0000
  S   S894      1.0  0.62352  0.89154  0.76689  1.0000
  S   S895      1.0  0.57642  0.85851  0.81901  1.0000
  S   S896      1.0  0.60264  0.85496  0.78594  1.0000
  Fe  Fe450     1.0  0.66684  0.87640  0.67095  1.0000
  S   S897      1.0  0.68319  0.85364  0.67911  1.0000
  S   S898      1.0  0.64558  0.87491  0.66335  1.0000
  Fe  Fe451     1.0  0.68240  0.89528  0.68326  1.0000
  S   S899      1.0  0.69952  0.87402  0.69243  1.0000
  S   S900      1.0  0.68110  0.91929  0.68676  1.0000
  Fe  Fe452     1.0  0.70217  0.86746  0.66965  1.0000
  C   C3878     1.0  0.72346  0.91345  0.69779  1.0000
  Fe  Fe453     1.0  0.67905  0.86245  0.70101  1.0000
  S   S901      1.0  0.67444  0.84788  0.72557  1.0000
  S   S902      1.0  0.68616  0.88968  0.65968  1.0000
  S   S903      1.0  0.66151  0.88419  0.69353  1.0000
  H   H6836     1.0  0.60623  0.93550  0.66820  1.0000
  H   H6837     1.0  0.62996  0.94605  0.91682  1.0000
  H   H6838     1.0  0.61621  0.79374  0.80171  1.0000
  H   H6839     1.0  0.70699  0.84619  0.76993  1.0000
  H   H6840     1.0  0.59221  0.91313  0.66033  1.0000
  H   H6841     1.0  0.55589  0.82669  0.79863  1.0000
  H   H6842     1.0  0.51258  0.97376  0.77914  1.0000
  H   H6843     1.0  0.57041  0.94256  0.69600  1.0000
  H   H6844     1.0  0.54292  0.96714  0.79150  1.0000
  C   C3879     1.0  0.63876  0.87919  0.75653  1.0000
  C   C3880     1.0  0.64138  0.86285  0.76174  1.0000
  C   C3881     1.0  0.65265  0.85315  0.75240  1.0000
  C   C3882     1.0  0.66131  0.85983  0.73793  1.0000
  C   C3883     1.0  0.65931  0.87615  0.73328  1.0000
  C   C3884     1.0  0.64799  0.88582  0.74250  1.0000
  H   H6845     1.0  0.63462  0.85766  0.77283  1.0000
  H   H6846     1.0  0.65438  0.84050  0.75620  1.0000
  H   H6847     1.0  0.66656  0.88138  0.72260  1.0000
  H   H6848     1.0  0.64615  0.89843  0.73853  1.0000
  C   C3885     1.0  0.73801  0.75461  0.96611  1.0000
  H   H6849     1.0  0.50979  0.93297  0.78626  1.0000
  C   C3886     1.0  0.71068  0.91044  0.69397  1.0000
  C   C3887     1.0  0.69774  0.92263  0.69091  1.0000
  C   C3888     1.0  0.69781  0.93788  0.69143  1.0000
  H   H6850     1.0  0.54294  0.97167  0.77087  1.0000
  H   H6851     1.0  0.60739  0.94204  0.90800  1.0000
  H   H6852     1.0  0.71090  0.89872  0.69340  1.0000
  H   H6853     1.0  0.68793  0.94739  0.68902  1.0000
  Fe  Fe454     1.0  0.49265  0.92168  0.75287  1.0000
  H   H6854     1.0  0.59836  0.87307  0.68118  1.0000
  H   H6855     1.0  0.55805  0.95107  0.67282  1.0000
  C   C3889     1.0  0.57403  0.97479  0.82112  1.0000
  H   H6856     1.0  0.58458  0.84912  0.85147  1.0000
  C   C3890     1.0  0.60706  0.93297  0.81681  1.0000
  C   C3891     1.0  0.60262  0.92789  0.80575  1.0000
  C   C3892     1.0  0.59341  0.91655  0.81075  1.0000
  C   C3893     1.0  0.58818  0.91062  0.82682  1.0000
  C   C3894     1.0  0.59253  0.91580  0.83786  1.0000
  C   C3895     1.0  0.60216  0.92677  0.83286  1.0000
  H   H6857     1.0  0.60643  0.93258  0.79333  1.0000
  H   H6858     1.0  0.59011  0.91262  0.80215  1.0000
  H   H6859     1.0  0.58861  0.91117  0.85029  1.0000
  H   H6860     1.0  0.60553  0.93059  0.84148  1.0000
  C   C3896     1.0  0.69858  0.92223  0.80637  1.0000
  C   C3897     1.0  0.68938  0.91275  0.80502  1.0000
  C   C3898     1.0  0.69548  0.90256  0.79458  1.0000
  C   C3899     1.0  0.71064  0.90218  0.78515  1.0000
  C   C3900     1.0  0.71986  0.91155  0.78660  1.0000
  C   C3901     1.0  0.71388  0.92146  0.79727  1.0000
  H   H6861     1.0  0.67761  0.91324  0.81199  1.0000
  H   H6862     1.0  0.68832  0.89537  0.79346  1.0000
  H   H6863     1.0  0.63446  0.96037  0.64830  1.0000
  H   H6864     1.0  0.55209  0.95685  0.82212  1.0000
  C   C3902     1.0  0.59434  0.78806  0.85989  1.0000
  C   C3903     1.0  0.61005  0.78461  0.85197  1.0000
  C   C3904     1.0  0.61675  0.79633  0.84055  1.0000
  C   C3905     1.0  0.60774  0.81156  0.83677  1.0000
  C   C3906     1.0  0.59190  0.81497  0.84434  1.0000
  C   C3907     1.0  0.58523  0.80325  0.85590  1.0000
  H   H6865     1.0  0.61706  0.77290  0.85455  1.0000
  H   H6866     1.0  0.62899  0.79355  0.83464  1.0000
  H   H6867     1.0  0.58482  0.82664  0.84142  1.0000
  H   H6868     1.0  0.57301  0.80598  0.86187  1.0000
  C   C3908     1.0  0.66929  0.86857  0.90549  1.0000
  C   C3909     1.0  0.65425  0.86615  0.90735  1.0000
  C   C3910     1.0  0.64357  0.87728  0.89905  1.0000
  C   C3911     1.0  0.64792  0.89070  0.88859  1.0000
  C   C3912     1.0  0.66283  0.89338  0.88696  1.0000
  C   C3913     1.0  0.67347  0.88235  0.89551  1.0000
  H   H6869     1.0  0.65089  0.85562  0.91507  1.0000
  H   H6870     1.0  0.63191  0.87543  0.90059  1.0000
  H   H6871     1.0  0.66626  0.90373  0.87892  1.0000
  H   H6872     1.0  0.68507  0.88430  0.89415  1.0000
  C   C3914     1.0  0.63570  0.78934  0.92516  1.0000
  C   C3915     1.0  0.62409  0.78089  0.92763  1.0000
  C   C3916     1.0  0.62780  0.76690  0.92228  1.0000
  C   C3917     1.0  0.64319  0.76124  0.91462  1.0000
  C   C3918     1.0  0.65483  0.76954  0.91242  1.0000
  C   C3919     1.0  0.65111  0.78355  0.91769  1.0000
  H   H6873     1.0  0.61221  0.78520  0.93366  1.0000
  H   H6874     1.0  0.68874  0.82175  0.67185  1.0000
  H   H6875     1.0  0.66014  0.78996  0.91573  1.0000
  C   C3920     1.0  0.52050  0.89305  0.79161  1.0000
  C   C3921     1.0  0.53525  0.88270  0.79188  1.0000
  C   C3922     1.0  0.54380  0.87674  0.77858  1.0000
  C   C3923     1.0  0.53778  0.88153  0.76492  1.0000
  C   C3924     1.0  0.52335  0.89233  0.76447  1.0000
  H   H6876     1.0  0.53978  0.87896  0.80249  1.0000
  C   C3925     1.0  0.70458  0.82984  0.64980  1.0000
  H   H6877     1.0  0.61472  0.80443  0.86911  1.0000
  C   C3926     1.0  0.62308  0.90992  0.62425  1.0000
  C   C3927     1.0  0.63823  0.91009  0.62531  1.0000
  C   C3928     1.0  0.64509  0.89980  0.63756  1.0000
  C   C3929     1.0  0.63699  0.88896  0.64858  1.0000
  C   C3930     1.0  0.62192  0.88870  0.64743  1.0000
  C   C3931     1.0  0.61492  0.89923  0.63540  1.0000
  H   H6878     1.0  0.64467  0.91824  0.61660  1.0000
  H   H6879     1.0  0.65677  0.89998  0.63825  1.0000
  H   H6880     1.0  0.61570  0.88019  0.65578  1.0000
  H   H6881     1.0  0.60329  0.89895  0.63462  1.0000
  C   C3932     1.0  0.53934  0.90393  0.65626  1.0000
  C   C3933     1.0  0.55233  0.90420  0.66157  1.0000
  C   C3934     1.0  0.55034  0.90643  0.67676  1.0000
  C   C3935     1.0  0.53534  0.90881  0.68655  1.0000
  C   C3936     1.0  0.52225  0.90889  0.68116  1.0000
  C   C3937     1.0  0.52430  0.90621  0.66608  1.0000
  H   H6882     1.0  0.56397  0.90229  0.65410  1.0000
  H   H6883     1.0  0.51064  0.91069  0.68871  1.0000
  H   H6884     1.0  0.51422  0.90602  0.66199  1.0000
  C   C3938     1.0  0.52501  0.92199  0.54610  1.0000
  C   C3939     1.0  0.52405  0.92778  0.55927  1.0000
  C   C3940     1.0  0.53778  0.92821  0.56342  1.0000
  C   C3941     1.0  0.55261  0.92257  0.55464  1.0000
  C   C3942     1.0  0.55356  0.91725  0.54118  1.0000
  C   C3943     1.0  0.53982  0.91701  0.53688  1.0000
  H   H6885     1.0  0.51264  0.93193  0.56630  1.0000
  H   H6886     1.0  0.53689  0.93282  0.57347  1.0000
  H   H6887     1.0  0.56497  0.91299  0.53422  1.0000
  H   H6888     1.0  0.54073  0.91247  0.52675  1.0000
  C   C3944     1.0  0.65798  0.94788  0.91735  1.0000
  H   H6889     1.0  0.61172  0.93165  0.89246  1.0000
  H   H6890     1.0  0.52027  0.94600  0.66741  1.0000
  C   C3945     1.0  0.68413  0.93292  0.89368  1.0000
  H   H6891     1.0  0.59375  0.93704  0.63913  1.0000
  C   C3946     1.0  0.71679  0.73801  0.90230  1.0000
  H   H6892     1.0  0.65658  0.87488  0.60511  1.0000
  H   H6893     1.0  0.58228  0.86170  0.86471  1.0000
  N   N217      1.0  0.58141  0.80184  0.80767  1.0000
  H   H6894     1.0  0.54248  0.94098  0.67985  1.0000
  H   H6895     1.0  0.64697  0.92481  0.94297  1.0000
  H   H6896     1.0  0.67234  0.89675  0.85092  1.0000
  H   H6897     1.0  0.66773  0.96909  0.85553  1.0000
  H   H6898     1.0  0.58221  0.92510  0.67467  1.0000
  H   H6899     1.0  0.55045  0.95720  0.73949  1.0000
  C   C3947     1.0  0.53892  0.95473  0.74013  1.0000
  H   H6900     1.0  0.71498  0.94339  0.83276  1.0000
  H   H6901     1.0  0.49251  0.95868  0.80535  1.0000
  C   C3948     1.0  0.57171  0.96781  0.80835  1.0000
  C   C3949     1.0  0.68959  0.73768  0.92898  1.0000
  H   H6902     1.0  0.52699  0.94261  0.80974  1.0000
  H   H6903     1.0  0.60194  0.97856  0.80726  1.0000
  H   H6904     1.0  0.67995  0.75164  0.95553  1.0000
  C   C3950     1.0  0.49659  0.94623  0.80424  1.0000
  H   H6905     1.0  0.58333  0.96390  0.80077  1.0000
  H   H6906     1.0  0.70917  0.81215  0.67067  1.0000
  H   H6907     1.0  0.54465  0.95312  0.48878  1.0000
  C   C3951     1.0  0.55648  0.95479  0.48190  1.0000
  H   H6908     1.0  0.50600  0.93714  0.60759  1.0000
  H   H6909     1.0  0.71040  0.85809  0.59261  1.0000
  H   H6910     1.0  0.69641  0.95491  0.84091  1.0000
  H   H6911     1.0  0.50184  0.86851  0.61680  1.0000
  C   C3952     1.0  0.70222  0.85737  0.76220  1.0000
  H   H6912     1.0  0.57283  0.78566  0.84152  1.0000
  C   C3953     1.0  0.58839  0.78680  0.81808  1.0000
  H   H6913     1.0  0.62537  0.94075  0.62685  1.0000
  C   C3954     1.0  0.62127  0.81362  0.78353  1.0000
  H   H6914     1.0  0.56681  0.77746  0.80500  1.0000
  H   H6915     1.0  0.65077  0.87733  0.86225  1.0000
  H   H6916     1.0  0.51312  0.86895  0.59058  1.0000
  C   C3955     1.0  0.50802  0.94502  0.78815  1.0000
  C   C3956     1.0  0.62968  0.94950  0.65286  1.0000
  S   S904      1.0  0.49591  0.91039  0.50659  1.0000
  C   C3957     1.0  0.63854  0.94309  0.90606  1.0000
  C   C3958     1.0  0.54459  0.91226  0.81274  1.0000
  H   H6917     1.0  0.54571  0.89942  0.81448  1.0000
  H   H6918     1.0  0.66134  0.85395  0.63724  1.0000
  H   H6919     1.0  0.54121  0.84776  0.81274  1.0000
  N   N218      1.0  0.59834  0.88786  0.72748  1.0000
  C   C3959     1.0  0.61123  0.87389  0.73188  1.0000
  C   C3960     1.0  0.60480  0.90263  0.72021  1.0000
  C   C3961     1.0  0.58657  0.89044  0.74252  1.0000
  C   C3962     1.0  0.58985  0.88501  0.71670  1.0000
  C   C3963     1.0  0.60015  0.88104  0.70097  1.0000
  C   C3964     1.0  0.60648  0.85772  0.73829  1.0000
  C   C3965     1.0  0.57218  0.90435  0.74061  1.0000
  C   C3966     1.0  0.62189  0.90084  0.71022  1.0000
  C   C3967     1.0  0.62572  0.91686  0.70167  1.0000
  C   C3968     1.0  0.59088  0.87549  0.69258  1.0000
  C   C3969     1.0  0.62054  0.84461  0.74210  1.0000
  C   C3970     1.0  0.56386  0.90914  0.75622  1.0000
  H   H6920     1.0  0.61635  0.87599  0.74079  1.0000
  H   H6921     1.0  0.62121  0.87229  0.72171  1.0000
  H   H6922     1.0  0.59704  0.91135  0.71272  1.0000
  H   H6923     1.0  0.60478  0.90851  0.72954  1.0000
  H   H6924     1.0  0.59259  0.89207  0.75100  1.0000
  H   H6925     1.0  0.58144  0.87998  0.74859  1.0000
  H   H6926     1.0  0.58319  0.87561  0.72299  1.0000
  H   H6927     1.0  0.58063  0.89555  0.71343  1.0000
  H   H6928     1.0  0.61072  0.87162  0.70268  1.0000
  H   H6929     1.0  0.60391  0.89171  0.69302  1.0000
  H   H6930     1.0  0.59722  0.85754  0.74925  1.0000
  H   H6931     1.0  0.60217  0.85468  0.72942  1.0000
  H   H6932     1.0  0.56355  0.90078  0.73638  1.0000
  H   H6933     1.0  0.57547  0.91493  0.73211  1.0000
  H   H6934     1.0  0.63033  0.89487  0.71801  1.0000
  H   H6935     1.0  0.62398  0.89385  0.70129  1.0000
  H   H6936     1.0  0.63817  0.91527  0.69508  1.0000
  H   H6937     1.0  0.61808  0.92306  0.69315  1.0000
  H   H6938     1.0  0.62412  0.92420  0.71022  1.0000
  H   H6939     1.0  0.58722  0.86450  0.69980  1.0000
  H   H6940     1.0  0.58026  0.88463  0.69024  1.0000
  H   H6941     1.0  0.61721  0.83306  0.74526  1.0000
  H   H6942     1.0  0.62415  0.84608  0.75225  1.0000
  H   H6943     1.0  0.55238  0.91717  0.75499  1.0000
  H   H6944     1.0  0.56163  0.89873  0.76565  1.0000
  H   H6945     1.0  0.57110  0.91517  0.75967  1.0000
  H   H6946     1.0  0.71404  0.78916  0.95271  1.0000
  H   H6947     1.0  0.54791  0.78309  0.78830  1.0000
  H   H6948     1.0  0.72588  0.81429  0.73145  1.0000
  H   H6949     1.0  0.55300  0.88195  0.60411  1.0000
  H   H6950     1.0  0.53246  0.94975  0.63181  1.0000
  H   H6951     1.0  0.63952  0.92407  0.65501  1.0000
  H   H6952     1.0  0.63067  0.84461  0.73184  1.0000
  H   H6953     1.0  0.70417  0.86669  0.76679  1.0000
  H   H6954     1.0  0.68158  0.84961  0.76117  1.0000
  C   C3971     1.0  0.72815  0.96863  0.81364  1.0000
  C   C3972     1.0  0.71509  0.76690  0.94789  1.0000
  S   S905      1.0  0.66187  0.79450  0.95574  1.0000
  N   N219      1.0  0.69545  0.84872  0.62500  1.0000
  C   C3973     1.0  0.68172  0.85310  0.61707  1.0000
  H   H6955     1.0  0.49558  0.93193  0.62770  1.0000
  C   C3974     1.0  0.69126  0.83748  0.64051  1.0000
  Fe  Fe455     1.0  0.49425  0.95237  0.72891  1.0000
  H   H6956     1.0  0.61018  0.97655  0.64551  1.0000
  H   H6957     1.0  0.65152  0.85582  0.61337  1.0000
  H   H6958     1.0  0.51600  0.95572  0.75503  1.0000
  H   H6959     1.0  0.62768  0.92768  0.73945  1.0000
  C   C3975     1.0  0.50871  0.86241  0.63892  1.0000
  H   H6960     1.0  0.51294  0.86767  0.64627  1.0000
  H   H6961     1.0  0.57704  0.75717  0.85017  1.0000
  H   H6962     1.0  0.71565  0.82435  0.64252  1.0000
  H   H6963     1.0  0.67972  0.84234  0.61495  1.0000
  H   H6964     1.0  0.68424  0.86083  0.60526  1.0000
  C   C3976     1.0  0.52024  0.97737  0.51783  1.0000
  H   H6965     1.0  0.72845  0.96864  0.75700  1.0000
  H   H6966     1.0  0.68710  0.82779  0.63862  1.0000
  H   H6967     1.0  0.68131  0.84349  0.64867  1.0000
  H   H6968     1.0  0.53429  0.94732  0.70472  1.0000
  H   H6969     1.0  0.72115  0.92859  0.79838  1.0000
  H   H6970     1.0  0.73450  0.83971  0.72430  1.0000
  H   H6971     1.0  0.51363  0.96073  0.64062  1.0000
  C   C3977     1.0  0.60399  0.96663  0.65021  1.0000
  H   H6972     1.0  0.72967  0.84115  0.57583  1.0000
  H   H6973     1.0  0.73441  0.94928  0.76879  1.0000
  H   H6974     1.0  0.50163  0.96897  0.66880  1.0000
  H   H6975     1.0  0.68612  0.74771  0.91937  1.0000
  C   C3978     1.0  0.70188  0.85632  0.80990  1.0000
  H   H6976     1.0  0.71673  0.95749  0.79256  1.0000
  C   C3979     1.0  0.73189  0.83039  0.67312  1.0000
  C   C3980     1.0  0.53336  0.94646  0.76994  1.0000
  H   H6977     1.0  0.73773  0.84200  0.59159  1.0000
  C   C3981     1.0  0.56446  0.95338  0.81580  1.0000
  H   H6978     1.0  0.59276  0.78169  0.91913  1.0000
  H   H6979     1.0  0.71487  0.85221  0.80697  1.0000
  C   C3982     1.0  0.71927  0.77673  0.95479  1.0000
  H   H6980     1.0  0.53955  0.91696  0.78994  1.0000
  H   H6981     1.0  0.53211  0.97023  0.55855  1.0000
  C   C3983     1.0  0.69972  0.81698  0.66391  1.0000
  H   H6982     1.0  0.56600  0.97379  0.55397  1.0000
  H   H6983     1.0  0.51605  0.95733  0.68870  1.0000
  H   H6984     1.0  0.71436  0.87216  0.60695  1.0000
  C   C3984     1.0  0.72149  0.82421  0.72226  1.0000
  H   H6985     1.0  0.67833  0.87048  0.75934  1.0000
  C   C3985     1.0  0.56793  0.81149  0.81742  1.0000
  S   S906      1.0  0.68753  0.81645  0.94898  1.0000
  H   H6986     1.0  0.56464  0.94745  0.80653  1.0000
  H   H6987     1.0  0.73168  0.91113  0.77958  1.0000
  C   C3986     1.0  0.69425  0.93398  0.87702  1.0000
  H   H6988     1.0  0.59538  0.77801  0.81089  1.0000
  H   H6989     1.0  0.70723  0.83878  0.65430  1.0000
  C   C3987     1.0  0.71008  0.84029  0.61517  1.0000
  H   H6990     1.0  0.56737  0.78379  0.77640  1.0000
  H   H6991     1.0  0.60986  0.85083  0.86720  1.0000
  C   C3988     1.0  0.51888  0.96879  0.68190  1.0000
  H   H6992     1.0  0.73666  0.86079  0.68471  1.0000
  H   H6993     1.0  0.51725  0.85138  0.63674  1.0000
  H   H6994     1.0  0.49782  0.88451  0.62620  1.0000
  C   C3989     1.0  0.61860  0.82777  0.89110  1.0000
  C   C3990     1.0  0.65752  0.93499  0.65521  1.0000
  H   H6995     1.0  0.69714  0.90479  0.84639  1.0000
  H   H6996     1.0  0.71230  0.80604  0.92094  1.0000
  S   S907      1.0  0.62785  0.74584  0.87533  1.0000
  C   C3991     1.0  0.61582  0.93969  0.89697  1.0000
  H   H6997     1.0  0.61882  0.76041  0.92424  1.0000
  H   H6998     1.0  0.53693  0.82910  0.82401  1.0000
  H   H6999     1.0  0.61839  0.87699  0.84376  1.0000
  N   N220      1.0  0.71099  0.85786  0.74532  1.0000
  S   S908      1.0  0.49272  0.94222  0.70974  1.0000
  H   H7000     1.0  0.56043  0.90630  0.68096  1.0000
  H   H7001     1.0  0.70440  0.97940  0.82515  1.0000
  H   H7002     1.0  0.69970  0.84155  0.74147  1.0000
  C   C3992     1.0  0.70267  0.87112  0.73425  1.0000
  C   C3993     1.0  0.70031  0.88786  0.73696  1.0000
  C   C3994     1.0  0.68742  0.89942  0.72912  1.0000
  H   H7003     1.0  0.69120  0.86895  0.73422  1.0000
  H   H7004     1.0  0.70937  0.87163  0.72195  1.0000
  H   H7005     1.0  0.68777  0.92083  0.90050  1.0000
  H   H7006     1.0  0.71147  0.89204  0.73174  1.0000
  H   H7007     1.0  0.69705  0.88829  0.74956  1.0000
  H   H7008     1.0  0.67569  0.89869  0.73688  1.0000
  H   H7009     1.0  0.68910  0.91156  0.72680  1.0000
  H   H7010     1.0  0.68774  0.89694  0.71770  1.0000
  N   N221      1.0  0.67164  0.86489  0.84852  1.0000
  C   C3995     1.0  0.67126  0.84819  0.85737  1.0000
  C   C3996     1.0  0.67852  0.86482  0.83132  1.0000
  C   C3997     1.0  0.68149  0.87125  0.85523  1.0000
  C   C3998     1.0  0.66298  0.84596  0.87506  1.0000
  C   C3999     1.0  0.68340  0.88833  0.84719  1.0000
  C   C4000     1.0  0.69655  0.85826  0.82692  1.0000
  H   H7011     1.0  0.73083  0.82477  0.59245  1.0000
  C   C4001     1.0  0.66187  0.82883  0.88220  1.0000
  H   H7012     1.0  0.71427  0.95657  0.84492  1.0000
  H   H7013     1.0  0.68341  0.84095  0.85693  1.0000
  H   H7014     1.0  0.66563  0.84255  0.85157  1.0000
  H   H7015     1.0  0.67271  0.85781  0.82724  1.0000
  H   H7016     1.0  0.67598  0.87685  0.82385  1.0000
  H   H7017     1.0  0.69331  0.86332  0.85526  1.0000
  H   H7018     1.0  0.67622  0.87136  0.86781  1.0000
  H   H7019     1.0  0.66970  0.84916  0.88183  1.0000
  H   H7020     1.0  0.58342  0.96573  0.82629  1.0000
  H   H7021     1.0  0.68605  0.89035  0.83422  1.0000
  H   H7022     1.0  0.65296  0.97550  0.92795  1.0000
  H   H7023     1.0  0.63284  0.92238  0.93374  1.0000
  S   S909      1.0  0.72663  0.86055  0.65517  1.0000
  H   H7024     1.0  0.54462  0.94121  0.79521  1.0000
  H   H7025     1.0  0.67379  0.82116  0.88208  1.0000
  H   H7026     1.0  0.51361  0.89716  0.80208  1.0000
  H   H7027     1.0  0.65566  0.82472  0.87563  1.0000
  H   H7028     1.0  0.63281  0.80693  0.77811  1.0000
  S   S910      1.0  0.49920  0.97654  0.72268  1.0000
  H   H7029     1.0  0.69469  0.89047  0.86467  1.0000
  N   N222      1.0  0.65533  0.92825  0.77018  1.0000
  C   C4002     1.0  0.65015  0.94504  0.77220  1.0000
  C   C4003     1.0  0.64670  0.92559  0.75931  1.0000
  C   C4004     1.0  0.65084  0.91790  0.78619  1.0000
  C   C4005     1.0  0.67290  0.92357  0.76441  1.0000
  C   C4006     1.0  0.68025  0.93409  0.74907  1.0000
  C   C4007     1.0  0.65845  0.94944  0.78278  1.0000
  C   C4008     1.0  0.65365  0.90009  0.78671  1.0000
  C   C4009     1.0  0.64254  0.93944  0.74553  1.0000
  C   C4010     1.0  0.63743  0.93395  0.73358  1.0000
  C   C4011     1.0  0.69820  0.92962  0.74600  1.0000
  C   C4012     1.0  0.65323  0.96696  0.78281  1.0000
  C   C4013     1.0  0.64702  0.89129  0.80317  1.0000
  H   H7030     1.0  0.63722  0.94780  0.77712  1.0000
  H   H7031     1.0  0.65193  0.95347  0.76074  1.0000
  H   H7032     1.0  0.65342  0.91514  0.75430  1.0000
  H   H7033     1.0  0.63516  0.92263  0.76602  1.0000
  H   H7034     1.0  0.63815  0.92201  0.79145  1.0000
  H   H7035     1.0  0.65748  0.91873  0.79447  1.0000
  H   H7036     1.0  0.67906  0.92296  0.77366  1.0000
  H   H7037     1.0  0.67631  0.91146  0.76228  1.0000
  H   H7038     1.0  0.67675  0.94668  0.74954  1.0000
  H   H7039     1.0  0.67675  0.93255  0.73891  1.0000
  H   H7040     1.0  0.65559  0.94296  0.79515  1.0000
  H   H7041     1.0  0.67141  0.94688  0.77853  1.0000
  H   H7042     1.0  0.66640  0.89490  0.78362  1.0000
  H   H7043     1.0  0.64789  0.89788  0.77847  1.0000
  H   H7044     1.0  0.63260  0.94848  0.75021  1.0000
  H   H7045     1.0  0.65248  0.94516  0.73914  1.0000
  H   H7046     1.0  0.63331  0.94425  0.72457  1.0000
  H   H7047     1.0  0.64752  0.92601  0.72750  1.0000
  H   H7048     1.0  0.51671  0.92786  0.62313  1.0000
  H   H7049     1.0  0.70238  0.93181  0.75548  1.0000
  H   H7050     1.0  0.70261  0.91704  0.74546  1.0000
  H   H7051     1.0  0.70328  0.93681  0.73459  1.0000
  H   H7052     1.0  0.73971  0.80755  0.91929  1.0000
  H   H7053     1.0  0.51768  0.93957  0.64445  1.0000
  H   H7054     1.0  0.52044  0.97004  0.52948  1.0000
  H   H7055     1.0  0.63407  0.89567  0.80646  1.0000
  H   H7056     1.0  0.64933  0.87857  0.80339  1.0000
  H   H7057     1.0  0.65258  0.89288  0.81195  1.0000
  C   C4014     1.0  0.61036  0.80239  0.79259  1.0000
  H   H7058     1.0  0.67880  0.86600  0.78761  1.0000
  H   H7059     1.0  0.63591  0.78001  0.86710  1.0000
  C   C4015     1.0  0.59314  0.79790  0.89629  1.0000
  H   H7060     1.0  0.68854  0.86785  0.63721  1.0000
  H   H7061     1.0  0.54521  0.96225  0.69967  1.0000
  H   H7062     1.0  0.66912  0.94277  0.92160  1.0000
  H   H7063     1.0  0.52596  0.97020  0.75545  1.0000
  C   C4016     1.0  0.53535  0.96349  0.65583  1.0000
  H   H7064     1.0  0.58448  0.80420  0.88885  1.0000
  H   H7065     1.0  0.60207  0.78911  0.89025  1.0000
  H   H7066     1.0  0.64696  0.97097  0.90451  1.0000
  C   C4017     1.0  0.54454  0.96582  0.55979  1.0000
  C   C4018     1.0  0.58445  0.78878  0.91150  1.0000
  C   C4019     1.0  0.64282  0.86931  0.84592  1.0000
  H   H7067     1.0  0.72631  0.87124  0.74748  1.0000
  H   H7068     1.0  0.62180  0.97681  0.62052  1.0000
  H   H7069     1.0  0.55820  0.93743  0.71521  1.0000
  H   H7070     1.0  0.64865  0.94904  0.92818  1.0000
  C   C4020     1.0  0.72220  0.75089  0.95030  1.0000
  C   C4021     1.0  0.68419  0.85880  0.76535  1.0000
  H   H7071     1.0  0.59594  0.81658  0.80913  1.0000
  H   H7072     1.0  0.69644  0.84750  0.80822  1.0000
  C   C4022     1.0  0.60084  0.80955  0.89971  1.0000
  H   H7073     1.0  0.60941  0.79603  0.78420  1.0000
  H   H7074     1.0  0.73230  0.97180  0.82262  1.0000
  H   H7075     1.0  0.66669  0.76530  0.90635  1.0000
  C   C4023     1.0  0.66641  0.93667  0.89341  1.0000
  H   H7076     1.0  0.62854  0.89275  0.83887  1.0000
  S   S911      1.0  0.51258  0.93205  0.73709  1.0000
  C   C4024     1.0  0.54567  0.95202  0.67964  1.0000
  H   H7077     1.0  0.64714  0.93587  0.63634  1.0000
  C   C4025     1.0  0.53564  0.97306  0.78262  1.0000
  C   C4026     1.0  0.71079  0.94100  0.69468  1.0000
  H   H7078     1.0  0.69785  0.80723  0.65993  1.0000
  H   H7079     1.0  0.64188  0.87194  0.62297  1.0000
  C   C4027     1.0  0.70292  0.89069  0.61912  1.0000
  H   H7080     1.0  0.73331  0.86268  0.73090  1.0000
  C   C4028     1.0  0.64335  0.78572  0.87065  1.0000
  H   H7081     1.0  0.60869  0.80280  0.90788  1.0000
  C   C4029     1.0  0.71060  0.96824  0.82129  1.0000
  H   H7082     1.0  0.58837  0.75441  0.83098  1.0000
  H   H7083     1.0  0.51879  0.88194  0.57203  1.0000
  C   C4030     1.0  0.50498  0.97739  0.67347  1.0000
  C   C4031     1.0  0.63327  0.79586  0.88228  1.0000
  H   H7084     1.0  0.61136  0.85678  0.91239  1.0000
  H   H7085     1.0  0.65537  0.97418  0.77065  1.0000
  C   C4032     1.0  0.62110  0.80947  0.87469  1.0000
  H   H7086     1.0  0.63764  0.95287  0.59943  1.0000
  H   H7087     1.0  0.61951  0.96738  0.59808  1.0000
  H   H7088     1.0  0.55656  0.91477  0.80829  1.0000
  C   C4033     1.0  0.52289  0.94988  0.64249  1.0000
  H   H7089     1.0  0.50706  0.90382  0.62816  1.0000
  H   H7090     1.0  0.65667  0.91206  0.91250  1.0000
  N   N223      1.0  0.61506  0.95148  0.64697  1.0000
  H   H7091     1.0  0.62679  0.94795  0.66586  1.0000
  H   H7092     1.0  0.65213  0.77631  0.87633  1.0000
  H   H7093     1.0  0.63154  0.92077  0.90870  1.0000
  C   C4034     1.0  0.59186  0.93814  0.65145  1.0000
  C   C4035     1.0  0.57694  0.77875  0.83221  1.0000
  H   H7094     1.0  0.57899  0.78062  0.90866  1.0000
  C   C4036     1.0  0.65325  0.86631  0.61619  1.0000
  S   S912      1.0  0.54615  0.97256  0.60842  1.0000
  C   C4037     1.0  0.61873  0.84874  0.90458  1.0000
  H   H7095     1.0  0.64665  0.86733  0.83377  1.0000
  H   H7096     1.0  0.59688  0.78904  0.82363  1.0000
  H   H7097     1.0  0.56462  0.95076  0.49011  1.0000
  H   H7098     1.0  0.66006  0.96993  0.78963  1.0000
  C   C4038     1.0  0.51814  0.97133  0.50605  1.0000
  C   C4039     1.0  0.71170  0.84255  0.74131  1.0000
  H   H7099     1.0  0.58323  0.94924  0.65293  1.0000
  C   C4040     1.0  0.55747  0.78966  0.78467  1.0000
  H   H7100     1.0  0.51692  0.95931  0.50867  1.0000
  H   H7101     1.0  0.57307  0.92556  0.65921  1.0000
  C   C4041     1.0  0.71956  0.81128  0.90969  1.0000
  C   C4042     1.0  0.73345  0.74472  0.95961  1.0000
  H   H7102     1.0  0.62246  0.88323  0.85921  1.0000
  S   S913      1.0  0.65056  0.83287  0.94585  1.0000
  H   H7103     1.0  0.55002  0.83768  0.82940  1.0000
  H   H7104     1.0  0.61612  0.82244  0.77406  1.0000
  C   C4043     1.0  0.62825  0.96481  0.61902  1.0000
  H   H7105     1.0  0.56878  0.83553  0.80380  1.0000
  H   H7106     1.0  0.50218  0.93934  0.81420  1.0000
  H   H7107     1.0  0.59006  0.82155  0.79096  1.0000
  H   H7108     1.0  0.65441  0.93387  0.66816  1.0000
  H   H7109     1.0  0.61572  0.92657  0.65202  1.0000
  H   H7110     1.0  0.56316  0.97515  0.83066  1.0000
  H   H7111     1.0  0.68139  0.84505  0.78943  1.0000
  H   H7112     1.0  0.62333  0.81980  0.79153  1.0000
  H   H7113     1.0  0.50615  0.87901  0.49313  1.0000
  C   C4044     1.0  0.60414  0.84384  0.86308  1.0000
  C   C4045     1.0  0.54625  0.83601  0.81940  1.0000
  H   H7114     1.0  0.55286  0.80182  0.77853  1.0000
  H   H7115     1.0  0.55243  0.79559  0.80703  1.0000
  H   H7116     1.0  0.58656  0.79106  0.78776  1.0000
  H   H7117     1.0  0.70354  0.84112  0.59331  1.0000
  C   C4046     1.0  0.58445  0.92462  0.66212  1.0000
  H   H7118     1.0  0.57125  0.94481  0.82422  1.0000
  H   H7119     1.0  0.63774  0.97355  0.59430  1.0000
  H   H7120     1.0  0.64055  0.96991  0.78843  1.0000
  H   H7121     1.0  0.64536  0.89389  0.93613  1.0000
  H   H7122     1.0  0.57501  0.79691  0.91797  1.0000
  H   H7123     1.0  0.59586  0.76249  0.84288  1.0000
  C   C4047     1.0  0.69666  0.89228  0.85172  1.0000
  N   N224      1.0  0.52222  0.89157  0.59949  1.0000
  C   C4048     1.0  0.50874  0.89387  0.59173  1.0000
  C   C4049     1.0  0.52120  0.90666  0.60409  1.0000
  C   C4050     1.0  0.53733  0.88853  0.58734  1.0000
  C   C4051     1.0  0.52271  0.87793  0.61357  1.0000
  C   C4052     1.0  0.55262  0.88855  0.59188  1.0000
  C   C4053     1.0  0.50659  0.91205  0.61659  1.0000
  C   C4054     1.0  0.50624  0.92826  0.61882  1.0000
  H   H7124     1.0  0.72084  0.84131  0.61819  1.0000
  H   H7125     1.0  0.50791  0.90510  0.58269  1.0000
  H   H7126     1.0  0.53140  0.90571  0.60908  1.0000
  H   H7127     1.0  0.52181  0.91640  0.59349  1.0000
  H   H7128     1.0  0.53664  0.89730  0.57607  1.0000
  H   H7129     1.0  0.53911  0.87693  0.58442  1.0000
  H   H7130     1.0  0.52990  0.86686  0.60998  1.0000
  H   H7131     1.0  0.52895  0.87986  0.62169  1.0000
  H   H7132     1.0  0.68690  0.94128  0.89889  1.0000
  C   C4055     1.0  0.72036  0.96681  0.78240  1.0000
  H   H7133     1.0  0.55336  0.90083  0.59082  1.0000
  C   C4056     1.0  0.72862  0.83780  0.58877  1.0000
  H   H7134     1.0  0.71788  0.84915  0.71535  1.0000
  C   C4057     1.0  0.65846  0.96487  0.90766  1.0000
  H   H7135     1.0  0.70874  0.85922  0.63416  1.0000
  C   C4058     1.0  0.59628  0.96688  0.66773  1.0000
  H   H7136     1.0  0.69142  0.94611  0.86992  1.0000
  H   H7137     1.0  0.71690  0.82420  0.90866  1.0000
  H   H7138     1.0  0.55968  0.92718  0.70033  1.0000
  C   C4059     1.0  0.51458  0.89800  0.77787  1.0000
  H   H7139     1.0  0.57797  0.88238  0.58371  1.0000
  H   H7140     1.0  0.65959  0.89625  0.94547  1.0000
  C   C4060     1.0  0.72720  0.86040  0.74352  1.0000
  S   S914      1.0  0.70218  0.77462  0.93501  1.0000
  C   C4061     1.0  0.60773  0.93750  0.65525  1.0000
  H   H7141     1.0  0.56383  0.97627  0.80096  1.0000
  C   C4062     1.0  0.56283  0.78988  0.79918  1.0000
  H   H7142     1.0  0.65517  0.82771  0.89459  1.0000
  C   C4063     1.0  0.70906  0.95494  0.83588  1.0000
  H   H7143     1.0  0.54584  0.94683  0.76867  1.0000
  S   S915      1.0  0.64829  0.74373  0.90791  1.0000
  C   C4064     1.0  0.73085  0.77061  0.96376  1.0000
  H   H7144     1.0  0.59435  0.96994  0.64378  1.0000
  C   C4065     1.0  0.57654  0.79849  0.79449  1.0000
  N   N225      1.0  0.52363  0.94923  0.78577  1.0000
  H   H7145     1.0  0.60281  0.97919  0.83234  1.0000
  H   H7146     1.0  0.49807  0.86212  0.49550  1.0000
  Fe  Fe456     1.0  0.60174  0.75102  0.88454  1.0000
  C   C4066     1.0  0.67664  0.85693  0.78286  1.0000
  H   H7147     1.0  0.56638  0.77782  0.82900  1.0000
  C   C4067     1.0  0.55365  0.97891  0.55278  1.0000
  H   H7148     1.0  0.62744  0.78802  0.89255  1.0000
  H   H7149     1.0  0.63996  0.96250  0.62182  1.0000
  H   H7150     1.0  0.66894  0.91675  0.92184  1.0000
  H   H7151     1.0  0.57352  0.80955  0.78573  1.0000
  H   H7152     1.0  0.54061  0.94238  0.73928  1.0000
  H   H7153     1.0  0.65571  0.88712  0.84250  1.0000
  H   H7154     1.0  0.55001  0.95618  0.55337  1.0000
  C   C4068     1.0  0.64520  0.91829  0.93511  1.0000
  H   H7155     1.0  0.60785  0.95482  0.62521  1.0000
  H   H7156     1.0  0.65087  0.85320  0.87688  1.0000
  H   H7157     1.0  0.69096  0.89605  0.62510  1.0000
  H   H7158     1.0  0.73465  0.77839  0.96836  1.0000
  C   C4069     1.0  0.63094  0.96460  0.60166  1.0000
  N   N226      1.0  0.53521  0.96630  0.67156  1.0000
  C   C4070     1.0  0.58510  0.76220  0.83943  1.0000
  C   C4071     1.0  0.66431  0.97848  0.86181  1.0000
  C   C4072     1.0  0.62713  0.88131  0.84702  1.0000
  N   N227      1.0  0.73172  0.97977  0.79786  1.0000
  H   H7159     1.0  0.54434  0.87698  0.75459  1.0000
  H   H7160     1.0  0.72903  0.82259  0.71061  1.0000
  H   H7161     1.0  0.53406  0.96258  0.72999  1.0000
  H   H7162     1.0  0.69372  0.87984  0.60658  1.0000
  Fe  Fe457     1.0  0.50965  0.92102  0.71918  1.0000
  C   C4073     1.0  0.71218  0.84521  0.59700  1.0000
  C   C4074     1.0  0.65534  0.87524  0.85013  1.0000
  Fe  Fe458     1.0  0.50783  0.95039  0.48779  1.0000
  H   H7163     1.0  0.56772  0.86857  0.58223  1.0000
  H   H7164     1.0  0.70817  0.88484  0.84727  1.0000
  H   H7165     1.0  0.63900  0.89946  0.95488  1.0000
  S   S916      1.0  0.60305  0.74434  0.91014  1.0000
  H   H7166     1.0  0.66372  0.85840  0.78457  1.0000
  C   C4075     1.0  0.55926  0.93879  0.70245  1.0000
  C   C4076     1.0  0.61885  0.95232  0.62952  1.0000
  H   H7167     1.0  0.70699  0.89955  0.60863  1.0000
  S   S917      1.0  0.49629  0.91131  0.77757  1.0000
  C   C4077     1.0  0.56024  0.82777  0.80850  1.0000
  H   H7168     1.0  0.64062  0.85814  0.85409  1.0000
  C   C4078     1.0  0.54520  0.95099  0.69719  1.0000
  H   H7169     1.0  0.66765  0.96494  0.89667  1.0000
  H   H7170     1.0  0.71091  0.95290  0.69464  1.0000
  H   H7171     1.0  0.49727  0.89529  0.60021  1.0000
  C   C4079     1.0  0.59397  0.81137  0.80025  1.0000
  C   C4080     1.0  0.69855  0.86282  0.62842  1.0000
  H   H7172     1.0  0.57906  0.96585  0.60955  1.0000
  H   H7173     1.0  0.51885  0.89599  0.75384  1.0000
  H   H7174     1.0  0.66702  0.92472  0.65252  1.0000
  Fe  Fe459     1.0  0.62909  0.73781  0.90074  1.0000
  S   S918      1.0  0.53361  0.91145  0.70547  1.0000
  C   C4081     1.0  0.64323  0.93533  0.64916  1.0000
  H   H7175     1.0  0.69872  0.86769  0.80167  1.0000
  H   H7176     1.0  0.60139  0.98094  0.85975  1.0000
  H   H7177     1.0  0.62656  0.81912  0.89840  1.0000
  H   H7178     1.0  0.63784  0.95437  0.89711  1.0000
  H   H7179     1.0  0.60258  0.83336  0.91291  1.0000
  C   C4082     1.0  0.72360  0.92880  0.69796  1.0000
  H   H7180     1.0  0.70926  0.82403  0.72228  1.0000
  C   C4083     1.0  0.72471  0.95989  0.76777  1.0000
  H   H7181     1.0  0.66702  0.87253  0.62832  1.0000
  H   H7182     1.0  0.71583  0.83236  0.75047  1.0000
  Fe  Fe460     1.0  0.66325  0.81532  0.96365  1.0000
  H   H7183     1.0  0.54486  0.96105  0.57240  1.0000
  H   H7184     1.0  0.66375  0.94794  0.88478  1.0000
  C   C4084     1.0  0.73837  0.84199  0.66144  1.0000
  C   C4085     1.0  0.52074  0.96617  0.78670  1.0000
  C   C4086     1.0  0.66582  0.86163  0.62594  1.0000
  N   N228      1.0  0.65499  0.93706  0.90902  1.0000
  C   C4087     1.0  0.67066  0.75230  0.94939  1.0000
  H   H7185     1.0  0.70429  0.96675  0.81315  1.0000
  C   C4088     1.0  0.52742  0.95768  0.75541  1.0000
  N   N229      1.0  0.60959  0.81943  0.88554  1.0000
  C   C4089     1.0  0.60849  0.83964  0.90138  1.0000
  H   H7186     1.0  0.61278  0.83855  0.85359  1.0000
  H   H7187     1.0  0.58865  0.95824  0.67288  1.0000
  H   H7188     1.0  0.71904  0.74324  0.94497  1.0000
  H   H7189     1.0  0.73345  0.90403  0.70003  1.0000
  C   C4090     1.0  0.52945  0.94860  0.65669  1.0000
  H   H7190     1.0  0.59941  0.84838  0.89561  1.0000
  C   C4091     1.0  0.70249  0.87613  0.61405  1.0000
  H   H7191     1.0  0.69224  0.92560  0.87122  1.0000
  C   C4092     1.0  0.65705  0.92063  0.91907  1.0000
  C   C4093     1.0  0.59775  0.83092  0.87668  1.0000
  H   H7192     1.0  0.62655  0.83380  0.88099  1.0000
  C   C4094     1.0  0.64747  0.90091  0.94336  1.0000
  H   H7193     1.0  0.60531  0.96420  0.67478  1.0000
  H   H7194     1.0  0.52252  0.91805  0.80591  1.0000
  H   H7195     1.0  0.64000  0.92934  0.88890  1.0000
  H   H7196     1.0  0.59570  0.86419  0.84590  1.0000
  C   C4095     1.0  0.53248  0.93917  0.79824  1.0000
  H   H7197     1.0  0.64967  0.79290  0.86003  1.0000
  H   H7198     1.0  0.64135  0.80049  0.88617  1.0000
  H   H7199     1.0  0.71439  0.95634  0.76654  1.0000
  H   H7200     1.0  0.61595  0.95089  0.88803  1.0000
  H   H7201     1.0  0.62799  0.81682  0.86471  1.0000
  H   H7202     1.0  0.51853  0.97505  0.69101  1.0000
  C   C4096     1.0  0.63228  0.93204  0.90005  1.0000
  H   H7203     1.0  0.71115  0.88765  0.62715  1.0000
  H   H7204     1.0  0.58766  0.83677  0.88483  1.0000
  H   H7205     1.0  0.53373  0.93442  0.76893  1.0000
  C   C4097     1.0  0.53417  0.92119  0.80100  1.0000
  H   H7206     1.0  0.70012  0.84663  0.83455  1.0000
  H   H7207     1.0  0.73800  0.78457  0.90047  1.0000
  H   H7208     1.0  0.53944  0.93823  0.65707  1.0000
  H   H7209     1.0  0.59127  0.81719  0.90668  1.0000
  H   H7210     1.0  0.65922  0.75284  0.95800  1.0000
  H   H7211     1.0  0.52866  0.97396  0.64884  1.0000
  H   H7212     1.0  0.70689  0.93108  0.87743  1.0000
  H   H7213     1.0  0.71042  0.82744  0.61798  1.0000
  H   H7214     1.0  0.70309  0.86641  0.82814  1.0000
  H   H7215     1.0  0.59238  0.82458  0.87136  1.0000
  C   C4098     1.0  0.59083  0.85536  0.85590  1.0000
  H   H7216     1.0  0.62806  0.84061  0.91050  1.0000
  H   H7217     1.0  0.56716  0.88738  0.56843  1.0000
  H   H7218     1.0  0.71962  0.83296  0.67894  1.0000
  H   H7219     1.0  0.58634  0.97260  0.84658  1.0000
  H   H7220     1.0  0.54753  0.96208  0.64841  1.0000
  H   H7221     1.0  0.53943  0.91556  0.82431  1.0000
  H   H7222     1.0  0.49548  0.91286  0.61324  1.0000
  C   C4099     1.0  0.50672  0.87400  0.62339  1.0000
  C   C4100     1.0  0.72204  0.83989  0.72508  1.0000
  H   H7223     1.0  0.61492  0.97602  0.78001  1.0000
  H   H7224     1.0  0.73276  0.78129  0.92124  1.0000
  C   C4101     1.0  0.57300  0.97631  0.61405  1.0000
  H   H7225     1.0  0.55391  0.97882  0.65964  1.0000
  H   H7226     1.0  0.73479  0.95642  0.81292  1.0000
  H   H7227     1.0  0.66982  0.76329  0.94014  1.0000
  H   H7228     1.0  0.73065  0.87298  0.69895  1.0000
  H   H7229     1.0  0.49543  0.87310  0.57249  1.0000
  H   H7230     1.0  0.73293  0.84515  0.76566  1.0000
  H   H7231     1.0  0.73266  0.74924  0.88240  1.0000
  H   H7232     1.0  0.67382  0.96930  0.91998  1.0000
  C   C4102     1.0  0.49529  0.87425  0.49741  1.0000
  H   H7233     1.0  0.71028  0.97692  0.78106  1.0000
  H   H7234     1.0  0.51451  0.96776  0.79878  1.0000
  H   H7235     1.0  0.49722  0.85948  0.64554  1.0000
  S   S919      1.0  0.63351  0.97915  0.86235  1.0000
  C   C4103     1.0  0.59126  0.98310  0.84000  1.0000
  C   C4104     1.0  0.73704  0.80447  0.90942  1.0000
  C   C4105     1.0  0.51762  0.98086  0.49105  1.0000
  S   S920      1.0  0.73794  0.92468  0.74534  1.0000
  H   H7236     1.0  0.73593  0.80606  0.68531  1.0000
  H   H7237     1.0  0.73945  0.97915  0.77309  1.0000
  H   H7238     1.0  0.59492  0.97799  0.58398  1.0000
  H   H7239     1.0  0.71081  0.74956  0.90537  1.0000
  H   H7240     1.0  0.50151  0.95282  0.77911  1.0000
  H   H7241     1.0  0.59705  0.97608  0.56425  1.0000
  C   C4106     1.0  0.73815  0.84700  0.75285  1.0000
  H   H7242     1.0  0.55334  0.98263  0.54013  1.0000
  Fe  Fe461     1.0  0.73894  0.89891  0.75459  1.0000
  C   C4107     1.0  0.54274  0.98008  0.66875  1.0000
  H   H7243     1.0  0.56906  0.98137  0.57816  1.0000
  H   H7244     1.0  0.71565  0.74670  0.87757  1.0000
  C   C4108     1.0  0.55681  0.98184  0.61501  1.0000
  H   H7245     1.0  0.54629  0.98034  0.67940  1.0000
  H   H7246     1.0  0.59409  0.98112  0.61659  1.0000
  H   H7247     1.0  0.69855  0.74101  0.93299  1.0000
  H   H7248     1.0  0.66426  0.73860  0.93723  1.0000
  S   S921      1.0  0.74010  0.93327  0.70103  1.0000
  C   C4109     1.0  0.72464  0.74115  0.88482  1.0000
  H   H7249     1.0  0.74026  0.83580  0.74914  1.0000
  C   C4110     1.0  0.74008  0.86942  0.68903  1.0000
  H   H7250     1.0  0.58017  0.98296  0.68191  1.0000
  C   C4111     1.0  0.58598  0.98307  0.66939  1.0000
  H   H7251     1.0  0.49124  0.87379  0.51024  1.0000
  C   C4112     1.0  0.74105  0.78640  0.91080  1.0000
  C   C4113     1.0  0.76396  0.18261  0.08387  1.0000
  S   S922      1.0  0.96804  0.15301  0.27138  1.0000
  H   H7252     1.0  0.76803  0.04937  0.12378  1.0000
  Fe  Fe462     1.0  0.96798  0.12824  0.27174  1.0000
  S   S923      1.0  0.95072  0.12711  0.25838  1.0000
  C   C4114     1.0  0.79728  0.21501  0.03425  1.0000
  C   C4115     1.0  0.84272  0.22173  0.05401  1.0000
  C   C4116     1.0  0.96206  0.19231  0.17569  1.0000
  Fe  Fe463     1.0  0.77549  0.20733  0.09971  1.0000
  H   H7253     1.0  0.85626  0.04427  0.22403  1.0000
  H   H7254     1.0  0.75027  0.10979  0.05149  1.0000
  C   C4117     1.0  0.96258  0.15946  0.34267  1.0000
  H   H7255     1.0  0.80126  0.17013  0.38741  1.0000
  C   C4118     1.0  0.82598  0.15492  0.36762  1.0000
  C   C4119     1.0  0.97907  0.19110  0.41838  1.0000
  H   H7256     1.0  0.81561  0.13185  0.41531  1.0000
  Fe  Fe464     1.0  0.87429  0.10020  0.27679  1.0000
  S   S924      1.0  0.87852  0.09381  0.25352  1.0000
  S   S925      1.0  0.89242  0.09494  0.29149  1.0000
  Fe  Fe465     1.0  0.84018  0.11676  0.27611  1.0000
  S   S926      1.0  0.84171  0.11251  0.25259  1.0000
  S   S927      1.0  0.81662  0.12752  0.28933  1.0000
  Fe  Fe466     1.0  0.85444  0.08814  0.26194  1.0000
  S   S928      1.0  0.84757  0.06654  0.26014  1.0000
  Fe  Fe467     1.0  0.86532  0.11859  0.24632  1.0000
  S   S929      1.0  0.87481  0.13423  0.22393  1.0000
  S   S930      1.0  0.85149  0.09208  0.28609  1.0000
  S   S931      1.0  0.86259  0.12536  0.26901  1.0000
  H   H7257     1.0  0.91414  0.14350  0.22085  1.0000
  S   S932      1.0  0.86746  0.21225  0.17106  1.0000
  Fe  Fe468     1.0  0.84803  0.21760  0.19187  1.0000
  H   H7258     1.0  0.88991  0.14423  0.26614  1.0000
  C   C4120     1.0  0.84133  0.10742  0.32332  1.0000
  C   C4121     1.0  0.75152  0.12555  0.10078  1.0000
  S   S933      1.0  0.83211  0.20202  0.20825  1.0000
  C   C4122     1.0  0.80275  0.17063  0.01404  1.0000
  H   H7259     1.0  0.89205  0.14315  0.30044  1.0000
  H   H7260     1.0  0.80551  0.20249  0.27770  1.0000
  S   S934      1.0  0.78572  0.20978  0.34202  1.0000
  C   C4123     1.0  0.78396  0.13374  0.26678  1.0000
  Fe  Fe469     1.0  0.79484  0.18680  0.33455  1.0000
  S   S935      1.0  0.81922  0.18067  0.32012  1.0000
  C   C4124     1.0  0.75764  0.11847  0.04915  1.0000
  H   H7261     1.0  0.87963  0.02234  0.22750  1.0000
  S   S936      1.0  0.77170  0.05411  0.21578  1.0000
  S   S937      1.0  0.86292  0.22496  0.20320  1.0000
  H   H7262     1.0  0.79864  0.13471  0.43029  1.0000
  Fe  Fe470     1.0  0.77361  0.06101  0.23707  1.0000
  S   S938      1.0  0.78548  0.08052  0.23481  1.0000
  S   S939      1.0  0.77940  0.03632  0.25080  1.0000
  H   H7263     1.0  0.85044  0.17072  0.33902  1.0000
  S   S940      1.0  0.82277  0.23345  0.43482  1.0000
  H   H7264     1.0  0.80965  0.17011  0.45132  1.0000
  H   H7265     1.0  0.78217  0.20509  0.05536  1.0000
  C   C4125     1.0  0.79378  0.20343  0.39180  1.0000
  C   C4126     1.0  0.80851  0.19938  0.38203  1.0000
  C   C4127     1.0  0.82226  0.19921  0.38654  1.0000
  C   C4128     1.0  0.80072  0.21831  0.01776  1.0000
  H   H7266     1.0  0.80935  0.19589  0.37129  1.0000
  H   H7267     1.0  0.83366  0.19552  0.37922  1.0000
  H   H7268     1.0  0.89692  0.15758  0.27279  1.0000
  H   H7269     1.0  0.82343  0.07444  0.29112  1.0000
  C   C4129     1.0  0.84604  0.20995  0.12685  1.0000
  H   H7270     1.0  0.77678  0.10484  0.34207  1.0000
  H   H7271     1.0  0.85054  0.19737  0.12904  1.0000
  C   C4130     1.0  0.81573  0.19947  0.26810  1.0000
  C   C4131     1.0  0.83050  0.07029  0.25281  1.0000
  C   C4132     1.0  0.82534  0.08483  0.24333  1.0000
  C   C4133     1.0  0.81150  0.08782  0.23793  1.0000
  C   C4134     1.0  0.80281  0.07620  0.24176  1.0000
  C   C4135     1.0  0.80801  0.06155  0.25106  1.0000
  C   C4136     1.0  0.82190  0.05855  0.25649  1.0000
  H   H7272     1.0  0.83222  0.09367  0.23978  1.0000
  H   H7273     1.0  0.80764  0.09913  0.23058  1.0000
  H   H7274     1.0  0.80122  0.05265  0.25427  1.0000
  H   H7275     1.0  0.82583  0.04726  0.26382  1.0000
  C   C4137     1.0  0.81773  0.14223  0.29774  1.0000
  C   C4138     1.0  0.82890  0.15149  0.29059  1.0000
  C   C4139     1.0  0.82970  0.16308  0.29769  1.0000
  C   C4140     1.0  0.81905  0.16563  0.31167  1.0000
  C   C4141     1.0  0.80786  0.15642  0.31874  1.0000
  C   C4142     1.0  0.80729  0.14465  0.31185  1.0000
  H   H7276     1.0  0.83677  0.14984  0.27951  1.0000
  H   H7277     1.0  0.83833  0.17025  0.29220  1.0000
  H   H7278     1.0  0.79969  0.15823  0.32963  1.0000
  H   H7279     1.0  0.79883  0.13734  0.31759  1.0000
  C   C4143     1.0  0.86259  0.15289  0.22011  1.0000
  C   C4144     1.0  0.86880  0.16474  0.20865  1.0000
  C   C4145     1.0  0.85946  0.17981  0.20536  1.0000
  C   C4146     1.0  0.84367  0.18306  0.21305  1.0000
  C   C4147     1.0  0.83732  0.17118  0.22451  1.0000
  C   C4148     1.0  0.84686  0.15613  0.22822  1.0000
  H   H7280     1.0  0.88094  0.16230  0.20238  1.0000
  H   H7281     1.0  0.86462  0.18888  0.19689  1.0000
  H   H7282     1.0  0.82510  0.17357  0.23048  1.0000
  H   H7283     1.0  0.84201  0.14697  0.23711  1.0000
  H   H7284     1.0  0.85976  0.17643  0.17374  1.0000
  H   H7285     1.0  0.78859  0.11281  0.25726  1.0000
  H   H7286     1.0  0.80078  0.18103  0.00430  1.0000
  S   S941      1.0  0.78687  0.17219  0.35831  1.0000
  H   H7287     1.0  0.76144  0.15997  0.99175  1.0000
  H   H7288     1.0  0.83856  0.16465  0.06686  1.0000
  H   H7289     1.0  0.77041  0.09681  0.32938  1.0000
  H   H7290     1.0  0.76691  0.21425  0.21150  1.0000
  H   H7291     1.0  0.76576  0.19873  0.04115  1.0000
  C   C4149     1.0  0.93466  0.11803  0.26793  1.0000
  C   C4150     1.0  0.92345  0.11906  0.25946  1.0000
  C   C4151     1.0  0.91050  0.11198  0.26659  1.0000
  C   C4152     1.0  0.90881  0.10357  0.28219  1.0000
  C   C4153     1.0  0.92005  0.10248  0.29068  1.0000
  C   C4154     1.0  0.93288  0.10981  0.28362  1.0000
  H   H7292     1.0  0.92487  0.12522  0.24728  1.0000
  H   H7293     1.0  0.90193  0.11287  0.25992  1.0000
  H   H7294     1.0  0.91883  0.09593  0.30274  1.0000
  H   H7295     1.0  0.94152  0.10887  0.29021  1.0000
  H   H7296     1.0  0.87179  0.03161  0.24410  1.0000
  H   H7297     1.0  0.85495  0.18027  0.31849  1.0000
  H   H7298     1.0  0.81365  0.07350  0.31162  1.0000
  H   H7299     1.0  0.78564  0.14272  0.98536  1.0000
  C   C4155     1.0  0.96273  0.20143  0.42396  1.0000
  H   H7300     1.0  0.95348  0.19447  0.42806  1.0000
  H   H7301     1.0  0.75234  0.14528  0.00524  1.0000
  H   H7302     1.0  0.78761  0.12039  0.28942  1.0000
  H   H7303     1.0  0.86682  0.18033  0.33149  1.0000
  S   S942      1.0  0.82563  0.20421  0.11318  1.0000
  H   H7304     1.0  0.95056  0.21311  0.44329  1.0000
  H   H7305     1.0  0.79093  0.14218  0.26649  1.0000
  H   H7306     1.0  0.87908  0.22238  0.29170  1.0000
  H   H7307     1.0  0.74313  0.08894  0.03208  1.0000
  C   C4156     1.0  0.96974  0.15902  0.32699  1.0000
  H   H7308     1.0  0.76476  0.14639  0.03996  1.0000
  H   H7309     1.0  0.96778  0.19849  0.44704  1.0000
  S   S943      1.0  0.74915  0.23159  0.32348  1.0000
  H   H7310     1.0  0.75946  0.08099  0.13017  1.0000
  H   H7311     1.0  0.98886  0.12577  0.32594  1.0000
  H   H7312     1.0  0.79556  0.10156  0.41491  1.0000
  C   C4157     1.0  0.75526  0.01666  0.20433  1.0000
  H   H7313     1.0  0.81965  0.14837  0.36362  1.0000
  H   H7314     1.0  0.79897  0.20656  0.25279  1.0000
  H   H7315     1.0  0.87824  0.19607  0.05659  1.0000
  C   C4158     1.0  0.80269  0.13672  0.41731  1.0000
  H   H7316     1.0  0.77136  0.99977  0.25085  1.0000
  H   H7317     1.0  0.75789  0.01148  0.21616  1.0000
  S   S944      1.0  0.74958  0.03051  0.24041  1.0000
  H   H7318     1.0  0.81808  0.22237  0.31302  1.0000
  H   H7319     1.0  0.85407  0.01047  0.22669  1.0000
  H   H7320     1.0  0.81714  0.99464  0.26826  1.0000
  S   S945      1.0  0.74779  0.06464  0.24768  1.0000
  C   C4159     1.0  0.75757  0.12893  0.03271  1.0000
  Fe  Fe471     1.0  0.79713  0.22047  0.06962  1.0000
  H   H7321     1.0  0.77470  0.15722  0.28250  1.0000
  C   C4160     1.0  0.75110  0.09599  0.26858  1.0000
  H   H7322     1.0  0.95943  0.21156  0.41444  1.0000
  H   H7323     1.0  0.74763  0.17657  0.29033  1.0000
  H   H7324     1.0  0.77450  0.18721  0.08050  1.0000
  C   C4161     1.0  0.87104  0.20692  0.03438  1.0000
  H   H7325     1.0  0.82068  0.07205  0.18928  1.0000
  S   S946      1.0  0.77362  0.18804  0.32568  1.0000
  C   C4162     1.0  0.78354  0.99195  0.22943  1.0000
  H   H7326     1.0  0.97042  0.16502  0.42103  1.0000
  H   H7327     1.0  0.75619  0.06452  0.31329  1.0000
  S   S947      1.0  0.79151  0.00880  0.22090  1.0000
  H   H7328     1.0  0.96972  0.21714  0.43373  1.0000
  H   H7329     1.0  0.83795  0.19258  0.05561  1.0000
  H   H7330     1.0  0.95463  0.20099  0.19676  1.0000
  H   H7331     1.0  0.93152  0.15691  0.23682  1.0000
  H   H7332     1.0  0.86197  0.20214  0.09507  1.0000
  H   H7333     1.0  0.75238  0.05640  0.34256  1.0000
  H   H7334     1.0  0.81498  0.07619  0.20870  1.0000
  H   H7335     1.0  0.97070  0.15465  0.20634  1.0000
  H   H7336     1.0  0.78048  0.17416  0.41445  1.0000
  H   H7337     1.0  0.92509  0.18374  0.23780  1.0000
  H   H7338     1.0  0.75703  0.11577  0.30858  1.0000
  H   H7339     1.0  0.78277  0.12839  0.00347  1.0000
  H   H7340     1.0  0.78850  0.08871  0.30341  1.0000
  C   C4163     1.0  0.97681  0.19636  0.39055  1.0000
  S   S948      1.0  0.80842  0.22035  0.04418  1.0000
  S   S949      1.0  0.76617  0.20402  0.00863  1.0000
  C   C4164     1.0  0.82137  0.20367  0.40049  1.0000
  S   S950      1.0  0.77631  0.20200  0.38769  1.0000
  S   S951      1.0  0.97068  0.11888  0.29684  1.0000
  H   H7341     1.0  0.82112  0.15537  0.41470  1.0000
  C   C4165     1.0  0.87374  0.23273  0.28347  1.0000
  H   H7342     1.0  0.75146  0.08031  0.15770  1.0000
  H   H7343     1.0  0.96961  0.22660  0.37187  1.0000
  H   H7344     1.0  0.84105  0.02313  0.19546  1.0000
  H   H7345     1.0  0.79992  0.12721  0.24567  1.0000
  H   H7346     1.0  0.81570  0.09217  0.29857  1.0000
  H   H7347     1.0  0.84465  0.03457  0.24151  1.0000
  C   C4166     1.0  0.75530  0.17685  0.29785  1.0000
  C   C4167     1.0  0.83945  0.20799  0.24947  1.0000
  C   C4168     1.0  0.83169  0.21233  0.27619  1.0000
  C   C4169     1.0  0.85002  0.19124  0.25256  1.0000
  C   C4170     1.0  0.86473  0.18964  0.23933  1.0000
  H   H7348     1.0  0.92977  0.21920  0.19571  1.0000
  H   H7349     1.0  0.84694  0.21675  0.24642  1.0000
  C   C4171     1.0  0.79499  0.12139  0.25786  1.0000
  H   H7350     1.0  0.75301  0.15527  0.31500  1.0000
  H   H7351     1.0  0.83813  0.20048  0.28126  1.0000
  H   H7352     1.0  0.95105  0.19804  0.17138  1.0000
  C   C4172     1.0  0.75404  0.18324  0.09865  1.0000
  H   H7353     1.0  0.85399  0.18832  0.26373  1.0000
  H   H7354     1.0  0.84350  0.18234  0.25297  1.0000
  H   H7355     1.0  0.75955  0.09659  0.25704  1.0000
  H   H7356     1.0  0.86160  0.19423  0.22767  1.0000
  H   H7357     1.0  0.87304  0.19624  0.24013  1.0000
  H   H7358     1.0  0.87071  0.17708  0.24008  1.0000
  H   H7359     1.0  0.88081  0.16483  0.26286  1.0000
  Fe  Fe472     1.0  0.77308  0.20603  0.98243  1.0000
  H   H7360     1.0  0.85801  0.18133  0.05488  1.0000
  C   C4173     1.0  0.77045  0.12777  0.98654  1.0000
  H   H7361     1.0  0.74453  0.02165  0.31693  1.0000
  Fe  Fe473     1.0  0.76462  0.17507  0.35010  1.0000
  H   H7362     1.0  0.88817  0.12844  0.29369  1.0000
  C   C4174     1.0  0.80222  0.18166  0.26182  1.0000
  C   C4175     1.0  0.79288  0.20801  0.40566  1.0000
  H   H7363     1.0  0.91760  0.11364  0.33666  1.0000
  H   H7364     1.0  0.92493  0.19600  0.21882  1.0000
  C   C4176     1.0  0.87339  0.22092  0.09218  1.0000
  H   H7365     1.0  0.90607  0.15030  0.23902  1.0000
  C   C4177     1.0  0.88630  0.15483  0.27124  1.0000
  H   H7366     1.0  0.75300  0.08058  0.10402  1.0000
  S   S952      1.0  0.74407  0.02836  0.28457  1.0000
  C   C4178     1.0  0.80857  0.16175  0.41613  1.0000
  H   H7367     1.0  0.83893  0.19946  0.08082  1.0000
  N   N230      1.0  0.82542  0.21185  0.26252  1.0000
  H   H7368     1.0  0.88049  0.16121  0.31462  1.0000
  H   H7369     1.0  0.80025  0.07530  0.19932  1.0000
  H   H7370     1.0  0.82937  0.15834  0.38876  1.0000
  H   H7371     1.0  0.83395  0.99908  0.24179  1.0000
  H   H7372     1.0  0.86180  0.21415  0.13848  1.0000
  H   H7373     1.0  0.85436  0.14335  0.33346  1.0000
  H   H7374     1.0  0.96486  0.17604  0.22296  1.0000
  H   H7375     1.0  0.76979  0.11202  0.05015  1.0000
  S   S953      1.0  0.74211  0.16202  0.06434  1.0000
  H   H7376     1.0  0.75174  0.09693  0.17468  1.0000
  H   H7377     1.0  0.96273  0.14333  0.41474  1.0000
  H   H7378     1.0  0.83915  0.12875  0.33039  1.0000
  C   C4179     1.0  0.76339  0.14960  0.00161  1.0000
  N   N231      1.0  0.87174  0.13367  0.31483  1.0000
  C   C4180     1.0  0.79503  0.12623  0.41217  1.0000
  H   H7379     1.0  0.85356  0.15490  0.31446  1.0000
  C   C4181     1.0  0.84995  0.19645  0.07195  1.0000
  H   H7380     1.0  0.87036  0.16324  0.29105  1.0000
  N   N232      1.0  0.77790  0.06635  0.29605  1.0000
  C   C4182     1.0  0.79472  0.06626  0.29562  1.0000
  C   C4183     1.0  0.77734  0.05092  0.29314  1.0000
  C   C4184     1.0  0.77287  0.07914  0.28253  1.0000
  H   H7381     1.0  0.77436  0.02906  0.19609  1.0000
  H   H7382     1.0  0.95132  0.20187  0.22085  1.0000
  C   C4185     1.0  0.79793  0.08234  0.29521  1.0000
  C   C4186     1.0  0.75619  0.08071  0.28010  1.0000
  C   C4187     1.0  0.77042  0.02010  0.19279  1.0000
  C   C4188     1.0  0.87451  0.15206  0.28691  1.0000
  C   C4189     1.0  0.86013  0.17323  0.32872  1.0000
  H   H7383     1.0  0.98852  0.20901  0.06881  1.0000
  C   C4190     1.0  0.82734  0.00947  0.24670  1.0000
  H   H7384     1.0  0.80268  0.06224  0.28505  1.0000
  H   H7385     1.0  0.93720  0.21954  0.23900  1.0000
  H   H7386     1.0  0.76527  0.05093  0.29249  1.0000
  H   H7387     1.0  0.78495  0.04927  0.28148  1.0000
  H   H7388     1.0  0.78137  0.07760  0.27126  1.0000
  H   H7389     1.0  0.77301  0.09076  0.28415  1.0000
  H   H7390     1.0  0.95699  0.17999  0.41125  1.0000
  H   H7391     1.0  0.99079  0.22203  0.12492  1.0000
  H   H7392     1.0  0.95444  0.16363  0.23852  1.0000
  H   H7393     1.0  0.85340  0.13337  0.30374  1.0000
  H   H7394     1.0  0.79852  0.08977  0.28313  1.0000
  H   H7395     1.0  0.75362  0.17839  0.00821  1.0000
  H   H7396     1.0  0.77706  0.15597  0.42702  1.0000
  H   H7397     1.0  0.92696  0.19933  0.45990  1.0000
  H   H7398     1.0  0.83583  0.20901  0.23843  1.0000
  C   C4191     1.0  0.90543  0.11226  0.33812  1.0000
  H   H7399     1.0  0.90600  0.09994  0.33782  1.0000
  C   C4192     1.0  0.98509  0.18559  0.24674  1.0000
  C   C4193     1.0  0.82721  0.21903  0.30276  1.0000
  H   H7400     1.0  0.83559  0.11304  0.31321  1.0000
  H   H7401     1.0  0.91805  0.17028  0.20660  1.0000
  H   H7402     1.0  0.86438  0.14925  0.28456  1.0000
  C   C4194     1.0  0.76237  0.16025  0.30607  1.0000
  H   H7403     1.0  0.85926  0.02468  0.20970  1.0000
  S   S954      1.0  0.85645  0.20899  0.43941  1.0000
  H   H7404     1.0  0.81046  0.22383  0.01123  1.0000
  H   H7405     1.0  0.98808  0.19820  0.41577  1.0000
  H   H7406     1.0  0.78038  0.11949  0.98076  1.0000
  Fe  Fe474     1.0  0.77536  0.02949  0.23052  1.0000
  C   C4195     1.0  0.81248  0.07007  0.20092  1.0000
  H   H7407     1.0  0.94719  0.19130  0.24085  1.0000
  C   C4196     1.0  0.89815  0.12372  0.32482  1.0000
  H   H7408     1.0  0.74757  0.01034  0.18671  1.0000
  H   H7409     1.0  0.74524  0.13425  0.03179  1.0000
  H   H7410     1.0  0.97019  0.18358  0.19714  1.0000
  S   S955      1.0  0.95911  0.15492  0.31562  1.0000
  H   H7411     1.0  0.86750  0.11561  0.30615  1.0000
  C   C4197     1.0  0.86066  0.12546  0.31200  1.0000
  H   H7412     1.0  0.75232  0.05873  0.19147  1.0000
  C   C4198     1.0  0.80658  0.20845  0.40984  1.0000
  H   H7413     1.0  0.79901  0.05758  0.30564  1.0000
  H   H7414     1.0  0.87651  0.15175  0.33521  1.0000
  H   H7415     1.0  0.80808  0.22864  0.35113  1.0000
  H   H7416     1.0  0.93537  0.18613  0.19719  1.0000
  H   H7417     1.0  0.89846  0.11465  0.34971  1.0000
  H   H7418     1.0  0.88300  0.10969  0.32433  1.0000
  C   C4199     1.0  0.88129  0.12184  0.32605  1.0000
  H   H7419     1.0  0.82272  0.18812  0.27349  1.0000
  H   H7420     1.0  0.90946  0.17735  0.22443  1.0000
  Fe  Fe475     1.0  0.77612  0.19541  0.36531  1.0000
  C   C4200     1.0  0.77195  0.14956  0.29437  1.0000
  H   H7421     1.0  0.96313  0.14226  0.22459  1.0000
  H   H7422     1.0  0.94995  0.16879  0.19600  1.0000
  H   H7423     1.0  0.74994  0.13441  0.27967  1.0000
  H   H7424     1.0  0.87477  0.12165  0.33845  1.0000
  H   H7425     1.0  0.79670  0.18018  0.25295  1.0000
  H   H7426     1.0  0.91409  0.18634  0.47157  1.0000
  H   H7427     1.0  0.89600  0.15800  0.22308  1.0000
  H   H7428     1.0  0.89833  0.13575  0.32519  1.0000
  H   H7429     1.0  0.75858  0.99462  0.19887  1.0000
  C   C4201     1.0  0.77334  0.06329  0.32646  1.0000
  H   H7430     1.0  0.80646  0.17426  0.02297  1.0000
  H   H7431     1.0  0.93965  0.15162  0.21833  1.0000
  C   C4202     1.0  0.75376  0.16721  0.41149  1.0000
  C   C4203     1.0  0.85445  0.03258  0.23130  1.0000
  C   C4204     1.0  0.98224  0.22063  0.36975  1.0000
  H   H7432     1.0  0.78064  0.17046  0.99911  1.0000
  H   H7433     1.0  0.75028  0.10631  0.27331  1.0000
  C   C4205     1.0  0.87113  0.15797  0.32493  1.0000
  H   H7434     1.0  0.90593  0.12106  0.31360  1.0000
  N   N233      1.0  0.83415  0.02765  0.21890  1.0000
  C   C4206     1.0  0.85708  0.21972  0.07389  1.0000
  C   C4207     1.0  0.83308  0.01942  0.20695  1.0000
  C   C4208     1.0  0.83068  0.04513  0.21195  1.0000
  C   C4209     1.0  0.82218  0.02414  0.23401  1.0000
  H   H7435     1.0  0.98953  0.22963  0.36568  1.0000
  C   C4210     1.0  0.77726  0.12595  0.28402  1.0000
  C   C4211     1.0  0.81417  0.05248  0.20813  1.0000
  H   H7436     1.0  0.88713  0.20033  0.01341  1.0000
  H   H7437     1.0  0.83510  0.01205  0.25281  1.0000
  C   C4212     1.0  0.98083  0.20880  0.22601  1.0000
  Fe  Fe476     1.0  0.86808  0.22924  0.42673  1.0000
  H   H7438     1.0  0.80496  0.11501  0.26369  1.0000
  H   H7439     1.0  0.75018  0.15921  0.42291  1.0000
  C   C4213     1.0  0.85081  0.02312  0.22129  1.0000
  H   H7440     1.0  0.82101  0.02282  0.20473  1.0000
  H   H7441     1.0  0.75171  0.17930  0.41331  1.0000
  H   H7442     1.0  0.83969  0.04804  0.20101  1.0000
  H   H7443     1.0  0.83147  0.05183  0.22021  1.0000
  H   H7444     1.0  0.92093  0.20981  0.24543  1.0000
  H   H7445     1.0  0.81126  0.02310  0.23134  1.0000
  H   H7446     1.0  0.81836  0.03416  0.23996  1.0000
  C   C4214     1.0  0.81431  0.16883  0.43895  1.0000
  C   C4215     1.0  0.77356  0.99077  0.24431  1.0000
  H   H7447     1.0  0.75526  0.09887  0.14620  1.0000
  H   H7448     1.0  0.80488  0.05096  0.21903  1.0000
  H   H7449     1.0  0.81196  0.04726  0.19947  1.0000
  H   H7450     1.0  0.96053  0.14516  0.39510  1.0000
  C   C4216     1.0  0.91506  0.19883  0.46742  1.0000
  H   H7451     1.0  0.89176  0.18787  0.03154  1.0000
  C   C4217     1.0  0.76821  0.05929  0.11331  1.0000
  C   C4218     1.0  0.91905  0.22239  0.17629  1.0000
  H   H7452     1.0  0.79340  0.02018  0.28969  1.0000
  C   C4219     1.0  0.91823  0.23373  0.42919  1.0000
  H   H7453     1.0  0.84547  0.99803  0.18715  1.0000
  H   H7454     1.0  0.77976  0.05089  0.32779  1.0000
  H   H7455     1.0  0.86799  0.01275  0.24545  1.0000
  H   H7456     1.0  0.85567  0.18243  0.15438  1.0000
  H   H7457     1.0  0.77446  0.14002  0.26033  1.0000
  C   C4220     1.0  0.86196  0.14743  0.32190  1.0000
  H   H7458     1.0  0.85442  0.11266  0.33683  1.0000
  H   H7459     1.0  0.83228  0.10358  0.33374  1.0000
  C   C4221     1.0  0.77105  0.16148  0.40411  1.0000
  C   C4222     1.0  0.77870  0.20783  0.01814  1.0000
  H   H7460     1.0  0.76264  0.12962  0.09826  1.0000
  H   H7461     1.0  0.97541  0.10268  0.35509  1.0000
  H   H7462     1.0  0.85041  0.09689  0.32057  1.0000
  C   C4223     1.0  0.77242  0.12114  0.32038  1.0000
  N   N234      1.0  0.80824  0.20435  0.16764  1.0000
  C   C4224     1.0  0.79756  0.20491  0.15718  1.0000
  C   C4225     1.0  0.81355  0.21972  0.16360  1.0000
  C   C4226     1.0  0.82263  0.19146  0.16440  1.0000
  C   C4227     1.0  0.80061  0.20040  0.18485  1.0000
  C   C4228     1.0  0.78521  0.21189  0.19049  1.0000
  C   C4229     1.0  0.79069  0.19012  0.16045  1.0000
  C   C4230     1.0  0.83591  0.18954  0.17299  1.0000
  H   H7463     1.0  0.79945  0.10607  0.43145  1.0000
  C   C4231     1.0  0.75114  0.14313  0.28563  1.0000
  C   C4232     1.0  0.77772  0.20562  0.20761  1.0000
  C   C4233     1.0  0.78066  0.19190  0.14875  1.0000
  H   H7464     1.0  0.78593  0.01062  0.30957  1.0000
  H   H7465     1.0  0.80393  0.20719  0.14461  1.0000
  H   H7466     1.0  0.78726  0.21484  0.15799  1.0000
  S   S956      1.0  0.98409  0.22793  0.17321  1.0000
  C   C4234     1.0  0.76017  0.12636  0.30982  1.0000
  H   H7467     1.0  0.82776  0.19321  0.15154  1.0000
  H   H7468     1.0  0.81950  0.17978  0.16796  1.0000
  H   H7469     1.0  0.79845  0.18829  0.18824  1.0000
  H   H7470     1.0  0.80875  0.20015  0.19217  1.0000
  H   H7471     1.0  0.77644  0.21379  0.18333  1.0000
  Fe  Fe477     1.0  0.88169  0.22163  0.18171  1.0000
  H   H7472     1.0  0.80005  0.17940  0.15932  1.0000
  H   H7473     1.0  0.78308  0.18824  0.17242  1.0000
  H   H7474     1.0  0.83204  0.18471  0.18572  1.0000
  H   H7475     1.0  0.83923  0.20082  0.17148  1.0000
  H   H7476     1.0  0.97734  0.22343  0.27116  1.0000
  H   H7477     1.0  0.78780  0.22331  0.18996  1.0000
  H   H7478     1.0  0.82990  0.17553  0.08214  1.0000
  H   H7479     1.0  0.83107  0.22241  0.06227  1.0000
  H   H7480     1.0  0.96718  0.17108  0.38659  1.0000
  H   H7481     1.0  0.84535  0.22381  0.08137  1.0000
  H   H7482     1.0  0.84036  0.22006  0.27207  1.0000
  C   C4235     1.0  0.81315  0.00486  0.25911  1.0000
  H   H7483     1.0  0.77109  0.20263  0.14893  1.0000
  H   H7484     1.0  0.78813  0.19247  0.13669  1.0000
  H   H7485     1.0  0.77523  0.18156  0.15181  1.0000
  C   C4236     1.0  0.74334  0.05218  0.17504  1.0000
  C   C4237     1.0  0.88232  0.13877  0.29914  1.0000
  C   C4238     1.0  0.84879  0.11895  0.32676  1.0000
  N   N235      1.0  0.94280  0.17431  0.21908  1.0000
  C   C4239     1.0  0.95758  0.16724  0.22543  1.0000
  C   C4240     1.0  0.93297  0.18801  0.22644  1.0000
  C   C4241     1.0  0.93325  0.16179  0.22387  1.0000
  C   C4242     1.0  0.94628  0.17927  0.20135  1.0000
  C   C4243     1.0  0.95881  0.18937  0.19363  1.0000
  C   C4244     1.0  0.96848  0.15268  0.21931  1.0000
  C   C4245     1.0  0.91682  0.16707  0.21955  1.0000
  C   C4246     1.0  0.94182  0.19815  0.23068  1.0000
  C   C4247     1.0  0.93062  0.21294  0.23539  1.0000
  H   H7486     1.0  0.78219  0.12852  0.41720  1.0000
  H   H7487     1.0  0.98798  0.22973  0.24085  1.0000
  C   C4248     1.0  0.90777  0.15388  0.22604  1.0000
  S   S957      1.0  0.77123  0.22724  0.07926  1.0000
  H   H7488     1.0  0.80123  0.15158  0.44159  1.0000
  C   C4249     1.0  0.78200  0.16147  0.41466  1.0000
  C   C4250     1.0  0.91893  0.22970  0.16057  1.0000
  H   H7489     1.0  0.75597  0.07088  0.27515  1.0000
  H   H7490     1.0  0.78463  0.11745  0.31394  1.0000
  H   H7491     1.0  0.74631  0.16747  0.40348  1.0000
  H   H7492     1.0  0.81235  0.16135  0.00939  1.0000
  N   N236      1.0  0.85538  0.21127  0.06242  1.0000
  C   C4251     1.0  0.78186  0.03599  0.30569  1.0000
  H   H7493     1.0  0.81438  0.10559  0.41342  1.0000
  C   C4252     1.0  0.76874  0.10742  0.33395  1.0000
  H   H7494     1.0  0.82649  0.13905  0.39002  1.0000
  C   C4253     1.0  0.81364  0.08041  0.29942  1.0000
  Fe  Fe478     1.0  0.76361  0.20967  0.33560  1.0000
  H   H7495     1.0  0.81719  0.22121  0.17380  1.0000
  C   C4254     1.0  0.75108  0.11173  0.11501  1.0000
  H   H7496     1.0  0.77040  0.16139  0.31282  1.0000
  H   H7497     1.0  0.79024  0.15421  0.03114  1.0000
  C   C4255     1.0  0.76036  0.17576  0.07354  1.0000
  H   H7498     1.0  0.74391  0.22156  0.03630  1.0000
  C   C4256     1.0  0.74868  0.07768  0.12983  1.0000
  H   H7499     1.0  0.80317  0.22885  0.26463  1.0000
  H   H7500     1.0  0.81182  0.17115  0.26403  1.0000
  H   H7501     1.0  0.77896  0.17381  0.02704  1.0000
  H   H7502     1.0  0.75274  0.12564  0.05825  1.0000
  S   S958      1.0  0.75302  0.19693  0.35952  1.0000
  Fe  Fe479     1.0  0.84177  0.21755  0.42096  1.0000
  H   H7503     1.0  0.74737  0.08075  0.29133  1.0000
  C   C4257     1.0  0.76673  0.06946  0.31126  1.0000
  C   C4258     1.0  0.87116  0.20750  0.05135  1.0000
  H   H7504     1.0  0.77243  0.14981  0.40175  1.0000
  H   H7505     1.0  0.89540  0.23246  0.26623  1.0000
  C   C4259     1.0  0.83379  0.21664  0.11883  1.0000
  H   H7506     1.0  0.77211  0.13105  0.32551  1.0000
  H   H7507     1.0  0.80646  0.01478  0.26482  1.0000
  H   H7508     1.0  0.98268  0.15625  0.39420  1.0000
  Fe  Fe480     1.0  0.74620  0.05572  0.22752  1.0000
  H   H7509     1.0  0.97048  0.20020  0.17040  1.0000
  H   H7510     1.0  0.76814  0.17515  0.06218  1.0000
  N   N237      1.0  0.76637  0.15452  0.01494  1.0000
  C   C4260     1.0  0.77549  0.20425  0.03460  1.0000
  H   H7511     1.0  0.74686  0.02801  0.20475  1.0000
  C   C4261     1.0  0.96933  0.17310  0.40946  1.0000
  H   H7512     1.0  0.76191  0.10266  0.11244  1.0000
  C   C4262     1.0  0.82830  0.23294  0.11555  1.0000
  C   C4263     1.0  0.76014  0.06451  0.34112  1.0000
  H   H7513     1.0  0.74931  0.13225  0.31703  1.0000
  H   H7514     1.0  0.84148  0.21662  0.04475  1.0000
  C   C4264     1.0  0.98547  0.16598  0.34612  1.0000
  H   H7515     1.0  0.91461  0.21833  0.47634  1.0000
  C   C4265     1.0  0.88749  0.20021  0.02560  1.0000
  C   C4266     1.0  0.78763  0.16455  0.02156  1.0000
  C   C4267     1.0  0.81927  0.21813  0.29027  1.0000
  Fe  Fe481     1.0  0.75332  0.03931  0.25956  1.0000
  C   C4268     1.0  0.80880  0.19657  0.25563  1.0000
  H   H7516     1.0  0.78154  0.21093  0.41337  1.0000
  C   C4269     1.0  0.78478  0.20780  0.04266  1.0000
  S   S959      1.0  0.80079  0.19908  0.08882  1.0000
  C   C4270     1.0  0.74668  0.16982  0.07782  1.0000
  H   H7517     1.0  0.79321  0.18235  0.27291  1.0000
  H   H7518     1.0  0.95089  0.15717  0.34748  1.0000
  H   H7519     1.0  0.76198  0.08230  0.31047  1.0000
  H   H7520     1.0  0.75644  0.11023  0.34065  1.0000
  C   C4271     1.0  0.74884  0.00523  0.19912  1.0000
  H   H7521     1.0  0.96479  0.16297  0.36435  1.0000
  H   H7522     1.0  0.86304  0.22919  0.09744  1.0000
  H   H7523     1.0  0.82429  0.21957  0.15399  1.0000
  N   N238      1.0  0.79930  0.15408  0.41000  1.0000
  C   C4272     1.0  0.96275  0.20790  0.43783  1.0000
  H   H7524     1.0  0.87979  0.21379  0.10153  1.0000
  S   S960      1.0  0.90555  0.21074  0.18724  1.0000
  C   C4273     1.0  0.76758  0.14137  0.02933  1.0000
  H   H7525     1.0  0.75628  0.22821  0.36606  1.0000
  H   H7526     1.0  0.98274  0.14718  0.23668  1.0000
  H   H7527     1.0  0.79143  0.15099  0.00450  1.0000
  C   C4274     1.0  0.85072  0.17796  0.16698  1.0000
  H   H7528     1.0  0.79320  0.03524  0.30853  1.0000
  C   C4275     1.0  0.80269  0.16303  0.43365  1.0000
  C   C4276     1.0  0.80456  0.15728  0.39231  1.0000
  N   N239      1.0  0.76487  0.13657  0.29376  1.0000
  H   H7529     1.0  0.79827  0.15189  0.38704  1.0000
  C   C4277     1.0  0.86940  0.02423  0.23742  1.0000
  C   C4278     1.0  0.97615  0.20042  0.24133  1.0000
  C   C4279     1.0  0.78351  0.02111  0.30005  1.0000
  H   H7530     1.0  0.92563  0.22066  0.22528  1.0000
  C   C4280     1.0  0.97047  0.16276  0.35222  1.0000
  H   H7531     1.0  0.82248  0.16768  0.36252  1.0000
  C   C4281     1.0  0.86821  0.21014  0.08518  1.0000
  H   H7532     1.0  0.87896  0.20293  0.07912  1.0000
  H   H7533     1.0  0.77044  0.05448  0.10269  1.0000
  H   H7534     1.0  0.78366  0.14449  0.29738  1.0000
  H   H7535     1.0  0.78166  0.07029  0.32636  1.0000
  C   C4282     1.0  0.74196  0.05754  0.18859  1.0000
  H   H7536     1.0  0.77369  0.16963  0.39257  1.0000
  Fe  Fe482     1.0  0.97274  0.14332  0.29559  1.0000
  C   C4283     1.0  0.92987  0.22459  0.18347  1.0000
  C   C4284     1.0  0.75352  0.16850  0.01874  1.0000
  H   H7537     1.0  0.75477  0.04930  0.16746  1.0000
  N   N240      1.0  0.98066  0.18390  0.40473  1.0000
  H   H7538     1.0  0.96407  0.20203  0.39262  1.0000
  S   S961      1.0  0.75830  0.19176  0.11176  1.0000
  H   H7539     1.0  0.86709  0.21891  0.02754  1.0000
  H   H7540     1.0  0.90625  0.20528  0.46012  1.0000
  C   C4285     1.0  0.79141  0.21475  0.00969  1.0000
  H   H7541     1.0  0.79396  0.21749  0.99696  1.0000
  H   H7542     1.0  0.74773  0.22965  0.38620  1.0000
  Fe  Fe483     1.0  0.80538  0.21518  0.10108  1.0000
  H   H7543     1.0  0.96554  0.20530  0.24899  1.0000
  S   S962      1.0  0.78024  0.22182  0.11361  1.0000
  H   H7544     1.0  0.77994  0.13450  0.02857  1.0000
  H   H7545     1.0  0.83880  0.15097  0.36311  1.0000
  H   H7546     1.0  0.74813  0.18369  0.30683  1.0000
  S   S963      1.0  0.75468  0.15329  0.35474  1.0000
  H   H7547     1.0  0.83454  0.22798  0.29801  1.0000
  Fe  Fe484     1.0  0.83860  0.22669  0.45213  1.0000
  H   H7548     1.0  0.77249  0.11605  0.28364  1.0000
  C   C4286     1.0  0.97608  0.10967  0.34284  1.0000
  C   C4287     1.0  0.75244  0.07110  0.11480  1.0000
  H   H7549     1.0  0.79122  0.17153  0.43538  1.0000
  H   H7550     1.0  0.78600  0.20381  0.21534  1.0000
  C   C4288     1.0  0.78164  0.16014  0.00915  1.0000
  C   C4289     1.0  0.83652  0.00125  0.21129  1.0000
  H   H7551     1.0  0.84991  0.16427  0.08053  1.0000
  H   H7552     1.0  0.98154  0.17928  0.25864  1.0000
  H   H7553     1.0  0.77444  0.19433  0.20890  1.0000
  H   H7554     1.0  0.96468  0.11819  0.34217  1.0000
  H   H7555     1.0  0.77243  0.03585  0.31656  1.0000
  C   C4290     1.0  0.80155  0.10881  0.41840  1.0000
  H   H7556     1.0  0.76852  0.02467  0.18063  1.0000
  H   H7557     1.0  0.84809  0.16630  0.16851  1.0000
  H   H7558     1.0  0.81613  0.18044  0.43152  1.0000
  H   H7559     1.0  0.80872  0.17390  0.40909  1.0000
  H   H7560     1.0  0.94715  0.15831  0.40701  1.0000
  H   H7561     1.0  0.77986  0.00926  0.19305  1.0000
  H   H7562     1.0  0.80576  0.21183  0.42065  1.0000
  H   H7563     1.0  0.75089  0.12208  0.09017  1.0000
  C   C4291     1.0  0.82239  0.15182  0.38558  1.0000
  H   H7564     1.0  0.76249  0.12119  0.02416  1.0000
  H   H7565     1.0  0.84819  0.99614  0.21431  1.0000
  H   H7566     1.0  0.97897  0.19090  0.38036  1.0000
  C   C4292     1.0  0.95955  0.15183  0.40405  1.0000
  H   H7567     1.0  0.82585  0.16036  0.43822  1.0000
  S   S964      1.0  0.83896  0.20212  0.40628  1.0000
  H   H7568     1.0  0.77253  0.02113  0.29686  1.0000
  H   H7569     1.0  0.96727  0.18108  0.17172  1.0000
  C   C4293     1.0  0.84097  0.17177  0.07377  1.0000
  H   H7570     1.0  0.80528  0.00153  0.25367  1.0000
  H   H7571     1.0  0.86158  0.23051  0.06746  1.0000
  C   C4294     1.0  0.85244  0.21942  0.13216  1.0000
  C   C4295     1.0  0.97060  0.16325  0.39744  1.0000
  H   H7572     1.0  0.79717  0.12812  0.39922  1.0000
  H   H7573     1.0  0.76522  0.06118  0.35172  1.0000
  H   H7574     1.0  0.91060  0.22796  0.15498  1.0000
  H   H7575     1.0  0.75292  0.07668  0.34030  1.0000
  H   H7576     1.0  0.74796  0.98711  0.22597  1.0000
  H   H7577     1.0  0.76481  0.18295  0.29051  1.0000
  H   H7578     1.0  0.81772  0.19517  0.24468  1.0000
  H   H7579     1.0  0.77795  0.06504  0.11215  1.0000
  C   C4296     1.0  0.77671  0.13692  0.99446  1.0000
  H   H7580     1.0  0.75119  0.11622  0.12515  1.0000
  H   H7581     1.0  0.87826  0.21629  0.04984  1.0000
  H   H7582     1.0  0.75559  0.17293  0.02810  1.0000
  S   S965      1.0  0.89435  0.22736  0.42079  1.0000
  H   H7583     1.0  0.98156  0.18174  0.42882  1.0000
  H   H7584     1.0  0.81120  0.20997  0.29601  1.0000
  H   H7585     1.0  0.85874  0.18869  0.07879  1.0000
  H   H7586     1.0  0.81209  0.23001  0.28657  1.0000
  H   H7587     1.0  0.74976  0.21713  0.06134  1.0000
  C   C4297     1.0  0.98930  0.11861  0.33799  1.0000
  H   H7588     1.0  0.75336  0.15354  0.27605  1.0000
  S   S966      1.0  0.96914  0.22700  0.21930  1.0000
  H   H7589     1.0  0.99033  0.16199  0.30860  1.0000
  H   H7590     1.0  0.81151  0.22457  0.23549  1.0000
  H   H7591     1.0  0.98482  0.21411  0.36027  1.0000
  C   C4298     1.0  0.84691  0.18601  0.06266  1.0000
  H   H7592     1.0  0.74712  0.06766  0.14005  1.0000
  H   H7593     1.0  0.86305  0.19972  0.03421  1.0000
  H   H7594     1.0  0.92569  0.22946  0.41899  1.0000
  H   H7595     1.0  0.98395  0.21649  0.39378  1.0000
  H   H7596     1.0  0.88133  0.22780  0.08295  1.0000
  H   H7597     1.0  0.76217  0.12096  0.99532  1.0000
  C   C4299     1.0  0.83626  0.99461  0.19760  1.0000
  H   H7598     1.0  0.83476  0.20748  0.30687  1.0000
  C   C4300     1.0  0.74607  0.09300  0.15450  1.0000
  H   H7599     1.0  0.86782  0.22864  0.27660  1.0000
  C   C4301     1.0  0.98487  0.16206  0.32080  1.0000
  C   C4302     1.0  0.81446  0.23346  0.23980  1.0000
  H   H7600     1.0  0.98669  0.12670  0.34603  1.0000
  H   H7601     1.0  0.76204  0.23339  0.15685  1.0000
  H   H7602     1.0  0.82720  0.99720  0.22126  1.0000
  H   H7603     1.0  0.78053  0.23320  0.36562  1.0000
  C   C4303     1.0  0.90213  0.23386  0.43300  1.0000
  H   H7604     1.0  0.89588  0.20739  0.02498  1.0000
  C   C4304     1.0  0.81540  0.22795  0.25739  1.0000
  H   H7605     1.0  0.82453  0.99895  0.19449  1.0000
  S   S967      1.0  0.82960  0.22135  0.47864  1.0000
  C   C4305     1.0  0.98636  0.20945  0.38479  1.0000
  H   H7606     1.0  0.95936  0.23286  0.25273  1.0000
  C   C4306     1.0  0.98441  0.14870  0.22380  1.0000
  H   H7607     1.0  0.97800  0.10174  0.33476  1.0000
  H   H7608     1.0  0.74342  0.06469  0.11534  1.0000
  H   H7609     1.0  0.81973  0.23376  0.38394  1.0000
  H   H7610     1.0  0.99091  0.15822  0.21771  1.0000
  C   C4307     1.0  0.94058  0.23410  0.17494  1.0000
  C   C4308     1.0  0.74130  0.09933  0.16952  1.0000
  H   H7611     1.0  0.74160  0.13557  0.10318  1.0000
  S   S968      1.0  0.97206  0.13589  0.74902  1.0000
  H   H7612     1.0  0.96210  0.23049  0.52120  1.0000
  S   S969      1.0  0.96362  0.15523  0.77743  1.0000
  S   S970      1.0  0.75148  0.02346  0.79428  1.0000
  Fe  Fe485     1.0  0.95840  0.13365  0.77409  1.0000
  S   S971      1.0  0.93360  0.13034  0.78485  1.0000
  Fe  Fe486     1.0  0.97910  0.15597  0.75330  1.0000
  S   S972      1.0  0.97823  0.11708  0.78446  1.0000
  Fe  Fe487     1.0  0.84018  0.14323  0.73985  1.0000
  S   S973      1.0  0.82195  0.13889  0.76191  1.0000
  S   S974      1.0  0.83318  0.16072  0.71870  1.0000
  Fe  Fe488     1.0  0.86668  0.12216  0.75488  1.0000
  S   S975      1.0  0.85064  0.11601  0.77849  1.0000
  S   S976      1.0  0.89282  0.11235  0.74850  1.0000
  Fe  Fe489     1.0  0.83465  0.11369  0.76451  1.0000
  S   S977      1.0  0.82014  0.09509  0.77427  1.0000
  Fe  Fe490     1.0  0.83928  0.14168  0.77387  1.0000
  S   S978      1.0  0.82856  0.15735  0.79113  1.0000
  S   S979      1.0  0.85159  0.11774  0.74124  1.0000
  S   S980      1.0  0.85663  0.14811  0.75147  1.0000
  H   H7613     1.0  0.88704  0.21292  0.48419  1.0000
  C   C4309     1.0  0.84450  0.18783  0.63645  1.0000
  C   C4310     1.0  0.75690  0.99527  0.68467  1.0000
  H   H7614     1.0  0.88935  0.17037  0.80007  1.0000
  H   H7615     1.0  0.84325  0.20781  0.90847  1.0000
  H   H7616     1.0  0.98192  0.22560  0.68363  1.0000
  H   H7617     1.0  0.85484  0.18163  0.53477  1.0000
  H   H7618     1.0  0.75398  0.04962  0.84671  1.0000
  H   H7619     1.0  0.82861  0.18921  0.76749  1.0000
  S   S981      1.0  0.86856  0.16772  0.83326  1.0000
  H   H7620     1.0  0.82533  0.19301  0.73363  1.0000
  H   H7621     1.0  0.75256  0.02045  0.85559  1.0000
  H   H7622     1.0  0.75702  0.09408  0.74931  1.0000
  Fe  Fe491     1.0  0.76587  0.16332  0.68369  1.0000
  C   C4311     1.0  0.74866  0.05408  0.69377  1.0000
  H   H7623     1.0  0.87600  0.14622  0.81239  1.0000
  S   S982      1.0  0.79123  0.18983  0.96835  1.0000
  H   H7624     1.0  0.79417  0.17192  0.68757  1.0000
  C   C4312     1.0  0.76890  0.19492  0.76893  1.0000
  H   H7625     1.0  0.90790  0.19185  0.51506  1.0000
  C   C4313     1.0  0.76554  0.21191  0.58889  1.0000
  H   H7626     1.0  0.91856  0.18516  0.54015  1.0000
  S   S983      1.0  0.76808  0.00479  0.72435  1.0000
  C   C4314     1.0  0.76506  0.06063  0.81332  1.0000
  H   H7627     1.0  0.85949  0.20299  0.77269  1.0000
  S   S984      1.0  0.85961  0.22442  0.55702  1.0000
  C   C4315     1.0  0.80388  0.19566  0.75257  1.0000
  H   H7628     1.0  0.74538  0.05391  0.70653  1.0000
  C   C4316     1.0  0.89152  0.19119  0.77151  1.0000
  S   S985      1.0  0.90195  0.22843  0.82491  1.0000
  H   H7629     1.0  0.93291  0.19055  0.81596  1.0000
  H   H7630     1.0  0.93179  0.18623  0.76315  1.0000
  H   H7631     1.0  0.78443  0.21579  0.82574  1.0000
  Fe  Fe492     1.0  0.77168  0.18920  0.95803  1.0000
  H   H7632     1.0  0.89764  0.18080  0.86236  1.0000
  H   H7633     1.0  0.92064  0.15224  0.80927  1.0000
  H   H7634     1.0  0.75532  0.22836  0.89005  1.0000
  C   C4317     1.0  0.76821  0.09713  0.74186  1.0000
  C   C4318     1.0  0.89568  0.20645  0.49176  1.0000
  C   C4319     1.0  0.89225  0.23029  0.50084  1.0000
  C   C4320     1.0  0.81657  0.08451  0.76243  1.0000
  C   C4321     1.0  0.82495  0.08474  0.74692  1.0000
  C   C4322     1.0  0.82301  0.07470  0.73854  1.0000
  C   C4323     1.0  0.81210  0.06502  0.74533  1.0000
  C   C4324     1.0  0.80340  0.06517  0.76064  1.0000
  C   C4325     1.0  0.80575  0.07475  0.76922  1.0000
  H   H7635     1.0  0.83311  0.09241  0.74149  1.0000
  H   H7636     1.0  0.82998  0.07441  0.72680  1.0000
  H   H7637     1.0  0.79515  0.05759  0.76600  1.0000
  H   H7638     1.0  0.79929  0.07451  0.78122  1.0000
  C   C4326     1.0  0.81957  0.15542  0.71178  1.0000
  C   C4327     1.0  0.81781  0.13988  0.71541  1.0000
  C   C4328     1.0  0.80717  0.13600  0.70914  1.0000
  C   C4329     1.0  0.79826  0.14765  0.69930  1.0000
  C   C4330     1.0  0.85715  0.19358  0.53226  1.0000
  H   H7639     1.0  0.81168  0.17905  0.69955  1.0000
  H   H7640     1.0  0.82466  0.13087  0.72299  1.0000
  H   H7641     1.0  0.80582  0.12401  0.71203  1.0000
  H   H7642     1.0  0.90801  0.19605  0.55521  1.0000
  H   H7643     1.0  0.93856  0.22534  0.90805  1.0000
  C   C4331     1.0  0.84005  0.15950  0.80284  1.0000
  C   C4332     1.0  0.83339  0.17030  0.81254  1.0000
  C   C4333     1.0  0.83295  0.21401  0.90373  1.0000
  H   H7644     1.0  0.98291  0.17630  0.67518  1.0000
  C   C4334     1.0  0.86414  0.15300  0.81241  1.0000
  C   C4335     1.0  0.85546  0.15079  0.80276  1.0000
  H   H7645     1.0  0.82143  0.17689  0.81273  1.0000
  H   H7646     1.0  0.83738  0.20804  0.66772  1.0000
  C   C4336     1.0  0.82154  0.18876  0.74649  1.0000
  H   H7647     1.0  0.86063  0.14235  0.79534  1.0000
  H   H7648     1.0  0.92406  0.16424  0.78191  1.0000
  H   H7649     1.0  0.76736  0.10985  0.74062  1.0000
  Fe  Fe493     1.0  0.97621  0.20525  0.85666  1.0000
  C   C4337     1.0  0.78142  0.17015  0.74250  1.0000
  C   C4338     1.0  0.92255  0.12571  0.77416  1.0000
  C   C4339     1.0  0.90618  0.12788  0.77958  1.0000
  C   C4340     1.0  0.89696  0.12441  0.77138  1.0000
  C   C4341     1.0  0.90412  0.11807  0.75807  1.0000
  C   C4342     1.0  0.92051  0.11576  0.75268  1.0000
  C   C4343     1.0  0.92971  0.11979  0.76058  1.0000
  H   H7650     1.0  0.90053  0.13224  0.79017  1.0000
  H   H7651     1.0  0.88433  0.12623  0.77562  1.0000
  H   H7652     1.0  0.92610  0.11085  0.74238  1.0000
  H   H7653     1.0  0.94233  0.11801  0.75637  1.0000
  H   H7654     1.0  0.94095  0.20689  0.77022  1.0000
  H   H7655     1.0  0.75854  0.21420  0.57989  1.0000
  C   C4344     1.0  0.82260  0.17591  0.65268  1.0000
  C   C4345     1.0  0.94303  0.21320  0.83885  1.0000
  S   S986      1.0  0.76564  0.05609  0.75785  1.0000
  H   H7656     1.0  0.89244  0.21511  0.53708  1.0000
  C   C4346     1.0  0.81336  0.20797  0.60702  1.0000
  H   H7657     1.0  0.77116  0.19923  0.59145  1.0000
  H   H7658     1.0  0.90482  0.14405  0.80882  1.0000
  H   H7659     1.0  0.88992  0.19569  0.53979  1.0000
  H   H7660     1.0  0.96232  0.20562  0.65325  1.0000
  C   C4347     1.0  0.91611  0.21821  0.83606  1.0000
  C   C4348     1.0  0.83235  0.15881  0.65327  1.0000
  H   H7661     1.0  0.85683  0.19724  0.66014  1.0000
  H   H7662     1.0  0.76093  0.07262  0.69017  1.0000
  H   H7663     1.0  0.92323  0.19045  0.78939  1.0000
  C   C4349     1.0  0.91213  0.20924  0.85124  1.0000
  C   C4350     1.0  0.92848  0.21210  0.77501  1.0000
  H   H7664     1.0  0.77107  0.06935  0.81430  1.0000
  H   H7665     1.0  0.92797  0.21664  0.78538  1.0000
  H   H7666     1.0  0.81287  0.18337  0.61348  1.0000
  C   C4351     1.0  0.93902  0.20486  0.85428  1.0000
  C   C4352     1.0  0.80079  0.22062  0.70350  1.0000
  S   S987      1.0  0.77471  0.20988  0.93810  1.0000
  S   S988      1.0  0.98522  0.21744  0.86969  1.0000
  C   C4353     1.0  0.75231  0.07013  0.68506  1.0000
  C   C4354     1.0  0.91934  0.19262  0.76602  1.0000
  H   H7667     1.0  0.76075  0.10013  0.72058  1.0000
  C   C4355     1.0  0.83849  0.18391  0.66564  1.0000
  H   H7668     1.0  0.94883  0.10928  0.84077  1.0000
  H   H7669     1.0  0.92395  0.22212  0.76597  1.0000
  Fe  Fe494     1.0  0.86407  0.19359  0.83244  1.0000
  S   S989      1.0  0.75328  0.20312  0.97398  1.0000
  C   C4356     1.0  0.90375  0.20431  0.51628  1.0000
  H   H7670     1.0  0.91753  0.20243  0.75565  1.0000
  H   H7671     1.0  0.98701  0.21062  0.70025  1.0000
  S   S990      1.0  0.75954  0.17003  0.65995  1.0000
  S   S991      1.0  0.76977  0.16599  0.95540  1.0000
  C   C4357     1.0  0.77099  0.09335  0.72576  1.0000
  C   C4358     1.0  0.81062  0.16699  0.70209  1.0000
  H   H7672     1.0  0.80240  0.20847  0.75150  1.0000
  Fe  Fe495     1.0  0.79330  0.21151  0.94917  1.0000
  C   C4359     1.0  0.87519  0.21169  0.51477  1.0000
  Fe  Fe496     1.0  0.84136  0.22647  0.57942  1.0000
  H   H7673     1.0  0.85870  0.19561  0.54323  1.0000
  C   C4360     1.0  0.79018  0.21574  0.83510  1.0000
  C   C4361     1.0  0.77613  0.20143  0.75145  1.0000
  H   H7674     1.0  0.78432  0.05254  0.79504  1.0000
  Fe  Fe497     1.0  0.78712  0.04370  0.74306  1.0000
  H   H7675     1.0  0.88832  0.19523  0.78267  1.0000
  H   H7676     1.0  0.88952  0.16353  0.87061  1.0000
  H   H7677     1.0  0.82396  0.17574  0.74917  1.0000
  H   H7678     1.0  0.96809  0.23331  0.78371  1.0000
  S   S992      1.0  0.89918  0.23004  0.56174  1.0000
  H   H7679     1.0  0.90186  0.15581  0.82281  1.0000
  C   C4362     1.0  0.92943  0.15927  0.73481  1.0000
  H   H7680     1.0  0.93641  0.17594  0.74268  1.0000
  C   C4363     1.0  0.76476  0.12163  0.66747  1.0000
  H   H7681     1.0  0.78768  0.18668  0.63337  1.0000
  H   H7682     1.0  0.92248  0.17928  0.84174  1.0000
  H   H7683     1.0  0.97230  0.22229  0.80250  1.0000
  N   N241      1.0  0.79241  0.19272  0.74495  1.0000
  H   H7684     1.0  0.76427  0.13593  0.97744  1.0000
  H   H7685     1.0  0.93317  0.15847  0.75739  1.0000
  H   H7686     1.0  0.79725  0.19883  0.66307  1.0000
  H   H7687     1.0  0.88120  0.17009  0.77833  1.0000
  C   C4364     1.0  0.86242  0.19062  0.77919  1.0000
  S   S993      1.0  0.77489  0.04506  0.72417  1.0000
  H   H7688     1.0  0.92548  0.16794  0.72456  1.0000
  H   H7689     1.0  0.76585  0.04867  0.79521  1.0000
  C   C4365     1.0  0.90773  0.15443  0.81065  1.0000
  H   H7690     1.0  0.92197  0.15041  0.73926  1.0000
  H   H7691     1.0  0.77469  0.22991  0.87858  1.0000
  H   H7692     1.0  0.83667  0.18070  0.82965  1.0000
  H   H7693     1.0  0.96968  0.22290  0.64174  1.0000
  C   C4366     1.0  0.77884  0.22080  0.58171  1.0000
  H   H7694     1.0  0.87871  0.18243  0.75954  1.0000
  H   H7695     1.0  0.78133  0.21641  0.84623  1.0000
  S   S994      1.0  0.81735  0.21364  0.93435  1.0000
  C   C4367     1.0  0.74151  0.18066  0.92393  1.0000
  C   C4368     1.0  0.81602  0.21515  0.78977  1.0000
  H   H7696     1.0  0.76717  0.18286  0.77069  1.0000
  H   H7697     1.0  0.76782  0.99528  0.68802  1.0000
  H   H7698     1.0  0.84437  0.18808  0.75036  1.0000
  C   C4369     1.0  0.74699  0.06705  0.81639  1.0000
  H   H7699     1.0  0.90355  0.17939  0.80223  1.0000
  S   S995      1.0  0.78497  0.14285  0.69131  1.0000
  H   H7700     1.0  0.81694  0.15140  0.64331  1.0000
  H   H7701     1.0  0.78387  0.17296  0.72946  1.0000
  H   H7702     1.0  0.85359  0.18441  0.77882  1.0000
  H   H7703     1.0  0.83033  0.20643  0.75180  1.0000
  H   H7704     1.0  0.85473  0.17807  0.63880  1.0000
  N   N242      1.0  0.79602  0.18231  0.89346  1.0000
  C   C4370     1.0  0.81088  0.17552  0.88279  1.0000
  C   C4371     1.0  0.78488  0.17134  0.89784  1.0000
  C   C4372     1.0  0.78903  0.19839  0.88485  1.0000
  C   C4373     1.0  0.79930  0.18388  0.90833  1.0000
  C   C4374     1.0  0.80843  0.16877  0.91772  1.0000
  C   C4375     1.0  0.82479  0.18383  0.87880  1.0000
  C   C4376     1.0  0.77321  0.20694  0.89386  1.0000
  C   C4377     1.0  0.77753  0.17083  0.88445  1.0000
  C   C4378     1.0  0.76863  0.15757  0.88947  1.0000
  C   C4379     1.0  0.81187  0.17212  0.93190  1.0000
  C   C4380     1.0  0.83944  0.17481  0.86927  1.0000
  H   H7705     1.0  0.80852  0.17579  0.87131  1.0000
  H   H7706     1.0  0.81513  0.16283  0.88778  1.0000
  H   H7707     1.0  0.79097  0.15911  0.90238  1.0000
  H   H7708     1.0  0.77506  0.17420  0.90782  1.0000
  H   H7709     1.0  0.78745  0.19783  0.87328  1.0000
  H   H7710     1.0  0.79731  0.20635  0.88194  1.0000
  H   H7711     1.0  0.80565  0.19351  0.90584  1.0000
  H   H7712     1.0  0.78806  0.18748  0.91662  1.0000
  H   H7713     1.0  0.81988  0.16399  0.91048  1.0000
  H   H7714     1.0  0.80137  0.15958  0.92217  1.0000
  H   H7715     1.0  0.82189  0.19588  0.87162  1.0000
  H   H7716     1.0  0.82793  0.18461  0.88950  1.0000
  H   H7717     1.0  0.77509  0.21026  0.90400  1.0000
  H   H7718     1.0  0.76435  0.19953  0.89832  1.0000
  H   H7719     1.0  0.76904  0.18202  0.88133  1.0000
  H   H7720     1.0  0.78662  0.16887  0.87373  1.0000
  H   H7721     1.0  0.76295  0.15784  0.87996  1.0000
  H   H7722     1.0  0.77678  0.14596  0.89187  1.0000
  H   H7723     1.0  0.75931  0.15895  0.90019  1.0000
  H   H7724     1.0  0.81937  0.18092  0.92807  1.0000
  H   H7725     1.0  0.80074  0.17662  0.93977  1.0000
  H   H7726     1.0  0.81814  0.16113  0.93866  1.0000
  H   H7727     1.0  0.84300  0.16261  0.87592  1.0000
  H   H7728     1.0  0.83727  0.17445  0.85792  1.0000
  H   H7729     1.0  0.84936  0.18069  0.86674  1.0000
  C   C4381     1.0  0.79336  0.17528  0.74844  1.0000
  C   C4382     1.0  0.84209  0.17262  0.82198  1.0000
  C   C4383     1.0  0.78258  0.15243  0.74789  1.0000
  H   H7730     1.0  0.80137  0.19061  0.76544  1.0000
  H   H7731     1.0  0.79229  0.17017  0.76127  1.0000
  H   H7732     1.0  0.80517  0.16921  0.74284  1.0000
  C   C4384     1.0  0.83181  0.19345  0.75453  1.0000
  H   H7733     1.0  0.75737  0.07029  0.67239  1.0000
  H   H7734     1.0  0.75071  0.99159  0.78461  1.0000
  H   H7735     1.0  0.77426  0.14900  0.74313  1.0000
  H   H7736     1.0  0.79466  0.14596  0.74351  1.0000
  H   H7737     1.0  0.77958  0.14896  0.76093  1.0000
  H   H7738     1.0  0.94196  0.22930  0.53050  1.0000
  C   C4385     1.0  0.80643  0.23021  0.89143  1.0000
  H   H7739     1.0  0.74436  0.99297  0.80471  1.0000
  H   H7740     1.0  0.75830  0.99929  0.67172  1.0000
  H   H7741     1.0  0.98577  0.21798  0.78475  1.0000
  Fe  Fe498     1.0  0.87935  0.22043  0.82965  1.0000
  H   H7742     1.0  0.77133  0.08066  0.72769  1.0000
  C   C4386     1.0  0.84547  0.19634  0.66858  1.0000
  H   H7743     1.0  0.82954  0.18055  0.67630  1.0000
  C   C4387     1.0  0.87192  0.19491  0.51922  1.0000
  H   H7744     1.0  0.82050  0.21981  0.51200  1.0000
  C   C4388     1.0  0.74494  0.02291  0.68901  1.0000
  H   H7745     1.0  0.75886  0.13162  0.67336  1.0000
  H   H7746     1.0  0.83780  0.19118  0.69417  1.0000
  H   H7747     1.0  0.95221  0.21465  0.89383  1.0000
  C   C4389     1.0  0.80544  0.22292  0.60960  1.0000
  H   H7748     1.0  0.77529  0.98783  0.75466  1.0000
  S   S996      1.0  0.74652  0.03277  0.75186  1.0000
  H   H7749     1.0  0.75832  0.07442  0.83837  1.0000
  H   H7750     1.0  0.82611  0.21363  0.64816  1.0000
  C   C4390     1.0  0.74664  0.98483  0.79670  1.0000
  H   H7751     1.0  0.84193  0.21189  0.62218  1.0000
  H   H7752     1.0  0.92061  0.20505  0.53799  1.0000
  H   H7753     1.0  0.94177  0.15310  0.73089  1.0000
  S   S997      1.0  0.80969  0.05266  0.73459  1.0000
  C   C4391     1.0  0.75176  0.15312  0.94496  1.0000
  H   H7754     1.0  0.74468  0.20605  0.76685  1.0000
  H   H7755     1.0  0.85455  0.20020  0.68673  1.0000
  S   S998      1.0  0.76662  0.21468  0.64299  1.0000
  H   H7756     1.0  0.76912  0.17604  0.74686  1.0000
  C   C4392     1.0  0.89835  0.20353  0.53427  1.0000
  Fe  Fe499     1.0  0.76101  0.03192  0.76859  1.0000
  H   H7757     1.0  0.81179  0.21311  0.69814  1.0000
  C   C4393     1.0  0.79108  0.22480  0.62065  1.0000
  H   H7758     1.0  0.87074  0.21071  0.61130  1.0000
  C   C4394     1.0  0.79623  0.19857  0.72736  1.0000
  C   C4395     1.0  0.80026  0.16305  0.69567  1.0000
  H   H7759     1.0  0.75538  0.02221  0.69359  1.0000
  C   C4396     1.0  0.75510  0.21723  0.60402  1.0000
  H   H7760     1.0  0.76321  0.21934  0.87336  1.0000
  H   H7761     1.0  0.74875  0.02648  0.67603  1.0000
  N   N243      1.0  0.87117  0.06478  0.76579  1.0000
  C   C4397     1.0  0.87755  0.07703  0.76900  1.0000
  C   C4398     1.0  0.86577  0.07121  0.75046  1.0000
  C   C4399     1.0  0.85678  0.06221  0.77864  1.0000
  C   C4400     1.0  0.88287  0.04924  0.76561  1.0000
  C   C4401     1.0  0.90061  0.04976  0.76001  1.0000
  C   C4402     1.0  0.88050  0.07374  0.78581  1.0000
  C   C4403     1.0  0.84720  0.05134  0.77665  1.0000
  C   C4404     1.0  0.87831  0.07573  0.73553  1.0000
  C   C4405     1.0  0.87094  0.08259  0.72111  1.0000
  C   C4406     1.0  0.91073  0.03374  0.75748  1.0000
  C   C4407     1.0  0.89063  0.08425  0.78679  1.0000
  C   C4408     1.0  0.83436  0.04793  0.79133  1.0000
  H   H7762     1.0  0.86928  0.08867  0.76712  1.0000
  H   H7763     1.0  0.88859  0.07899  0.76041  1.0000
  H   H7764     1.0  0.86081  0.06255  0.74781  1.0000
  H   H7765     1.0  0.85608  0.08180  0.75150  1.0000
  H   H7766     1.0  0.84856  0.07369  0.77993  1.0000
  H   H7767     1.0  0.86011  0.05693  0.79021  1.0000
  H   H7768     1.0  0.88171  0.04148  0.77761  1.0000
  H   H7769     1.0  0.88014  0.04270  0.75829  1.0000
  H   H7770     1.0  0.90465  0.05294  0.76899  1.0000
  H   H7771     1.0  0.90313  0.05849  0.74893  1.0000
  H   H7772     1.0  0.86911  0.07624  0.79430  1.0000
  H   H7773     1.0  0.88633  0.06130  0.78969  1.0000
  H   H7774     1.0  0.85492  0.03998  0.77442  1.0000
  H   H7775     1.0  0.84117  0.05702  0.76675  1.0000
  H   H7776     1.0  0.88396  0.08464  0.73668  1.0000
  H   H7777     1.0  0.88735  0.06514  0.73305  1.0000
  H   H7778     1.0  0.86563  0.07387  0.71904  1.0000
  H   H7779     1.0  0.86171  0.09334  0.72267  1.0000
  H   H7780     1.0  0.88015  0.08578  0.71056  1.0000
  H   H7781     1.0  0.90902  0.02463  0.76851  1.0000
  H   H7782     1.0  0.90769  0.03029  0.74803  1.0000
  H   H7783     1.0  0.92335  0.03435  0.75391  1.0000
  H   H7784     1.0  0.88447  0.09676  0.78409  1.0000
  H   H7785     1.0  0.89273  0.08144  0.79886  1.0000
  H   H7786     1.0  0.90218  0.08253  0.77838  1.0000
  H   H7787     1.0  0.83961  0.04135  0.80162  1.0000
  H   H7788     1.0  0.82637  0.05908  0.79395  1.0000
  H   H7789     1.0  0.82725  0.04076  0.78930  1.0000
  C   C4409     1.0  0.92851  0.16750  0.74775  1.0000
  S   S999      1.0  0.78948  0.22341  0.77784  1.0000
  C   C4410     1.0  0.82022  0.20393  0.64975  1.0000
  C   C4411     1.0  0.89676  0.16975  0.85998  1.0000
  S   S1000     1.0  0.86672  0.20497  0.85049  1.0000
  H   H7790     1.0  0.82913  0.13559  0.65458  1.0000
  H   H7791     1.0  0.93474  0.22689  0.81806  1.0000
  S   S1001     1.0  0.98145  0.17872  0.73593  1.0000
  H   H7792     1.0  0.77087  0.11610  0.69659  1.0000
  C   C4412     1.0  0.81850  0.21825  0.91395  1.0000
  C   C4413     1.0  0.75155  0.18059  0.93336  1.0000
  S   S1002     1.0  0.98121  0.22225  0.83373  1.0000
  S   S1003     1.0  0.76598  0.18777  0.68426  1.0000
  H   H7793     1.0  0.96375  0.10876  0.82289  1.0000
  H   H7794     1.0  0.94747  0.18764  0.82713  1.0000
  H   H7795     1.0  0.75273  0.18685  0.60625  1.0000
  H   H7796     1.0  0.89072  0.17261  0.85009  1.0000
  C   C4414     1.0  0.79784  0.21592  0.72143  1.0000
  H   H7797     1.0  0.95887  0.22694  0.90207  1.0000
  H   H7798     1.0  0.75580  0.14234  0.95292  1.0000
  C   C4415     1.0  0.85072  0.20309  0.62842  1.0000
  H   H7799     1.0  0.86994  0.19213  0.50881  1.0000
  C   C4416     1.0  0.90211  0.16918  0.79882  1.0000
  H   H7800     1.0  0.90522  0.22851  0.87765  1.0000
  N   N244      1.0  0.90828  0.18190  0.76868  1.0000
  H   H7801     1.0  0.96865  0.18645  0.80361  1.0000
  H   H7802     1.0  0.90831  0.15756  0.77984  1.0000
  H   H7803     1.0  0.90380  0.16782  0.75524  1.0000
  H   H7804     1.0  0.95366  0.20391  0.79989  1.0000
  H   H7805     1.0  0.89016  0.20222  0.76227  1.0000
  H   H7806     1.0  0.80800  0.19902  0.84701  1.0000
  Fe  Fe500     1.0  0.76931  0.02187  0.73774  1.0000
  C   C4417     1.0  0.76810  0.98531  0.73492  1.0000
  H   H7807     1.0  0.75542  0.19113  0.93233  1.0000
  H   H7808     1.0  0.90012  0.20796  0.85614  1.0000
  H   H7809     1.0  0.95501  0.18727  0.79194  1.0000
  C   C4418     1.0  0.91127  0.16782  0.78187  1.0000
  C   C4419     1.0  0.82859  0.22763  0.50699  1.0000
  C   C4420     1.0  0.76624  0.22205  0.88325  1.0000
  S   S1004     1.0  0.84128  0.20981  0.82851  1.0000
  C   C4421     1.0  0.83410  0.21778  0.88738  1.0000
  C   C4422     1.0  0.98783  0.20245  0.64859  1.0000
  H   H7810     1.0  0.90810  0.18619  0.74394  1.0000
  H   H7811     1.0  0.85692  0.17977  0.68684  1.0000
  N   N245      1.0  0.79002  0.09546  0.69830  1.0000
  C   C4423     1.0  0.80505  0.10093  0.68971  1.0000
  C   C4424     1.0  0.77633  0.10572  0.69109  1.0000
  C   C4425     1.0  0.78665  0.09729  0.71507  1.0000
  C   C4426     1.0  0.79150  0.07839  0.69869  1.0000
  C   C4427     1.0  0.79745  0.07331  0.68274  1.0000
  C   C4428     1.0  0.81979  0.09239  0.69665  1.0000
  C   C4429     1.0  0.87885  0.18248  0.77175  1.0000
  C   C4430     1.0  0.77989  0.11286  0.67313  1.0000
  C   C4431     1.0  0.79952  0.05557  0.68501  1.0000
  C   C4432     1.0  0.83453  0.09760  0.68584  1.0000
  C   C4433     1.0  0.97200  0.20989  0.64389  1.0000
  H   H7812     1.0  0.80336  0.11360  0.68941  1.0000
  H   H7813     1.0  0.80810  0.10015  0.67720  1.0000
  H   H7814     1.0  0.76675  0.09927  0.69373  1.0000
  H   H7815     1.0  0.78660  0.10956  0.71520  1.0000
  H   H7816     1.0  0.79599  0.08949  0.72120  1.0000
  H   H7817     1.0  0.79931  0.07075  0.70665  1.0000
  H   H7818     1.0  0.77992  0.07511  0.70395  1.0000
  H   H7819     1.0  0.80903  0.07615  0.67652  1.0000
  H   H7820     1.0  0.78877  0.07898  0.67523  1.0000
  H   H7821     1.0  0.81847  0.09543  0.70805  1.0000
  H   H7822     1.0  0.82179  0.07946  0.69841  1.0000
  C   C4434     1.0  0.75682  0.16673  0.94377  1.0000
  H   H7823     1.0  0.75413  0.21715  0.77389  1.0000
  H   H7824     1.0  0.78739  0.12153  0.67038  1.0000
  H   H7825     1.0  0.78607  0.10384  0.66617  1.0000
  H   H7826     1.0  0.78689  0.19751  0.72214  1.0000
  H   H7827     1.0  0.80454  0.05212  0.67350  1.0000
  H   H7828     1.0  0.80765  0.04906  0.69303  1.0000
  H   H7829     1.0  0.78801  0.05211  0.68994  1.0000
  H   H7830     1.0  0.83690  0.09445  0.67428  1.0000
  H   H7831     1.0  0.83311  0.11050  0.68406  1.0000
  H   H7832     1.0  0.84481  0.09161  0.69131  1.0000
  C   C4435     1.0  0.77144  0.05741  0.79681  1.0000
  C   C4436     1.0  0.91137  0.17620  0.75369  1.0000
  N   N246      1.0  0.94012  0.15859  0.83644  1.0000
  C   C4437     1.0  0.94714  0.16650  0.81999  1.0000
  C   C4438     1.0  0.94000  0.14183  0.83678  1.0000
  C   C4439     1.0  0.92316  0.16719  0.84060  1.0000
  C   C4440     1.0  0.94846  0.15914  0.84859  1.0000
  C   C4441     1.0  0.96645  0.15818  0.84342  1.0000
  C   C4442     1.0  0.94513  0.18452  0.81716  1.0000
  C   C4443     1.0  0.91309  0.15931  0.85608  1.0000
  C   C4444     1.0  0.95519  0.13179  0.82852  1.0000
  C   C4445     1.0  0.95259  0.11583  0.82856  1.0000
  C   C4446     1.0  0.97364  0.15580  0.85754  1.0000
  C   C4447     1.0  0.95631  0.19088  0.80218  1.0000
  N   N247      1.0  0.89179  0.21307  0.50633  1.0000
  H   H7833     1.0  0.94176  0.16435  0.81131  1.0000
  H   H7834     1.0  0.95990  0.16132  0.81661  1.0000
  H   H7835     1.0  0.93708  0.13511  0.84911  1.0000
  H   H7836     1.0  0.93049  0.14173  0.83127  1.0000
  H   H7837     1.0  0.91709  0.16880  0.83094  1.0000
  C   C4448     1.0  0.85753  0.16415  0.82184  1.0000
  H   H7838     1.0  0.94347  0.17024  0.85294  1.0000
  H   H7839     1.0  0.94632  0.14967  0.85925  1.0000
  H   H7840     1.0  0.96894  0.16925  0.83520  1.0000
  H   H7841     1.0  0.97263  0.14843  0.83743  1.0000
  C   C4449     1.0  0.74814  0.22210  0.70092  1.0000
  H   H7842     1.0  0.80723  0.19105  0.72194  1.0000
  H   H7843     1.0  0.91881  0.15696  0.86610  1.0000
  H   H7844     1.0  0.91133  0.14805  0.85496  1.0000
  H   H7845     1.0  0.95893  0.13749  0.81601  1.0000
  H   H7846     1.0  0.96481  0.12946  0.83472  1.0000
  H   H7847     1.0  0.94355  0.11735  0.82177  1.0000
  H   H7848     1.0  0.84528  0.21453  0.87958  1.0000
  H   H7849     1.0  0.97213  0.20667  0.63288  1.0000
  S   S1005     1.0  0.78364  0.01921  0.75539  1.0000
  C   C4450     1.0  0.93159  0.22008  0.82986  1.0000
  C   C4451     1.0  0.82200  0.14777  0.65395  1.0000
  H   H7850     1.0  0.81227  0.14783  0.66456  1.0000
  C   C4452     1.0  0.80682  0.19494  0.61553  1.0000
  C   C4453     1.0  0.79259  0.19678  0.62679  1.0000
  H   H7851     1.0  0.75968  0.04514  0.69153  1.0000
  H   H7852     1.0  0.79526  0.19021  0.84152  1.0000
  H   H7853     1.0  0.83645  0.20945  0.79963  1.0000
  H   H7854     1.0  0.80781  0.21781  0.72503  1.0000
  H   H7855     1.0  0.81647  0.17916  0.64280  1.0000
  H   H7856     1.0  0.81319  0.17536  0.66354  1.0000
  H   H7857     1.0  0.83741  0.15436  0.66392  1.0000
  H   H7858     1.0  0.77617  0.21392  0.75052  1.0000
  H   H7859     1.0  0.89460  0.19399  0.49500  1.0000
  C   C4454     1.0  0.80170  0.19987  0.83778  1.0000
  H   H7860     1.0  0.81188  0.20469  0.79666  1.0000
  H   H7861     1.0  0.74146  0.05972  0.81238  1.0000
  H   H7862     1.0  0.86402  0.19598  0.60655  1.0000
  C   C4455     1.0  0.74787  0.19203  0.61684  1.0000
  S   S1006     1.0  0.87871  0.20743  0.81225  1.0000
  H   H7863     1.0  0.85290  0.20852  0.63689  1.0000
  C   C4456     1.0  0.92359  0.20262  0.86039  1.0000
  H   H7864     1.0  0.92040  0.19610  0.87232  1.0000
  N   N248      1.0  0.83163  0.18818  0.65122  1.0000
  H   H7865     1.0  0.77391  0.98732  0.80331  1.0000
  Fe  Fe501     1.0  0.75324  0.05577  0.73979  1.0000
  H   H7866     1.0  0.75759  0.08997  0.85750  1.0000
  H   H7867     1.0  0.76923  0.06842  0.78778  1.0000
  H   H7868     1.0  0.87514  0.19070  0.62180  1.0000
  Fe  Fe502     1.0  0.75817  0.22403  0.95518  1.0000
  H   H7869     1.0  0.86170  0.19039  0.79169  1.0000
  H   H7870     1.0  0.95494  0.21435  0.83374  1.0000
  C   C4457     1.0  0.91251  0.20634  0.48134  1.0000
  C   C4458     1.0  0.91845  0.19977  0.77999  1.0000
  H   H7871     1.0  0.86678  0.21916  0.50734  1.0000
  H   H7872     1.0  0.97719  0.20750  0.67182  1.0000
  Fe  Fe503     1.0  0.85614  0.22452  0.80963  1.0000
  Fe  Fe504     1.0  0.75793  0.19472  0.66166  1.0000
  H   H7873     1.0  0.81048  0.19837  0.82671  1.0000
  H   H7874     1.0  0.90629  0.20559  0.78481  1.0000
  H   H7875     1.0  0.76774  0.20194  0.74427  1.0000
  C   C4459     1.0  0.80561  0.20555  0.66353  1.0000
  Fe  Fe505     1.0  0.98461  0.13879  0.78569  1.0000
  H   H7876     1.0  0.81576  0.20659  0.63881  1.0000
  N   N249      1.0  0.74133  0.20950  0.61218  1.0000
  S   S1007     1.0  0.95290  0.19772  0.86629  1.0000
  C   C4460     1.0  0.75285  0.20520  0.77436  1.0000
  H   H7877     1.0  0.76757  0.12643  0.65459  1.0000
  H   H7878     1.0  0.74288  0.21944  0.93446  1.0000
  H   H7879     1.0  0.84678  0.20228  0.52860  1.0000
  H   H7880     1.0  0.78652  0.21848  0.59013  1.0000
  C   C4461     1.0  0.78474  0.21173  0.62942  1.0000
  S   S1008     1.0  0.83155  0.20511  0.59357  1.0000
  H   H7881     1.0  0.76842  0.04952  0.82177  1.0000
  S   S1009     1.0  0.82181  0.23126  0.86086  1.0000
  H   H7882     1.0  0.76289  0.21509  0.61230  1.0000
  H   H7883     1.0  0.77653  0.19459  0.77675  1.0000
  H   H7884     1.0  0.80896  0.20119  0.67509  1.0000
  H   H7885     1.0  0.90396  0.23192  0.49354  1.0000
  H   H7886     1.0  0.84205  0.15803  0.64271  1.0000
  C   C4462     1.0  0.97764  0.22759  0.79025  1.0000
  H   H7887     1.0  0.98901  0.22045  0.65870  1.0000
  H   H7888     1.0  0.74506  0.07874  0.80823  1.0000
  H   H7889     1.0  0.91445  0.20939  0.51184  1.0000
  H   H7890     1.0  0.88193  0.18586  0.52315  1.0000
  H   H7891     1.0  0.98709  0.18954  0.69288  1.0000
  H   H7892     1.0  0.84807  0.17316  0.66543  1.0000
  H   H7893     1.0  0.84036  0.18521  0.62712  1.0000
  H   H7894     1.0  0.75661  0.11363  0.66997  1.0000
  H   H7895     1.0  0.77795  0.09020  0.74783  1.0000
  S   S1010     1.0  0.77706  0.22788  0.96432  1.0000
  Fe  Fe506     1.0  0.84470  0.22235  0.84495  1.0000
  H   H7896     1.0  0.97262  0.14422  0.86554  1.0000
  H   H7897     1.0  0.77405  0.23365  0.57853  1.0000
  C   C4463     1.0  0.91230  0.19701  0.54232  1.0000
  C   C4464     1.0  0.86608  0.19985  0.61629  1.0000
  C   C4465     1.0  0.84889  0.19154  0.68507  1.0000
  H   H7898     1.0  0.87153  0.21643  0.52555  1.0000
  H   H7899     1.0  0.96768  0.16522  0.86415  1.0000
  H   H7900     1.0  0.98629  0.15619  0.85346  1.0000
  H   H7901     1.0  0.74849  0.03578  0.82910  1.0000
  H   H7902     1.0  0.82680  0.23338  0.52918  1.0000
  C   C4466     1.0  0.80523  0.22631  0.90775  1.0000
  H   H7903     1.0  0.98326  0.16167  0.70309  1.0000
  H   H7904     1.0  0.74784  0.21861  0.69055  1.0000
  C   C4467     1.0  0.82085  0.22599  0.88122  1.0000
  C   C4468     1.0  0.82987  0.21792  0.79153  1.0000
  H   H7905     1.0  0.74771  0.20000  0.78670  1.0000
  H   H7906     1.0  0.75794  0.18982  0.62261  1.0000
  H   H7907     1.0  0.93108  0.22948  0.56196  1.0000
  H   H7908     1.0  0.79415  0.22998  0.91550  1.0000
  H   H7909     1.0  0.93433  0.22679  0.87511  1.0000
  C   C4469     1.0  0.94883  0.22582  0.89797  1.0000
  H   H7910     1.0  0.78584  0.22325  0.67197  1.0000
  H   H7911     1.0  0.74489  0.10667  0.84752  1.0000
  H   H7912     1.0  0.75432  0.16088  0.63298  1.0000
  C   C4470     1.0  0.74190  0.05278  0.84448  1.0000
  H   H7913     1.0  0.98955  0.18956  0.65058  1.0000
  H   H7914     1.0  0.80690  0.22755  0.81833  1.0000
  C   C4471     1.0  0.80750  0.22599  0.77918  1.0000
  H   H7915     1.0  0.78692  0.22396  0.72608  1.0000
  H   H7916     1.0  0.80677  0.22740  0.83804  1.0000
  C   C4472     1.0  0.79898  0.22934  0.82977  1.0000
  H   H7917     1.0  0.92162  0.19962  0.48817  1.0000
  C   C4473     1.0  0.83515  0.23031  0.49076  1.0000
  H   H7918     1.0  0.74647  0.09051  0.82806  1.0000
  C   C4474     1.0  0.98863  0.20776  0.66319  1.0000
  C   C4475     1.0  0.74519  0.09568  0.85679  1.0000
  H   H7919     1.0  0.79320  0.22766  0.65107  1.0000
  C   C4476     1.0  0.74586  0.07969  0.83749  1.0000
  C   C4477     1.0  0.74114  0.15341  0.93615  1.0000
  H   H7920     1.0  0.79074  0.21951  0.69940  1.0000
  H   H7921     1.0  0.78618  0.21682  0.57091  1.0000
  C   C4478     1.0  0.79672  0.22265  0.66255  1.0000
  H   H7922     1.0  0.98891  0.14898  0.68934  1.0000
  H   H7923     1.0  0.74183  0.00094  0.70590  1.0000
  C   C4479     1.0  0.74271  0.00583  0.69313  1.0000
  C   C4480     1.0  0.74293  0.16452  0.62924  1.0000
  H   H7924     1.0  0.74470  0.16158  0.61767  1.0000
  H   H7925     1.0  0.74153  0.07959  0.68622  1.0000
  H   H7926     1.0  0.80408  0.22984  0.66411  1.0000
  C   C4481     1.0  0.83527  0.23143  0.78258  1.0000
  H   H7927     1.0  0.75128  0.23018  0.60080  1.0000
  C   C4482     1.0  0.74841  0.23176  0.72759  1.0000
  H   H7928     1.0  0.81036  0.23303  0.60308  1.0000
  H   H7929     1.0  0.80190  0.23306  0.69950  1.0000
  Fe  Fe507     1.0  0.86582  0.43953  0.43950  1.0000
  S   S1011     1.0  0.87562  0.45771  0.41968  1.0000
  S   S1012     1.0  0.85195  0.42310  0.43743  1.0000
  H   H7930     1.0  0.95225  0.44875  0.41718  1.0000
  Fe  Fe508     1.0  0.89641  0.45063  0.43076  1.0000
  S   S1013     1.0  0.92092  0.44837  0.41583  1.0000
  H   H7931     1.0  0.95132  0.24088  0.27010  1.0000
  H   H7932     1.0  0.75643  0.25500  0.39480  1.0000
  H   H7933     1.0  0.89958  0.40984  0.39189  1.0000
  H   H7934     1.0  0.85081  0.29258  0.46678  1.0000
  H   H7935     1.0  0.93953  0.46085  0.46649  1.0000
  C   C4483     1.0  0.97688  0.43074  0.43745  1.0000
  S   S1014     1.0  0.84779  0.27082  0.19884  1.0000
  S   S1015     1.0  0.87519  0.24649  0.16853  1.0000
  Fe  Fe509     1.0  0.82059  0.27897  0.27929  1.0000
  S   S1016     1.0  0.83528  0.25645  0.27273  1.0000
  S   S1017     1.0  0.81706  0.28442  0.30276  1.0000
  C   C4484     1.0  0.91354  0.26870  0.39333  1.0000
  H   H7936     1.0  0.85789  0.36807  0.31680  1.0000
  C   C4485     1.0  0.91873  0.36375  0.38376  1.0000
  H   H7937     1.0  0.79939  0.24781  0.47318  1.0000
  S   S1018     1.0  0.85115  0.24634  0.44044  1.0000
  C   C4486     1.0  0.82131  0.30714  0.44578  1.0000
  C   C4487     1.0  0.92456  0.37302  0.40486  1.0000
  Fe  Fe510     1.0  0.88210  0.35676  0.35304  1.0000
  S   S1019     1.0  0.87888  0.36127  0.37682  1.0000
  S   S1020     1.0  0.90640  0.35182  0.33814  1.0000
  Fe  Fe511     1.0  0.84729  0.35916  0.35629  1.0000
  S   S1021     1.0  0.84083  0.36433  0.38057  1.0000
  S   S1022     1.0  0.82900  0.35829  0.34392  1.0000
  Fe  Fe512     1.0  0.85819  0.38011  0.37087  1.0000
  S   S1023     1.0  0.85683  0.40448  0.37373  1.0000
  Fe  Fe513     1.0  0.86211  0.34521  0.38451  1.0000
  S   S1024     1.0  0.86435  0.32581  0.40579  1.0000
  S   S1025     1.0  0.86263  0.37679  0.34620  1.0000
  S   S1026     1.0  0.86725  0.33886  0.36115  1.0000
  H   H7938     1.0  0.92726  0.35954  0.43631  1.0000
  S   S1027     1.0  0.82581  0.27593  0.41051  1.0000
  H   H7939     1.0  0.75049  0.25924  0.01333  1.0000
  C   C4488     1.0  0.75763  0.29312  0.12297  1.0000
  H   H7940     1.0  0.82017  0.42487  0.38807  1.0000
  S   S1028     1.0  0.97535  0.37028  0.34838  1.0000
  H   H7941     1.0  0.92992  0.24446  0.13970  1.0000
  Fe  Fe514     1.0  0.98612  0.40782  0.35242  1.0000
  Fe  Fe515     1.0  0.96279  0.39555  0.34293  1.0000
  S   S1029     1.0  0.93914  0.40522  0.33660  1.0000
  S   S1030     1.0  0.96377  0.40014  0.36557  1.0000
  S   S1031     1.0  0.96618  0.29217  0.40434  1.0000
  H   H7942     1.0  0.90381  0.46293  0.47610  1.0000
  H   H7943     1.0  0.97034  0.30848  0.42590  1.0000
  S   S1032     1.0  0.98909  0.26602  0.43832  1.0000
  C   C4489     1.0  0.96933  0.31102  0.40183  1.0000
  C   C4490     1.0  0.97004  0.32109  0.38697  1.0000
  C   C4491     1.0  0.93227  0.45730  0.37055  1.0000
  H   H7944     1.0  0.88355  0.44790  0.38612  1.0000
  C   C4492     1.0  0.98471  0.40936  0.42191  1.0000
  H   H7945     1.0  0.90745  0.24943  0.21210  1.0000
  C   C4493     1.0  0.98216  0.36565  0.43059  1.0000
  C   C4494     1.0  0.91544  0.36718  0.33634  1.0000
  C   C4495     1.0  0.93170  0.36546  0.33065  1.0000
  C   C4496     1.0  0.93912  0.37725  0.33039  1.0000
  C   C4497     1.0  0.93015  0.39098  0.33532  1.0000
  C   C4498     1.0  0.91379  0.39305  0.34013  1.0000
  C   C4499     1.0  0.90647  0.38104  0.34094  1.0000
  H   H7946     1.0  0.93857  0.35483  0.32689  1.0000
  H   H7947     1.0  0.95175  0.37574  0.32647  1.0000
  H   H7948     1.0  0.90681  0.40373  0.34379  1.0000
  H   H7949     1.0  0.89389  0.38253  0.34521  1.0000
  C   C4500     1.0  0.85391  0.31205  0.40629  1.0000
  C   C4501     1.0  0.84027  0.31668  0.40029  1.0000
  C   C4502     1.0  0.83179  0.30548  0.40128  1.0000
  C   C4503     1.0  0.83715  0.28965  0.40796  1.0000
  C   C4504     1.0  0.85122  0.28501  0.41318  1.0000
  C   C4505     1.0  0.85933  0.29624  0.41275  1.0000
  H   H7950     1.0  0.83607  0.32892  0.39520  1.0000
  H   H7951     1.0  0.82098  0.30913  0.39708  1.0000
  H   H7952     1.0  0.85577  0.27280  0.41778  1.0000
  H   H7953     1.0  0.86992  0.29271  0.41729  1.0000
  H   H7954     1.0  0.75330  0.28100  0.38566  1.0000
  C   C4506     1.0  0.91730  0.39152  0.38112  1.0000
  C   C4507     1.0  0.82088  0.34621  0.32339  1.0000
  C   C4508     1.0  0.83260  0.34543  0.33118  1.0000
  C   C4509     1.0  0.84693  0.33467  0.32844  1.0000
  C   C4510     1.0  0.97287  0.33160  0.41204  1.0000
  H   H7955     1.0  0.87577  0.33799  0.30695  1.0000
  H   H7956     1.0  0.78868  0.26357  0.31003  1.0000
  H   H7957     1.0  0.85599  0.33393  0.33442  1.0000
  C   C4511     1.0  0.74415  0.24689  0.99238  1.0000
  H   H7958     1.0  0.79255  0.25016  0.40894  1.0000
  C   C4512     1.0  0.99062  0.27974  0.36312  1.0000
  H   H7959     1.0  0.84015  0.23445  0.37955  1.0000
  C   C4513     1.0  0.84394  0.26613  0.21941  1.0000
  C   C4514     1.0  0.85279  0.25272  0.22754  1.0000
  C   C4515     1.0  0.84971  0.24934  0.24402  1.0000
  C   C4516     1.0  0.83811  0.25965  0.25231  1.0000
  C   C4517     1.0  0.82921  0.27297  0.24417  1.0000
  C   C4518     1.0  0.83211  0.27617  0.22776  1.0000
  H   H7960     1.0  0.86231  0.24520  0.22117  1.0000
  S   S1033     1.0  0.85512  0.23635  0.40721  1.0000
  H   H7961     1.0  0.82006  0.28087  0.25045  1.0000
  H   H7962     1.0  0.82513  0.28643  0.22158  1.0000
  H   H7963     1.0  0.91090  0.39379  0.37157  1.0000
  H   H7964     1.0  0.94039  0.33576  0.37796  1.0000
  C   C4519     1.0  0.93555  0.36132  0.37326  1.0000
  S   S1034     1.0  0.88770  0.43089  0.44919  1.0000
  Fe  Fe516     1.0  0.83707  0.25165  0.42209  1.0000
  C   C4520     1.0  0.93993  0.34589  0.36776  1.0000
  H   H7965     1.0  0.97734  0.24359  0.27057  1.0000
  C   C4521     1.0  0.75762  0.32886  0.28189  1.0000
  C   C4522     1.0  0.92859  0.45732  0.46689  1.0000
  C   C4523     1.0  0.79892  0.31301  0.16549  1.0000
  N   N250      1.0  0.83370  0.46300  0.39558  1.0000
  H   H7966     1.0  0.97354  0.27711  0.20742  1.0000
  H   H7967     1.0  0.97418  0.27527  0.23509  1.0000
  C   C4524     1.0  0.74473  0.32464  0.27700  1.0000
  H   H7968     1.0  0.82997  0.31399  0.44524  1.0000
  C   C4525     1.0  0.89728  0.37903  0.40051  1.0000
  Fe  Fe517     1.0  0.82275  0.30765  0.28910  1.0000
  H   H7969     1.0  0.77243  0.24490  0.34930  1.0000
  C   C4526     1.0  0.86714  0.27673  0.45310  1.0000
  H   H7970     1.0  0.77926  0.27127  0.04088  1.0000
  H   H7971     1.0  0.77997  0.23918  0.31218  1.0000
  H   H7972     1.0  0.89446  0.35435  0.40740  1.0000
  S   S1035     1.0  0.97399  0.28068  0.47928  1.0000
  C   C4527     1.0  0.77168  0.28771  0.12829  1.0000
  H   H7973     1.0  0.88720  0.37230  0.24933  1.0000
  Fe  Fe518     1.0  0.85909  0.23754  0.15991  1.0000
  C   C4528     1.0  0.85501  0.41606  0.42027  1.0000
  C   C4529     1.0  0.84471  0.40734  0.41953  1.0000
  C   C4530     1.0  0.84587  0.40276  0.40556  1.0000
  C   C4531     1.0  0.85717  0.40714  0.39216  1.0000
  C   C4532     1.0  0.86767  0.41555  0.39299  1.0000
  C   C4533     1.0  0.86687  0.41966  0.40712  1.0000
  H   H7974     1.0  0.83555  0.40443  0.42970  1.0000
  H   H7975     1.0  0.83756  0.39647  0.40497  1.0000
  H   H7976     1.0  0.87623  0.41917  0.38254  1.0000
  H   H7977     1.0  0.87500  0.42614  0.40768  1.0000
  C   C4534     1.0  0.92872  0.46279  0.41854  1.0000
  C   C4535     1.0  0.80537  0.31921  0.44563  1.0000
  C   C4536     1.0  0.77158  0.24915  0.31610  1.0000
  C   C4537     1.0  0.74988  0.27487  0.32636  1.0000
  H   H7978     1.0  0.89311  0.40384  0.31230  1.0000
  C   C4538     1.0  0.94447  0.45966  0.41947  1.0000
  C   C4539     1.0  0.94062  0.24125  0.15914  1.0000
  H   H7979     1.0  0.77564  0.33481  0.15169  1.0000
  H   H7980     1.0  0.82624  0.30704  0.47293  1.0000
  H   H7981     1.0  0.99096  0.47858  0.35218  1.0000
  H   H7982     1.0  0.94199  0.26402  0.22043  1.0000
  H   H7983     1.0  0.90080  0.30150  0.37861  1.0000
  C   C4540     1.0  0.98343  0.35307  0.44567  1.0000
  C   C4541     1.0  0.92977  0.35550  0.41301  1.0000
  H   H7984     1.0  0.89385  0.38846  0.40723  1.0000
  H   H7985     1.0  0.75379  0.34108  0.28369  1.0000
  H   H7986     1.0  0.91835  0.37979  0.41418  1.0000
  H   H7987     1.0  0.88243  0.48130  0.47627  1.0000
  H   H7988     1.0  0.80235  0.32537  0.45544  1.0000
  H   H7989     1.0  0.80855  0.31908  0.15871  1.0000
  H   H7990     1.0  0.74993  0.28578  0.25490  1.0000
  H   H7991     1.0  0.81236  0.26253  0.37507  1.0000
  H   H7992     1.0  0.89388  0.28572  0.28804  1.0000
  S   S1036     1.0  0.96457  0.26104  0.18472  1.0000
  H   H7993     1.0  0.86968  0.37880  0.42393  1.0000
  H   H7994     1.0  0.89928  0.28713  0.41526  1.0000
  C   C4542     1.0  0.88775  0.35554  0.30835  1.0000
  Fe  Fe519     1.0  0.97216  0.26799  0.46164  1.0000
  C   C4543     1.0  0.82450  0.25625  0.37064  1.0000
  H   H7995     1.0  0.82474  0.25290  0.35975  1.0000
  C   C4544     1.0  0.87347  0.36876  0.41798  1.0000
  C   C4545     1.0  0.81998  0.46873  0.43903  1.0000
  H   H7996     1.0  0.78974  0.34525  0.15236  1.0000
  H   H7997     1.0  0.90109  0.29918  0.47449  1.0000
  H   H7998     1.0  0.89236  0.24480  0.27973  1.0000
  C   C4546     1.0  0.88142  0.38420  0.30180  1.0000
  H   H7999     1.0  0.91223  0.29962  0.44415  1.0000
  H   H8000     1.0  0.74883  0.30270  0.12714  1.0000
  C   C4547     1.0  0.76681  0.24951  0.38666  1.0000
  H   H8001     1.0  0.87592  0.38493  0.31422  1.0000
  H   H8002     1.0  0.85890  0.35963  0.30121  1.0000
  C   C4548     1.0  0.77431  0.32602  0.22386  1.0000
  Fe  Fe520     1.0  0.94783  0.25539  0.45401  1.0000
  Fe  Fe521     1.0  0.75211  0.30279  0.15945  1.0000
  H   H8003     1.0  0.81672  0.44057  0.37123  1.0000
  Fe  Fe522     1.0  0.86564  0.47389  0.43647  1.0000
  S   S1037     1.0  0.76237  0.26503  0.09357  1.0000
  H   H8004     1.0  0.82496  0.30306  0.43454  1.0000
  H   H8005     1.0  0.94061  0.34150  0.43244  1.0000
  H   H8006     1.0  0.86768  0.37173  0.40789  1.0000
  H   H8007     1.0  0.94452  0.36145  0.37939  1.0000
  H   H8008     1.0  0.85401  0.47052  0.39700  1.0000
  H   H8009     1.0  0.75431  0.27428  0.28904  1.0000
  H   H8010     1.0  0.90042  0.35567  0.30584  1.0000
  C   C4549     1.0  0.78439  0.30012  0.23826  1.0000
  C   C4550     1.0  0.76566  0.31966  0.21732  1.0000
  H   H8011     1.0  0.75263  0.27200  0.03808  1.0000
  C   C4551     1.0  0.89918  0.24454  0.45570  1.0000
  H   H8012     1.0  0.88721  0.32718  0.33073  1.0000
  H   H8013     1.0  0.75823  0.32729  0.20949  1.0000
  S   S1038     1.0  0.77475  0.29592  0.14236  1.0000
  H   H8014     1.0  0.74323  0.31404  0.24664  1.0000
  H   H8015     1.0  0.77616  0.28129  0.23513  1.0000
  H   H8016     1.0  0.88213  0.30217  0.27670  1.0000
  H   H8017     1.0  0.89522  0.33734  0.29463  1.0000
  H   H8018     1.0  0.93120  0.34553  0.36142  1.0000
  H   H8019     1.0  0.77030  0.34807  0.16483  1.0000
  H   H8020     1.0  0.97070  0.37680  0.23451  1.0000
  H   H8021     1.0  0.80446  0.32939  0.20233  1.0000
  C   C4552     1.0  0.76607  0.30353  0.22160  1.0000
  H   H8022     1.0  0.85306  0.29934  0.44575  1.0000
  C   C4553     1.0  0.78325  0.27560  0.12243  1.0000
  H   H8023     1.0  0.92985  0.44455  0.47214  1.0000
  H   H8024     1.0  0.91790  0.40499  0.39779  1.0000
  H   H8025     1.0  0.81270  0.46301  0.41427  1.0000
  H   H8026     1.0  0.83086  0.25512  0.11784  1.0000
  C   C4554     1.0  0.80710  0.24969  0.15783  1.0000
  C   C4555     1.0  0.96077  0.24090  0.25927  1.0000
  C   C4556     1.0  0.83508  0.24249  0.12039  1.0000
  H   H8027     1.0  0.96247  0.24319  0.39857  1.0000
  H   H8028     1.0  0.89460  0.31450  0.31691  1.0000
  H   H8029     1.0  0.92031  0.30124  0.41579  1.0000
  Fe  Fe523     1.0  0.74265  0.30336  0.19442  1.0000
  H   H8030     1.0  0.91041  0.36634  0.37585  1.0000
  S   S1039     1.0  0.95120  0.27973  0.45065  1.0000
  C   C4557     1.0  0.74297  0.25327  0.15145  1.0000
  H   H8031     1.0  0.89816  0.36493  0.27882  1.0000
  C   C4558     1.0  0.82756  0.47282  0.42154  1.0000
  C   C4559     1.0  0.90677  0.30572  0.38531  1.0000
  C   C4560     1.0  0.84698  0.23571  0.12892  1.0000
  H   H8032     1.0  0.79728  0.29052  0.46647  1.0000
  C   C4561     1.0  0.80211  0.24867  0.23702  1.0000
  H   H8033     1.0  0.87656  0.26414  0.39263  1.0000
  H   H8034     1.0  0.85696  0.23926  0.04026  1.0000
  H   H8035     1.0  0.81575  0.24462  0.33704  1.0000
  H   H8036     1.0  0.78399  0.26387  0.38399  1.0000
  H   H8037     1.0  0.87682  0.34936  0.28022  1.0000
  H   H8038     1.0  0.79347  0.26333  0.45722  1.0000
  H   H8039     1.0  0.89882  0.35331  0.25687  1.0000
  H   H8040     1.0  0.75516  0.23777  0.99093  1.0000
  H   H8041     1.0  0.83105  0.30525  0.18671  1.0000
  H   H8042     1.0  0.92012  0.34914  0.41705  1.0000
  H   H8043     1.0  0.86533  0.36796  0.27275  1.0000
  C   C4562     1.0  0.91432  0.46654  0.47667  1.0000
  H   H8044     1.0  0.89182  0.24863  0.46601  1.0000
  C   C4563     1.0  0.75182  0.28375  0.37337  1.0000
  H   H8045     1.0  0.93713  0.23887  0.43560  1.0000
  S   S1040     1.0  0.88717  0.46798  0.44637  1.0000
  C   C4564     1.0  0.84959  0.32500  0.31778  1.0000
  C   C4565     1.0  0.78190  0.25194  0.38962  1.0000
  H   H8046     1.0  0.81606  0.33765  0.42843  1.0000
  H   H8047     1.0  0.86910  0.27313  0.44183  1.0000
  H   H8048     1.0  0.91728  0.35227  0.39167  1.0000
  C   C4566     1.0  0.88773  0.33923  0.30621  1.0000
  H   H8049     1.0  0.91154  0.42279  0.36504  1.0000
  C   C4567     1.0  0.81389  0.44843  0.39277  1.0000
  H   H8050     1.0  0.92997  0.39048  0.37526  1.0000
  H   H8051     1.0  0.74655  0.23647  0.13722  1.0000
  H   H8052     1.0  0.98850  0.42749  0.44071  1.0000
  C   C4568     1.0  0.82562  0.46132  0.41276  1.0000
  H   H8053     1.0  0.98191  0.30161  0.34854  1.0000
  H   H8054     1.0  0.78934  0.25900  0.10746  1.0000
  C   C4569     1.0  0.87893  0.45785  0.37708  1.0000
  N   N251      1.0  0.82152  0.29314  0.45950  1.0000
  C   C4570     1.0  0.81827  0.29911  0.47431  1.0000
  H   H8055     1.0  0.76727  0.23667  0.39074  1.0000
  H   H8056     1.0  0.76414  0.25690  0.26196  1.0000
  H   H8057     1.0  0.89151  0.26584  0.41052  1.0000
  Fe  Fe524     1.0  0.97928  0.23802  0.19448  1.0000
  H   H8058     1.0  0.76014  0.32084  0.29306  1.0000
  H   H8059     1.0  0.82974  0.44912  0.41932  1.0000
  C   C4571     1.0  0.98255  0.28065  0.22558  1.0000
  H   H8060     1.0  0.85655  0.23898  0.25028  1.0000
  H   H8061     1.0  0.85118  0.24216  0.47215  1.0000
  N   N252      1.0  0.98158  0.39524  0.41857  1.0000
  C   C4572     1.0  0.97261  0.41635  0.43544  1.0000
  H   H8062     1.0  0.91195  0.40238  0.29882  1.0000
  C   C4573     1.0  0.74489  0.26135  0.32707  1.0000
  C   C4574     1.0  0.76560  0.27578  0.32005  1.0000
  C   C4575     1.0  0.75487  0.24627  0.04335  1.0000
  C   C4576     1.0  0.88948  0.26304  0.38846  1.0000
  H   H8063     1.0  0.83571  0.25942  0.02982  1.0000
  H   H8064     1.0  0.83828  0.27141  0.46577  1.0000
  H   H8065     1.0  0.79170  0.29244  0.24613  1.0000
  C   C4577     1.0  0.79243  0.25177  0.35104  1.0000
  C   C4578     1.0  0.92983  0.23902  0.15195  1.0000
  C   C4579     1.0  0.85117  0.46068  0.39410  1.0000
  H   H8066     1.0  0.89558  0.30060  0.43641  1.0000
  H   H8067     1.0  0.81635  0.31255  0.21279  1.0000
  C   C4580     1.0  0.89534  0.27106  0.39782  1.0000
  H   H8068     1.0  0.94436  0.45522  0.37245  1.0000
  C   C4581     1.0  0.85185  0.28907  0.45568  1.0000
  C   C4582     1.0  0.83754  0.28237  0.45657  1.0000
  H   H8069     1.0  0.76032  0.30745  0.26412  1.0000
  H   H8070     1.0  0.81389  0.48206  0.39102  1.0000
  S   S1041     1.0  0.92321  0.25107  0.46385  1.0000
  H   H8071     1.0  0.94876  0.23592  0.18063  1.0000
  H   H8072     1.0  0.98552  0.41888  0.41114  1.0000
  H   H8073     1.0  0.90674  0.32658  0.31842  1.0000
  N   N253      1.0  0.92083  0.27844  0.39932  1.0000
  S   S1042     1.0  0.74781  0.32183  0.17253  1.0000
  C   C4583     1.0  0.93720  0.26930  0.40099  1.0000
  C   C4584     1.0  0.92231  0.29382  0.38777  1.0000
  C   C4585     1.0  0.85050  0.38495  0.29683  1.0000
  C   C4586     1.0  0.94844  0.26413  0.38607  1.0000
  C   C4587     1.0  0.90992  0.32168  0.37570  1.0000
  C   C4588     1.0  0.96417  0.25418  0.38972  1.0000
  H   H8074     1.0  0.91729  0.27054  0.38029  1.0000
  H   H8075     1.0  0.77834  0.23812  0.41377  1.0000
  H   H8076     1.0  0.93653  0.25857  0.41053  1.0000
  H   H8077     1.0  0.94336  0.27630  0.40459  1.0000
  H   H8078     1.0  0.92985  0.29975  0.39099  1.0000
  H   H8079     1.0  0.92863  0.29171  0.37590  1.0000
  H   H8080     1.0  0.95103  0.27450  0.37672  1.0000
  H   H8081     1.0  0.94338  0.25700  0.38139  1.0000
  C   C4589     1.0  0.75513  0.28647  0.11187  1.0000
  H   H8082     1.0  0.89874  0.32958  0.37315  1.0000
  H   H8083     1.0  0.91467  0.32712  0.38244  1.0000
  H   H8084     1.0  0.96991  0.26087  0.39424  1.0000
  H   H8085     1.0  0.76806  0.26200  0.02445  1.0000
  C   C4590     1.0  0.75339  0.30075  0.36610  1.0000
  N   N254      1.0  0.83536  0.28130  0.35477  1.0000
  C   C4591     1.0  0.81853  0.28807  0.35307  1.0000
  C   C4592     1.0  0.83618  0.26687  0.36807  1.0000
  C   C4593     1.0  0.84096  0.29356  0.35896  1.0000
  C   C4594     1.0  0.84612  0.27770  0.33959  1.0000
  C   C4595     1.0  0.84238  0.26565  0.33276  1.0000
  C   C4596     1.0  0.81571  0.30319  0.34017  1.0000
  C   C4597     1.0  0.85644  0.28769  0.36519  1.0000
  C   C4598     1.0  0.85251  0.26502  0.31628  1.0000
  C   C4599     1.0  0.79831  0.30862  0.33948  1.0000
  C   C4600     1.0  0.86328  0.30143  0.36479  1.0000
  H   H8086     1.0  0.81106  0.29070  0.36448  1.0000
  H   H8087     1.0  0.81351  0.27949  0.35045  1.0000
  H   H8088     1.0  0.84835  0.25947  0.36680  1.0000
  H   H8089     1.0  0.83352  0.27038  0.37953  1.0000
  H   H8090     1.0  0.83181  0.29892  0.36822  1.0000
  H   H8091     1.0  0.84272  0.30345  0.34863  1.0000
  H   H8092     1.0  0.84664  0.28871  0.33035  1.0000
  H   H8093     1.0  0.85843  0.27297  0.34105  1.0000
  H   H8094     1.0  0.82991  0.26858  0.33189  1.0000
  H   H8095     1.0  0.89001  0.28669  0.12041  1.0000
  H   H8096     1.0  0.81925  0.31294  0.34254  1.0000
  H   H8097     1.0  0.82233  0.30104  0.32843  1.0000
  H   H8098     1.0  0.86565  0.27984  0.35830  1.0000
  H   H8099     1.0  0.85408  0.28108  0.37759  1.0000
  H   H8100     1.0  0.95165  0.34488  0.35963  1.0000
  H   H8101     1.0  0.85038  0.27671  0.30819  1.0000
  H   H8102     1.0  0.75139  0.24472  0.05629  1.0000
  H   H8103     1.0  0.79666  0.31934  0.33001  1.0000
  H   H8104     1.0  0.79415  0.29941  0.33682  1.0000
  H   H8105     1.0  0.79107  0.31152  0.35080  1.0000
  H   H8106     1.0  0.85415  0.31017  0.37072  1.0000
  H   H8107     1.0  0.87317  0.29720  0.37097  1.0000
  H   H8108     1.0  0.86770  0.30724  0.35244  1.0000
  H   H8109     1.0  0.75890  0.23874  0.01663  1.0000
  H   H8110     1.0  0.86678  0.26617  0.46279  1.0000
  C   C4601     1.0  0.96536  0.39868  0.41535  1.0000
  H   H8111     1.0  0.79506  0.34073  0.43083  1.0000
  H   H8112     1.0  0.97349  0.35616  0.45547  1.0000
  C   C4602     1.0  0.91524  0.24457  0.45178  1.0000
  C   C4603     1.0  0.96109  0.41371  0.40272  1.0000
  C   C4604     1.0  0.75739  0.27441  0.27632  1.0000
  C   C4605     1.0  0.92474  0.23909  0.43856  1.0000
  C   C4606     1.0  0.94469  0.41537  0.40024  1.0000
  H   H8113     1.0  0.97274  0.38455  0.44276  1.0000
  H   H8114     1.0  0.80916  0.44408  0.40547  1.0000
  H   H8115     1.0  0.95616  0.39952  0.42633  1.0000
  H   H8116     1.0  0.96388  0.38875  0.41132  1.0000
  C   C4607     1.0  0.76647  0.27407  0.10637  1.0000
  H   H8117     1.0  0.82183  0.47692  0.44515  1.0000
  S   S1043     1.0  0.97493  0.36121  0.39470  1.0000
  H   H8118     1.0  0.90489  0.37698  0.30756  1.0000
  H   H8119     1.0  0.97093  0.36616  0.42761  1.0000
  H   H8120     1.0  0.96785  0.43585  0.44685  1.0000
  H   H8121     1.0  0.96943  0.41329  0.39123  1.0000
  H   H8122     1.0  0.96110  0.42447  0.40625  1.0000
  H   H8123     1.0  0.89867  0.30774  0.39655  1.0000
  H   H8124     1.0  0.91832  0.32054  0.36432  1.0000
  H   H8125     1.0  0.93570  0.37727  0.39939  1.0000
  H   H8126     1.0  0.92213  0.29454  0.47247  1.0000
  S   S1044     1.0  0.85500  0.24765  0.13541  1.0000
  Fe  Fe525     1.0  0.97107  0.25170  0.16278  1.0000
  H   H8127     1.0  0.93574  0.41632  0.41133  1.0000
  H   H8128     1.0  0.94182  0.42611  0.39115  1.0000
  H   H8129     1.0  0.94422  0.40504  0.39624  1.0000
  N   N255      1.0  0.80445  0.29835  0.17718  1.0000
  C   C4608     1.0  0.81916  0.28805  0.16944  1.0000
  C   C4609     1.0  0.79160  0.28912  0.18264  1.0000
  S   S1045     1.0  0.77147  0.29287  0.31930  1.0000
  C   C4610     1.0  0.79502  0.27323  0.19456  1.0000
  C   C4611     1.0  0.83142  0.29630  0.15665  1.0000
  C   C4612     1.0  0.84665  0.28452  0.15218  1.0000
  C   C4613     1.0  0.78308  0.26329  0.19686  1.0000
  H   H8130     1.0  0.79486  0.30981  0.15645  1.0000
  H   H8131     1.0  0.82542  0.27984  0.17851  1.0000
  H   H8132     1.0  0.81605  0.28039  0.16352  1.0000
  H   H8133     1.0  0.78896  0.28670  0.17231  1.0000
  C   C4614     1.0  0.78345  0.31632  0.23462  1.0000
  H   H8134     1.0  0.81145  0.29118  0.19959  1.0000
  H   H8135     1.0  0.96057  0.42008  0.43313  1.0000
  H   H8136     1.0  0.79431  0.27551  0.20618  1.0000
  H   H8137     1.0  0.80682  0.26602  0.19073  1.0000
  H   H8138     1.0  0.82675  0.30185  0.14580  1.0000
  H   H8139     1.0  0.83442  0.30542  0.16054  1.0000
  H   H8140     1.0  0.85208  0.27884  0.16251  1.0000
  H   H8141     1.0  0.84425  0.27536  0.14777  1.0000
  H   H8142     1.0  0.85506  0.29063  0.14273  1.0000
  C   C4615     1.0  0.98214  0.28175  0.20993  1.0000
  H   H8143     1.0  0.88013  0.46893  0.37904  1.0000
  H   H8144     1.0  0.78247  0.26147  0.18543  1.0000
  N   N256      1.0  0.89915  0.28490  0.16419  1.0000
  C   C4616     1.0  0.88988  0.29873  0.17147  1.0000
  C   C4617     1.0  0.91600  0.28652  0.15693  1.0000
  C   C4618     1.0  0.89157  0.28508  0.15118  1.0000
  C   C4619     1.0  0.89852  0.26950  0.17590  1.0000
  C   C4620     1.0  0.90537  0.26688  0.19048  1.0000
  C   C4621     1.0  0.87272  0.29807  0.18043  1.0000
  C   C4622     1.0  0.90055  0.27326  0.14042  1.0000
  C   C4623     1.0  0.92368  0.29442  0.16519  1.0000
  C   C4624     1.0  0.94109  0.29370  0.15757  1.0000
  C   C4625     1.0  0.90032  0.25295  0.20305  1.0000
  C   C4626     1.0  0.86416  0.31341  0.18571  1.0000
  C   C4627     1.0  0.89169  0.27460  0.12783  1.0000
  H   H8145     1.0  0.88969  0.30982  0.16224  1.0000
  H   H8146     1.0  0.89555  0.30021  0.18019  1.0000
  H   H8147     1.0  0.92374  0.27482  0.15574  1.0000
  H   H8148     1.0  0.91693  0.29380  0.14471  1.0000
  H   H8149     1.0  0.88983  0.29703  0.14337  1.0000
  H   H8150     1.0  0.87970  0.28244  0.15610  1.0000
  H   H8151     1.0  0.88622  0.26778  0.17994  1.0000
  H   H8152     1.0  0.90519  0.25949  0.17029  1.0000
  H   H8153     1.0  0.90141  0.27723  0.19591  1.0000
  H   H8154     1.0  0.91844  0.26412  0.18703  1.0000
  H   H8155     1.0  0.86574  0.29607  0.17315  1.0000
  H   H8156     1.0  0.87273  0.28849  0.19115  1.0000
  H   H8157     1.0  0.90178  0.26101  0.14727  1.0000
  H   H8158     1.0  0.91248  0.27530  0.13432  1.0000
  H   H8159     1.0  0.91788  0.30707  0.16411  1.0000
  H   H8160     1.0  0.92277  0.28883  0.17781  1.0000
  H   H8161     1.0  0.94272  0.29913  0.14480  1.0000
  H   H8162     1.0  0.94604  0.30010  0.16321  1.0000
  H   H8163     1.0  0.94779  0.28136  0.15915  1.0000
  H   H8164     1.0  0.75200  0.30413  0.35371  1.0000
  S   S1046     1.0  0.80363  0.23617  0.08101  1.0000
  H   H8165     1.0  0.90214  0.24266  0.19788  1.0000
  H   H8166     1.0  0.85259  0.31198  0.19353  1.0000
  H   H8167     1.0  0.87102  0.31657  0.19237  1.0000
  H   H8168     1.0  0.86217  0.32312  0.17538  1.0000
  C   C4628     1.0  0.80624  0.33173  0.43033  1.0000
  H   H8169     1.0  0.89854  0.26627  0.12014  1.0000
  H   H8170     1.0  0.88006  0.27150  0.13332  1.0000
  H   H8171     1.0  0.93618  0.37092  0.36264  1.0000
  N   N257      1.0  0.88998  0.26683  0.25176  1.0000
  C   C4629     1.0  0.87954  0.25535  0.26043  1.0000
  C   C4630     1.0  0.88297  0.27791  0.23837  1.0000
  C   C4631     1.0  0.90572  0.25752  0.24462  1.0000
  C   C4632     1.0  0.89257  0.27582  0.26229  1.0000
  C   C4633     1.0  0.87901  0.27920  0.27663  1.0000
  C   C4634     1.0  0.99026  0.23588  0.24880  1.0000
  C   C4635     1.0  0.91754  0.26727  0.23307  1.0000
  C   C4636     1.0  0.86618  0.28788  0.24272  1.0000
  C   C4637     1.0  0.86018  0.29735  0.22793  1.0000
  C   C4638     1.0  0.88231  0.29037  0.28464  1.0000
  H   H8172     1.0  0.77123  0.26905  0.20258  1.0000
  C   C4639     1.0  0.93360  0.25673  0.22817  1.0000
  H   H8173     1.0  0.87668  0.25039  0.25189  1.0000
  H   H8174     1.0  0.86799  0.26129  0.26661  1.0000
  H   H8175     1.0  0.89030  0.28664  0.23178  1.0000
  H   H8176     1.0  0.88280  0.27118  0.22983  1.0000
  H   H8177     1.0  0.90402  0.24940  0.23829  1.0000
  H   H8178     1.0  0.91186  0.24982  0.25402  1.0000
  H   H8179     1.0  0.90309  0.26944  0.26735  1.0000
  H   H8180     1.0  0.89544  0.28726  0.25526  1.0000
  H   H8181     1.0  0.98303  0.34161  0.44379  1.0000
  H   H8182     1.0  0.86746  0.28442  0.27340  1.0000
  H   H8183     1.0  0.79210  0.24309  0.38507  1.0000
  C   C4640     1.0  0.76189  0.26119  0.03697  1.0000
  H   H8184     1.0  0.91920  0.27605  0.23857  1.0000
  H   H8185     1.0  0.91337  0.27346  0.22208  1.0000
  H   H8186     1.0  0.85769  0.28049  0.24969  1.0000
  H   H8187     1.0  0.86620  0.29647  0.24935  1.0000
  H   H8188     1.0  0.86024  0.28946  0.22047  1.0000
  H   H8189     1.0  0.84789  0.30395  0.23128  1.0000
  H   H8190     1.0  0.86759  0.30591  0.22106  1.0000
  C   C4641     1.0  0.80888  0.28493  0.45991  1.0000
  C   C4642     1.0  0.89948  0.40185  0.30039  1.0000
  H   H8191     1.0  0.87307  0.29170  0.29546  1.0000
  C   C4643     1.0  0.76080  0.25745  0.27458  1.0000
  H   H8192     1.0  0.91158  0.27898  0.47725  1.0000
  H   H8193     1.0  0.88766  0.25615  0.20866  1.0000
  C   C4644     1.0  0.91877  0.47703  0.42118  1.0000
  H   H8194     1.0  0.93848  0.24984  0.23858  1.0000
  H   H8195     1.0  0.93269  0.24851  0.22153  1.0000
  Fe  Fe526     1.0  0.85526  0.24903  0.18926  1.0000
  H   H8196     1.0  0.90532  0.38413  0.28684  1.0000
  C   C4645     1.0  0.91245  0.40661  0.38777  1.0000
  H   H8197     1.0  0.74150  0.28471  0.33055  1.0000
  N   N258      1.0  0.87898  0.36969  0.29844  1.0000
  H   H8198     1.0  0.84010  0.47245  0.42063  1.0000
  H   H8199     1.0  0.95949  0.25301  0.25187  1.0000
  H   H8200     1.0  0.87720  0.28160  0.45279  1.0000
  C   C4646     1.0  0.83795  0.32596  0.30984  1.0000
  H   H8201     1.0  0.92959  0.28272  0.42663  1.0000
  S   S1047     1.0  0.98707  0.43174  0.35507  1.0000
  H   H8202     1.0  0.79560  0.30751  0.19831  1.0000
  H   H8203     1.0  0.89427  0.41134  0.29137  1.0000
  H   H8204     1.0  0.92698  0.45938  0.45471  1.0000
  H   H8205     1.0  0.76122  0.25049  0.16382  1.0000
  H   H8206     1.0  0.98532  0.31721  0.32494  1.0000
  C   C4647     1.0  0.78582  0.32589  0.17252  1.0000
  S   S1048     1.0  0.75354  0.29514  0.21603  1.0000
  H   H8207     1.0  0.80223  0.25253  0.22429  1.0000
  Fe  Fe527     1.0  0.96764  0.27584  0.42794  1.0000
  C   C4648     1.0  0.78006  0.33930  0.15952  1.0000
  C   C4649     1.0  0.88667  0.36037  0.25677  1.0000
  H   H8208     1.0  0.74245  0.33333  0.26611  1.0000
  H   H8209     1.0  0.79563  0.31353  0.44670  1.0000
  H   H8210     1.0  0.76505  0.30229  0.36637  1.0000
  H   H8211     1.0  0.89623  0.36212  0.42311  1.0000
  H   H8212     1.0  0.80732  0.28634  0.44775  1.0000
  H   H8213     1.0  0.82113  0.26066  0.45848  1.0000
  S   S1049     1.0  0.96756  0.24377  0.46665  1.0000
  H   H8214     1.0  0.88028  0.23899  0.44961  1.0000
  S   S1050     1.0  0.82802  0.30131  0.26560  1.0000
  C   C4650     1.0  0.87751  0.36142  0.27349  1.0000
  H   H8215     1.0  0.97236  0.40766  0.44679  1.0000
  H   H8216     1.0  0.80751  0.24976  0.16993  1.0000
  H   H8217     1.0  0.78986  0.23568  0.16516  1.0000
  H   H8218     1.0  0.93913  0.34913  0.40477  1.0000
  H   H8219     1.0  0.86072  0.31675  0.31567  1.0000
  S   S1051     1.0  0.74848  0.28420  0.18123  1.0000
  H   H8220     1.0  0.83767  0.43828  0.39574  1.0000
  H   H8221     1.0  0.79861  0.26041  0.15350  1.0000
  H   H8222     1.0  0.77361  0.33856  0.22086  1.0000
  C   C4651     1.0  0.91833  0.28981  0.42349  1.0000
  C   C4652     1.0  0.83117  0.44982  0.38999  1.0000
  H   H8223     1.0  0.74752  0.25574  0.12635  1.0000
  H   H8224     1.0  0.77578  0.27512  0.36263  1.0000
  H   H8225     1.0  0.78991  0.26272  0.34202  1.0000
  H   H8226     1.0  0.81891  0.25010  0.15011  1.0000
  C   C4653     1.0  0.80703  0.30212  0.19135  1.0000
  H   H8227     1.0  0.79029  0.33105  0.17974  1.0000
  H   H8228     1.0  0.88307  0.35585  0.32103  1.0000
  H   H8229     1.0  0.90688  0.47993  0.41946  1.0000
  H   H8230     1.0  0.83946  0.27855  0.44540  1.0000
  H   H8231     1.0  0.82643  0.39335  0.29374  1.0000
  H   H8232     1.0  0.82862  0.37896  0.31163  1.0000
  H   H8233     1.0  0.96871  0.31713  0.37729  1.0000
  H   H8234     1.0  0.85519  0.45026  0.40303  1.0000
  H   H8235     1.0  0.75447  0.30006  0.28447  1.0000
  C   C4654     1.0  0.83384  0.24731  0.03510  1.0000
  C   C4655     1.0  0.79689  0.26076  0.46869  1.0000
  H   H8236     1.0  0.97165  0.36942  0.21763  1.0000
  H   H8237     1.0  0.88071  0.35458  0.25150  1.0000
  H   H8238     1.0  0.91322  0.43128  0.38015  1.0000
  H   H8239     1.0  0.77184  0.25912  0.41201  1.0000
  C   C4656     1.0  0.83402  0.38233  0.29893  1.0000
  C   C4657     1.0  0.76428  0.27240  0.36377  1.0000
  S   S1052     1.0  0.98748  0.46956  0.44176  1.0000
  C   C4658     1.0  0.97280  0.34123  0.32254  1.0000
  H   H8240     1.0  0.87783  0.26817  0.28554  1.0000
  H   H8241     1.0  0.76228  0.27597  0.35160  1.0000
  Fe  Fe528     1.0  0.97839  0.37578  0.36989  1.0000
  H   H8242     1.0  0.75031  0.25228  0.28044  1.0000
  C   C4659     1.0  0.88650  0.24114  0.27250  1.0000
  H   H8243     1.0  0.89017  0.38318  0.39127  1.0000
  C   C4660     1.0  0.98266  0.38188  0.43277  1.0000
  C   C4661     1.0  0.81277  0.43660  0.38414  1.0000
  H   H8244     1.0  0.77567  0.32114  0.18023  1.0000
  H   H8245     1.0  0.89516  0.25034  0.39013  1.0000
  C   C4662     1.0  0.77647  0.26296  0.31481  1.0000
  C   C4663     1.0  0.81608  0.32105  0.20138  1.0000
  H   H8246     1.0  0.91790  0.25590  0.39791  1.0000
  H   H8247     1.0  0.83443  0.37295  0.29302  1.0000
  N   N259      1.0  0.91462  0.37649  0.39287  1.0000
  S   S1053     1.0  0.84205  0.31394  0.29619  1.0000
  H   H8248     1.0  0.84930  0.39435  0.30304  1.0000
  C   C4664     1.0  0.97086  0.31623  0.41438  1.0000
  C   C4665     1.0  0.91160  0.28083  0.41546  1.0000
  C   C4666     1.0  0.89137  0.36489  0.41246  1.0000
  C   C4667     1.0  0.91715  0.42062  0.37513  1.0000
  H   H8249     1.0  0.93011  0.41852  0.37078  1.0000
  C   C4668     1.0  0.77567  0.29380  0.23187  1.0000
  C   C4669     1.0  0.86174  0.45834  0.37784  1.0000
  C   C4670     1.0  0.93644  0.35410  0.42721  1.0000
  H   H8250     1.0  0.96187  0.46750  0.42572  1.0000
  H   H8251     1.0  0.77066  0.25032  0.28028  1.0000
  H   H8252     1.0  0.82734  0.47744  0.37382  1.0000
  C   C4671     1.0  0.94989  0.47027  0.42430  1.0000
  C   C4672     1.0  0.89873  0.38574  0.29878  1.0000
  H   H8253     1.0  0.90521  0.28205  0.44720  1.0000
  H   H8254     1.0  0.79420  0.27147  0.12638  1.0000
  C   C4673     1.0  0.82352  0.33652  0.31276  1.0000
  H   H8255     1.0  0.96832  0.34107  0.31235  1.0000
  H   H8256     1.0  0.91063  0.26924  0.42353  1.0000
  H   H8257     1.0  0.76849  0.27869  0.27118  1.0000
  H   H8258     1.0  0.83605  0.45100  0.37713  1.0000
  H   H8259     1.0  0.81447  0.33737  0.30669  1.0000
  N   N260      1.0  0.76457  0.25507  0.36996  1.0000
  H   H8260     1.0  0.78358  0.25012  0.04540  1.0000
  S   S1054     1.0  0.79341  0.32477  0.24339  1.0000
  H   H8261     1.0  0.97277  0.45284  0.37607  1.0000
  S   S1055     1.0  0.95383  0.25333  0.14845  1.0000
  C   C4674     1.0  0.74877  0.25259  0.36984  1.0000
  H   H8262     1.0  0.80975  0.35449  0.32546  1.0000
  H   H8263     1.0  0.85514  0.38930  0.28413  1.0000
  H   H8264     1.0  0.86519  0.26129  0.31662  1.0000
  H   H8265     1.0  0.94656  0.35993  0.42359  1.0000
  S   S1056     1.0  0.85402  0.45628  0.45576  1.0000
  H   H8266     1.0  0.84943  0.25645  0.31156  1.0000
  S   S1057     1.0  0.98437  0.40465  0.32919  1.0000
  C   C4675     1.0  0.86161  0.36976  0.30374  1.0000
  H   H8267     1.0  0.86950  0.35842  0.42644  1.0000
  C   C4676     1.0  0.88524  0.36993  0.28111  1.0000
  H   H8268     1.0  0.87540  0.39500  0.29454  1.0000
  C   C4677     1.0  0.74764  0.24752  0.01899  1.0000
  C   C4678     1.0  0.97223  0.33634  0.38461  1.0000
  H   H8269     1.0  0.93272  0.45053  0.36187  1.0000
  H   H8270     1.0  0.89201  0.26862  0.37575  1.0000
  C   C4679     1.0  0.81157  0.26689  0.46670  1.0000
  H   H8271     1.0  0.84515  0.25371  0.34022  1.0000
  S   S1058     1.0  0.79767  0.31966  0.28769  1.0000
  C   C4680     1.0  0.78054  0.26858  0.11169  1.0000
  H   H8272     1.0  0.88394  0.38224  0.27409  1.0000
  Fe  Fe529     1.0  0.87669  0.44891  0.46412  1.0000
  H   H8273     1.0  0.88941  0.28359  0.39567  1.0000
  H   H8274     1.0  0.80474  0.25811  0.24087  1.0000
  C   C4681     1.0  0.90707  0.29320  0.43875  1.0000
  S   S1059     1.0  0.79531  0.28790  0.27775  1.0000
  C   C4682     1.0  0.77399  0.26079  0.04604  1.0000
  H   H8275     1.0  0.74587  0.25819  0.35812  1.0000
  C   C4683     1.0  0.81894  0.31268  0.18800  1.0000
  S   S1060     1.0  0.96255  0.25241  0.43033  1.0000
  H   H8276     1.0  0.82536  0.45653  0.44443  1.0000
  H   H8277     1.0  0.78037  0.29600  0.18837  1.0000
  H   H8278     1.0  0.78653  0.25163  0.20454  1.0000
  Fe  Fe530     1.0  0.80233  0.31077  0.26546  1.0000
  Fe  Fe531     1.0  0.79253  0.29587  0.29979  1.0000
  C   C4684     1.0  0.80498  0.23988  0.34266  1.0000
  H   H8279     1.0  0.74412  0.30876  0.37286  1.0000
  H   H8280     1.0  0.86152  0.44699  0.37561  1.0000
  H   H8281     1.0  0.80803  0.32635  0.42018  1.0000
  H   H8282     1.0  0.92448  0.45288  0.38180  1.0000
  H   H8283     1.0  0.80039  0.43540  0.38670  1.0000
  Fe  Fe532     1.0  0.98274  0.24267  0.44237  1.0000
  C   C4685     1.0  0.89450  0.32609  0.31885  1.0000
  H   H8284     1.0  0.81836  0.32194  0.17716  1.0000
  H   H8285     1.0  0.82526  0.32784  0.19904  1.0000
  H   H8286     1.0  0.96370  0.33882  0.33342  1.0000
  C   C4686     1.0  0.97346  0.34171  0.39716  1.0000
  C   C4687     1.0  0.98892  0.44921  0.39099  1.0000
  H   H8287     1.0  0.85768  0.46785  0.36819  1.0000
  H   H8288     1.0  0.76832  0.26094  0.05857  1.0000
  H   H8289     1.0  0.80632  0.45993  0.38859  1.0000
  H   H8290     1.0  0.98329  0.27351  0.36006  1.0000
  H   H8291     1.0  0.76471  0.23606  0.04124  1.0000
  C   C4688     1.0  0.75574  0.24842  0.32214  1.0000
  C   C4689     1.0  0.74436  0.28512  0.26760  1.0000
  H   H8292     1.0  0.97737  0.43987  0.42638  1.0000
  C   C4690     1.0  0.78105  0.24967  0.40716  1.0000
  H   H8293     1.0  0.97265  0.34402  0.37316  1.0000
  C   C4691     1.0  0.93952  0.48397  0.42815  1.0000
  H   H8294     1.0  0.97492  0.35312  0.32092  1.0000
  C   C4692     1.0  0.98378  0.44603  0.37913  1.0000
  H   H8295     1.0  0.79749  0.25442  0.35952  1.0000
  H   H8296     1.0  0.97220  0.25102  0.37884  1.0000
  C   C4693     1.0  0.74989  0.30770  0.27412  1.0000
  H   H8297     1.0  0.80712  0.46984  0.44075  1.0000
  H   H8298     1.0  0.74430  0.29081  0.10770  1.0000
  C   C4694     1.0  0.82670  0.47856  0.38593  1.0000
  C   C4695     1.0  0.97763  0.36812  0.22723  1.0000
  H   H8299     1.0  0.88617  0.45620  0.36533  1.0000
  H   H8300     1.0  0.76857  0.32806  0.27258  1.0000
  H   H8301     1.0  0.74689  0.25868  0.98704  1.0000
  H   H8302     1.0  0.75134  0.39432  0.13580  1.0000
  C   C4696     1.0  0.82795  0.24121  0.38295  1.0000
  C   C4697     1.0  0.77713  0.24559  0.35918  1.0000
  C   C4698     1.0  0.92592  0.47475  0.36444  1.0000
  Fe  Fe533     1.0  0.77794  0.24123  0.09227  1.0000
  C   C4699     1.0  0.89262  0.23918  0.44635  1.0000
  Fe  Fe534     1.0  0.98748  0.26874  0.17573  1.0000
  H   H8303     1.0  0.79019  0.24680  0.24343  1.0000
  H   H8304     1.0  0.80066  0.23764  0.33331  1.0000
  H   H8305     1.0  0.82616  0.24393  0.39461  1.0000
  H   H8306     1.0  0.97383  0.33567  0.42180  1.0000
  H   H8307     1.0  0.98555  0.33035  0.34761  1.0000
  H   H8308     1.0  0.82132  0.24810  0.04136  1.0000
  H   H8309     1.0  0.74208  0.42877  0.06878  1.0000
  H   H8310     1.0  0.98175  0.45822  0.39723  1.0000
  S   S1061     1.0  0.83848  0.24212  0.17978  1.0000
  H   H8311     1.0  0.98567  0.24301  0.12303  1.0000
  C   C4700     1.0  0.84465  0.23888  0.04657  1.0000
  C   C4701     1.0  0.98799  0.32878  0.32347  1.0000
  C   C4702     1.0  0.97683  0.23542  0.26368  1.0000
  H   H8312     1.0  0.97797  0.35615  0.23485  1.0000
  H   H8313     1.0  0.81986  0.23723  0.25962  1.0000
  H   H8314     1.0  0.84145  0.24567  0.05593  1.0000
  H   H8315     1.0  0.80619  0.30653  0.47643  1.0000
  H   H8316     1.0  0.99005  0.36699  0.28152  1.0000
  H   H8317     1.0  0.81492  0.26346  0.47822  1.0000
  H   H8318     1.0  0.91388  0.47609  0.36285  1.0000
  H   H8319     1.0  0.97417  0.48277  0.37815  1.0000
  H   H8320     1.0  0.93354  0.47833  0.35277  1.0000
  C   C4703     1.0  0.75973  0.24642  0.15394  1.0000
  H   H8321     1.0  0.76839  0.25040  0.14321  1.0000
  C   C4704     1.0  0.74705  0.23528  0.37380  1.0000
  H   H8322     1.0  0.98433  0.28346  0.37432  1.0000
  H   H8323     1.0  0.98871  0.24847  0.24277  1.0000
  H   H8324     1.0  0.83630  0.24098  0.02550  1.0000
  H   H8325     1.0  0.91983  0.47951  0.38794  1.0000
  C   C4705     1.0  0.91107  0.29070  0.47914  1.0000
  H   H8326     1.0  0.93846  0.48248  0.37678  1.0000
  H   H8327     1.0  0.81887  0.23818  0.10930  1.0000
  H   H8328     1.0  0.82597  0.23586  0.23247  1.0000
  H   H8329     1.0  0.86477  0.24074  0.29047  1.0000
  C   C4706     1.0  0.80188  0.23506  0.15779  1.0000
  H   H8330     1.0  0.80125  0.23569  0.14554  1.0000
  H   H8331     1.0  0.78697  0.26615  0.47727  1.0000
  H   H8332     1.0  0.99038  0.38200  0.40019  1.0000
  H   H8333     1.0  0.74247  0.37962  0.13386  1.0000
  N   N261      1.0  0.74152  0.24603  0.03652  1.0000
  H   H8334     1.0  0.74124  0.42709  0.09672  1.0000
  H   H8335     1.0  0.89493  0.48403  0.38518  1.0000
  H   H8336     1.0  0.74680  0.23412  0.11216  1.0000
  S   S1062     1.0  0.92687  0.27025  0.59022  1.0000
  H   H8337     1.0  0.82957  0.44708  0.53355  1.0000
  H   H8338     1.0  0.87813  0.23826  0.52258  1.0000
  H   H8339     1.0  0.92167  0.42592  0.60222  1.0000
  H   H8340     1.0  0.91304  0.29414  0.54585  1.0000
  H   H8341     1.0  0.80005  0.28505  0.77937  1.0000
  C   C4707     1.0  0.77209  0.31999  0.77145  1.0000
  H   H8342     1.0  0.91179  0.26134  0.89330  1.0000
  C   C4708     1.0  0.97436  0.29420  0.64826  1.0000
  C   C4709     1.0  0.93949  0.31523  0.51449  1.0000
  H   H8343     1.0  0.98923  0.29951  0.54431  1.0000
  H   H8344     1.0  0.77739  0.32737  0.77561  1.0000
  H   H8345     1.0  0.81041  0.34642  0.72717  1.0000
  C   C4710     1.0  0.84901  0.24817  0.49415  1.0000
  C   C4711     1.0  0.90365  0.48243  0.52103  1.0000
  H   H8346     1.0  0.79526  0.30191  0.78809  1.0000
  H   H8347     1.0  0.92108  0.25379  0.53084  1.0000
  H   H8348     1.0  0.92797  0.43006  0.62674  1.0000
  C   C4712     1.0  0.78519  0.30554  0.76780  1.0000
  N   N262      1.0  0.76410  0.32952  0.75813  1.0000
  H   H8349     1.0  0.75043  0.32292  0.92154  1.0000
  H   H8350     1.0  0.90204  0.43334  0.59894  1.0000
  H   H8351     1.0  0.85054  0.44282  0.53092  1.0000
  C   C4713     1.0  0.83943  0.35216  0.69451  1.0000
  H   H8352     1.0  0.88332  0.39682  0.58767  1.0000
  H   H8353     1.0  0.79638  0.31815  0.65220  1.0000
  H   H8354     1.0  0.90461  0.46965  0.52256  1.0000
  H   H8355     1.0  0.92050  0.42243  0.57686  1.0000
  C   C4714     1.0  0.98654  0.25523  0.50090  1.0000
  H   H8356     1.0  0.74393  0.28595  0.94797  1.0000
  C   C4715     1.0  0.81314  0.23928  0.76999  1.0000
  H   H8357     1.0  0.75344  0.30839  0.93886  1.0000
  H   H8358     1.0  0.90052  0.29458  0.52426  1.0000
  H   H8359     1.0  0.88372  0.30149  0.54912  1.0000
  Fe  Fe535     1.0  0.86709  0.35031  0.62781  1.0000
  S   S1063     1.0  0.85917  0.35169  0.65325  1.0000
  S   S1064     1.0  0.87299  0.36936  0.60661  1.0000
  Fe  Fe536     1.0  0.87104  0.31492  0.63485  1.0000
  S   S1065     1.0  0.86436  0.31302  0.66086  1.0000
  S   S1066     1.0  0.87814  0.29274  0.62573  1.0000
  Fe  Fe537     1.0  0.84507  0.33390  0.65542  1.0000
  S   S1067     1.0  0.81974  0.33467  0.66840  1.0000
  Fe  Fe538     1.0  0.87895  0.33068  0.65674  1.0000
  S   S1068     1.0  0.89574  0.32845  0.67195  1.0000
  S   S1069     1.0  0.85096  0.33478  0.62947  1.0000
  S   S1070     1.0  0.88775  0.33035  0.63128  1.0000
  H   H8360     1.0  0.76356  0.35086  0.76470  1.0000
  S   S1071     1.0  0.86121  0.26073  0.55460  1.0000
  H   H8361     1.0  0.74691  0.32763  0.89788  1.0000
  H   H8362     1.0  0.80821  0.32699  0.72823  1.0000
  S   S1072     1.0  0.82742  0.24987  0.56894  1.0000
  H   H8363     1.0  0.85344  0.42304  0.51560  1.0000
  Fe  Fe539     1.0  0.84681  0.24856  0.54721  1.0000
  S   S1073     1.0  0.84566  0.25714  0.52143  1.0000
  Fe  Fe540     1.0  0.84317  0.25980  0.57726  1.0000
  S   S1074     1.0  0.83407  0.28083  0.58857  1.0000
  C   C4716     1.0  0.86172  0.47162  0.52601  1.0000
  C   C4717     1.0  0.94497  0.23983  0.88462  1.0000
  C   C4718     1.0  0.94557  0.25300  0.51908  1.0000
  S   S1075     1.0  0.97591  0.37304  0.65911  1.0000
  C   C4719     1.0  0.95194  0.25782  0.82157  1.0000
  H   H8364     1.0  0.78072  0.29046  0.79123  1.0000
  H   H8365     1.0  0.98899  0.34814  0.60237  1.0000
  H   H8366     1.0  0.96476  0.38750  0.60195  1.0000
  Fe  Fe541     1.0  0.96872  0.36402  0.64208  1.0000
  S   S1076     1.0  0.94494  0.37101  0.63577  1.0000
  H   H8367     1.0  0.94186  0.25063  0.88930  1.0000
  C   C4720     1.0  0.74606  0.27888  0.91607  1.0000
  H   H8368     1.0  0.82684  0.47324  0.57017  1.0000
  H   H8369     1.0  0.78468  0.31080  0.71518  1.0000
  Fe  Fe542     1.0  0.95288  0.26812  0.58609  1.0000
  S   S1077     1.0  0.96481  0.28167  0.56353  1.0000
  H   H8370     1.0  0.92167  0.28369  0.61734  1.0000
  C   C4721     1.0  0.95954  0.38997  0.59156  1.0000
  Fe  Fe543     1.0  0.97592  0.28948  0.57854  1.0000
  H   H8371     1.0  0.93459  0.25900  0.66929  1.0000
  S   S1078     1.0  0.96212  0.27786  0.60105  1.0000
  H   H8372     1.0  0.75989  0.25944  0.87011  1.0000
  H   H8373     1.0  0.97397  0.29307  0.50490  1.0000
  H   H8374     1.0  0.85685  0.25620  0.48915  1.0000
  C   C4722     1.0  0.88938  0.39252  0.64682  1.0000
  C   C4723     1.0  0.79058  0.29515  0.78260  1.0000
  S   S1079     1.0  0.88128  0.44166  0.48880  1.0000
  H   H8375     1.0  0.91566  0.46292  0.48905  1.0000
  H   H8376     1.0  0.89163  0.44141  0.51592  1.0000
  H   H8377     1.0  0.97400  0.34276  0.58601  1.0000
  H   H8378     1.0  0.94232  0.24531  0.57282  1.0000
  H   H8379     1.0  0.87257  0.31200  0.69081  1.0000
  C   C4724     1.0  0.75291  0.32064  0.75662  1.0000
  H   H8380     1.0  0.98124  0.28096  0.53066  1.0000
  C   C4725     1.0  0.91966  0.25811  0.58301  1.0000
  C   C4726     1.0  0.90336  0.26018  0.58525  1.0000
  C   C4727     1.0  0.89702  0.25145  0.57895  1.0000
  C   C4728     1.0  0.82160  0.46451  0.58007  1.0000
  C   C4729     1.0  0.92971  0.24700  0.57460  1.0000
  H   H8381     1.0  0.88441  0.25340  0.58051  1.0000
  C   C4730     1.0  0.90906  0.34079  0.66235  1.0000
  C   C4731     1.0  0.92141  0.34037  0.66908  1.0000
  C   C4732     1.0  0.93263  0.34952  0.66099  1.0000
  C   C4733     1.0  0.93125  0.35938  0.64631  1.0000
  C   C4734     1.0  0.91864  0.36015  0.63984  1.0000
  C   C4735     1.0  0.90760  0.35087  0.64780  1.0000
  H   H8382     1.0  0.92237  0.33289  0.68049  1.0000
  H   H8383     1.0  0.94226  0.34905  0.66612  1.0000
  H   H8384     1.0  0.91749  0.36786  0.62855  1.0000
  H   H8385     1.0  0.89790  0.35164  0.64269  1.0000
  C   C4736     1.0  0.86599  0.28968  0.61513  1.0000
  C   C4737     1.0  0.85430  0.30189  0.60942  1.0000
  C   C4738     1.0  0.84455  0.29906  0.60130  1.0000
  C   C4739     1.0  0.84663  0.28407  0.59857  1.0000
  C   C4740     1.0  0.85839  0.27188  0.60421  1.0000
  C   C4741     1.0  0.86794  0.27466  0.61257  1.0000
  H   H8386     1.0  0.85273  0.31353  0.61120  1.0000
  H   H8387     1.0  0.83547  0.30854  0.59698  1.0000
  H   H8388     1.0  0.86005  0.26026  0.60229  1.0000
  H   H8389     1.0  0.87692  0.26512  0.61701  1.0000
  H   H8390     1.0  0.91883  0.39808  0.64168  1.0000
  H   H8391     1.0  0.90725  0.29605  0.87593  1.0000
  H   H8392     1.0  0.95489  0.25936  0.51747  1.0000
  C   C4742     1.0  0.95829  0.40725  0.58313  1.0000
  S   S1080     1.0  0.85570  0.23649  0.58924  1.0000
  H   H8393     1.0  0.80681  0.24762  0.76165  1.0000
  C   C4743     1.0  0.87528  0.45973  0.52675  1.0000
  H   H8394     1.0  0.95222  0.40949  0.57337  1.0000
  C   C4744     1.0  0.75648  0.24623  0.80702  1.0000
  H   H8395     1.0  0.80748  0.26735  0.61881  1.0000
  C   C4745     1.0  0.98837  0.30058  0.78200  1.0000
  H   H8396     1.0  0.95081  0.41443  0.59165  1.0000
  H   H8397     1.0  0.84584  0.39453  0.56490  1.0000
  H   H8398     1.0  0.83972  0.30870  0.68546  1.0000
  C   C4746     1.0  0.76104  0.25485  0.90493  1.0000
  H   H8399     1.0  0.87093  0.40582  0.55279  1.0000
  H   H8400     1.0  0.89958  0.28844  0.89641  1.0000
  H   H8401     1.0  0.74424  0.33674  0.78666  1.0000
  H   H8402     1.0  0.84356  0.44759  0.58052  1.0000
  H   H8403     1.0  0.91737  0.45862  0.59958  1.0000
  C   C4747     1.0  0.84217  0.24580  0.51026  1.0000
  H   H8404     1.0  0.86867  0.33600  0.69997  1.0000
  H   H8405     1.0  0.79608  0.34046  0.62938  1.0000
  H   H8406     1.0  0.89565  0.26893  0.59152  1.0000
  H   H8407     1.0  0.94048  0.48035  0.55387  1.0000
  C   C4748     1.0  0.87486  0.38737  0.65820  1.0000
  H   H8408     1.0  0.88105  0.45738  0.53637  1.0000
  H   H8409     1.0  0.84783  0.29368  0.65332  1.0000
  Fe  Fe544     1.0  0.76685  0.25982  0.73244  1.0000
  H   H8410     1.0  0.77333  0.32435  0.93028  1.0000
  C   C4749     1.0  0.84355  0.28736  0.75261  1.0000
  C   C4750     1.0  0.88751  0.25721  0.50645  1.0000
  C   C4751     1.0  0.83865  0.38657  0.58969  1.0000
  H   H8411     1.0  0.90656  0.25990  0.85362  1.0000
  C   C4752     1.0  0.75822  0.31179  0.92604  1.0000
  C   C4753     1.0  0.92999  0.33022  0.55557  1.0000
  H   H8412     1.0  0.75499  0.29545  0.81295  1.0000
  C   C4754     1.0  0.82704  0.24193  0.77160  1.0000
  H   H8413     1.0  0.87306  0.39049  0.66968  1.0000
  C   C4755     1.0  0.85726  0.39290  0.62277  1.0000
  H   H8414     1.0  0.83118  0.25236  0.76459  1.0000
  C   C4756     1.0  0.89252  0.44239  0.64373  1.0000
  H   H8415     1.0  0.84049  0.41714  0.58661  1.0000
  C   C4757     1.0  0.75894  0.27258  0.90259  1.0000
  H   H8416     1.0  0.78579  0.27982  0.69444  1.0000
  H   H8417     1.0  0.78105  0.29836  0.76242  1.0000
  C   C4758     1.0  0.81101  0.28202  0.64053  1.0000
  Fe  Fe545     1.0  0.98454  0.26041  0.56486  1.0000
  H   H8418     1.0  0.88979  0.29149  0.56736  1.0000
  C   C4759     1.0  0.80672  0.27090  0.67778  1.0000
  H   H8419     1.0  0.79758  0.31207  0.63450  1.0000
  H   H8420     1.0  0.83068  0.27791  0.48861  1.0000
  C   C4760     1.0  0.92972  0.26139  0.52818  1.0000
  S   S1081     1.0  0.92042  0.45831  0.56726  1.0000
  H   H8421     1.0  0.95582  0.24013  0.87531  1.0000
  H   H8422     1.0  0.75546  0.25801  0.79905  1.0000
  H   H8423     1.0  0.85185  0.38415  0.63172  1.0000
  C   C4761     1.0  0.93256  0.47330  0.59931  1.0000
  C   C4762     1.0  0.87219  0.41815  0.54933  1.0000
  H   H8424     1.0  0.75478  0.25468  0.82734  1.0000
  C   C4763     1.0  0.74286  0.32914  0.74406  1.0000
  S   S1082     1.0  0.87804  0.45353  0.57158  1.0000
  H   H8425     1.0  0.81011  0.24762  0.63048  1.0000
  H   H8426     1.0  0.94085  0.31233  0.52683  1.0000
  N   N263      1.0  0.92302  0.27795  0.52014  1.0000
  H   H8427     1.0  0.89915  0.23594  0.51962  1.0000
  H   H8428     1.0  0.85470  0.46829  0.49200  1.0000
  H   H8429     1.0  0.98393  0.42875  0.59759  1.0000
  C   C4764     1.0  0.86807  0.38867  0.60947  1.0000
  C   C4765     1.0  0.87485  0.40013  0.59787  1.0000
  S   S1083     1.0  0.88255  0.46965  0.59851  1.0000
  H   H8430     1.0  0.83116  0.26742  0.79261  1.0000
  C   C4766     1.0  0.85318  0.40862  0.62431  1.0000
  H   H8431     1.0  0.81818  0.28477  0.51433  1.0000
  C   C4767     1.0  0.81966  0.30425  0.64333  1.0000
  H   H8432     1.0  0.87158  0.42245  0.53675  1.0000
  C   C4768     1.0  0.81793  0.29401  0.50335  1.0000
  H   H8433     1.0  0.86634  0.27457  0.66773  1.0000
  C   C4769     1.0  0.79785  0.27248  0.69444  1.0000
  C   C4770     1.0  0.87392  0.45385  0.50252  1.0000
  C   C4771     1.0  0.85996  0.42010  0.61265  1.0000
  H   H8434     1.0  0.82634  0.38733  0.58918  1.0000
  H   H8435     1.0  0.79723  0.34394  0.71677  1.0000
  H   H8436     1.0  0.95122  0.31253  0.50664  1.0000
  C   C4772     1.0  0.90658  0.28509  0.54663  1.0000
  C   C4773     1.0  0.88865  0.41825  0.55058  1.0000
  H   H8437     1.0  0.94499  0.39937  0.64554  1.0000
  H   H8438     1.0  0.79570  0.30925  0.75944  1.0000
  H   H8439     1.0  0.95088  0.28416  0.68382  1.0000
  H   H8440     1.0  0.84472  0.41189  0.63456  1.0000
  H   H8441     1.0  0.85603  0.25921  0.67068  1.0000
  H   H8442     1.0  0.81933  0.44319  0.56455  1.0000
  C   C4774     1.0  0.82455  0.29932  0.70667  1.0000
  S   S1084     1.0  0.97184  0.24621  0.58683  1.0000
  C   C4775     1.0  0.78855  0.34082  0.74223  1.0000
  H   H8443     1.0  0.77947  0.31931  0.91129  1.0000
  H   H8444     1.0  0.81432  0.25668  0.65207  1.0000
  H   H8445     1.0  0.82192  0.24424  0.81028  1.0000
  C   C4776     1.0  0.88802  0.46033  0.63897  1.0000
  S   S1085     1.0  0.85496  0.43964  0.61502  1.0000
  C   C4777     1.0  0.81565  0.32046  0.68581  1.0000
  H   H8446     1.0  0.91692  0.24057  0.85195  1.0000
  H   H8447     1.0  0.81842  0.26323  0.67877  1.0000
  H   H8448     1.0  0.86069  0.44101  0.55383  1.0000
  H   H8449     1.0  0.75002  0.25205  0.90445  1.0000
  H   H8450     1.0  0.96258  0.25961  0.82410  1.0000
  H   H8451     1.0  0.91100  0.30026  0.59519  1.0000
  S   S1086     1.0  0.98213  0.33946  0.64943  1.0000
  C   C4778     1.0  0.87053  0.32952  0.57456  1.0000
  H   H8452     1.0  0.93191  0.26122  0.53970  1.0000
  H   H8453     1.0  0.97828  0.29209  0.83865  1.0000
  H   H8454     1.0  0.80670  0.30284  0.50513  1.0000
  S   S1087     1.0  0.76433  0.25504  0.71031  1.0000
  H   H8455     1.0  0.81348  0.33699  0.63685  1.0000
  H   H8456     1.0  0.84951  0.32965  0.68888  1.0000
  H   H8457     1.0  0.88845  0.23734  0.85739  1.0000
  H   H8458     1.0  0.97831  0.28536  0.65844  1.0000
  H   H8459     1.0  0.91942  0.26607  0.50404  1.0000
  H   H8460     1.0  0.84178  0.27809  0.63895  1.0000
  H   H8461     1.0  0.89221  0.26934  0.69245  1.0000
  Fe  Fe546     1.0  0.75318  0.27452  0.76100  1.0000
  C   C4779     1.0  0.80410  0.31618  0.64073  1.0000
  S   S1088     1.0  0.79116  0.25247  0.73701  1.0000
  C   C4780     1.0  0.93031  0.41709  0.63063  1.0000
  C   C4781     1.0  0.80736  0.33206  0.63090  1.0000
  H   H8462     1.0  0.78255  0.30432  0.92879  1.0000
  S   S1089     1.0  0.85173  0.23593  0.78549  1.0000
  C   C4782     1.0  0.80020  0.25693  0.82347  1.0000
  C   C4783     1.0  0.96658  0.43779  0.58255  1.0000
  H   H8463     1.0  0.92747  0.25909  0.83154  1.0000
  H   H8464     1.0  0.80009  0.26507  0.67333  1.0000
  H   H8465     1.0  0.78175  0.32067  0.73918  1.0000
  C   C4784     1.0  0.97109  0.43111  0.59881  1.0000
  C   C4785     1.0  0.93840  0.47821  0.56655  1.0000
  H   H8466     1.0  0.82119  0.46747  0.59130  1.0000
  H   H8467     1.0  0.74280  0.36532  0.78313  1.0000
  H   H8468     1.0  0.75944  0.30920  0.75354  1.0000
  C   C4786     1.0  0.96351  0.44260  0.60969  1.0000
  Fe  Fe547     1.0  0.98244  0.25714  0.59982  1.0000
  C   C4787     1.0  0.92850  0.46825  0.57596  1.0000
  H   H8469     1.0  0.78319  0.35350  0.74172  1.0000
  H   H8470     1.0  0.98102  0.29594  0.62259  1.0000
  H   H8471     1.0  0.95359  0.43944  0.58451  1.0000
  H   H8472     1.0  0.95402  0.43526  0.56085  1.0000
  H   H8473     1.0  0.87137  0.27660  0.69366  1.0000
  H   H8474     1.0  0.98802  0.24804  0.49263  1.0000
  H   H8475     1.0  0.80803  0.25610  0.79834  1.0000
  S   S1090     1.0  0.85322  0.48219  0.54107  1.0000
  H   H8476     1.0  0.76578  0.28754  0.92472  1.0000
  H   H8477     1.0  0.76066  0.24035  0.68781  1.0000
  C   C4788     1.0  0.85447  0.47484  0.51329  1.0000
  C   C4789     1.0  0.88548  0.24260  0.86782  1.0000
  H   H8478     1.0  0.97074  0.42603  0.54858  1.0000
  H   H8479     1.0  0.97950  0.27655  0.63396  1.0000
  H   H8480     1.0  0.92053  0.28612  0.88911  1.0000
  H   H8481     1.0  0.76326  0.31566  0.78189  1.0000
  H   H8482     1.0  0.96355  0.44824  0.52547  1.0000
  H   H8483     1.0  0.78664  0.24309  0.80597  1.0000
  C   C4790     1.0  0.92788  0.31997  0.57252  1.0000
  H   H8484     1.0  0.85875  0.39586  0.57632  1.0000
  H   H8485     1.0  0.98191  0.40595  0.58580  1.0000
  H   H8486     1.0  0.95379  0.41540  0.63364  1.0000
  C   C4791     1.0  0.98895  0.25758  0.52635  1.0000
  H   H8487     1.0  0.96725  0.45395  0.60440  1.0000
  H   H8488     1.0  0.95051  0.44463  0.61204  1.0000
  H   H8489     1.0  0.96725  0.43765  0.62106  1.0000
  H   H8490     1.0  0.87706  0.46409  0.63440  1.0000
  C   C4792     1.0  0.86059  0.46603  0.50152  1.0000
  C   C4793     1.0  0.83470  0.27772  0.65119  1.0000
  C   C4794     1.0  0.85907  0.27014  0.66258  1.0000
  H   H8491     1.0  0.87138  0.34033  0.56519  1.0000
  H   H8492     1.0  0.83463  0.26513  0.65623  1.0000
  H   H8493     1.0  0.94478  0.23796  0.84928  1.0000
  C   C4795     1.0  0.75936  0.29843  0.91784  1.0000
  H   H8494     1.0  0.80952  0.28036  0.49299  1.0000
  H   H8495     1.0  0.88291  0.28105  0.55731  1.0000
  C   C4796     1.0  0.83170  0.44313  0.56440  1.0000
  H   H8496     1.0  0.83023  0.35441  0.68771  1.0000
  H   H8497     1.0  0.90481  0.41209  0.58579  1.0000
  H   H8498     1.0  0.77054  0.25057  0.89540  1.0000
  C   C4797     1.0  0.88970  0.29012  0.55557  1.0000
  C   C4798     1.0  0.74453  0.29103  0.79631  1.0000
  C   C4799     1.0  0.83217  0.23526  0.51676  1.0000
  H   H8499     1.0  0.76057  0.47801  0.94936  1.0000
  H   H8500     1.0  0.74949  0.30280  0.89077  1.0000
  H   H8501     1.0  0.85804  0.30130  0.70194  1.0000
  H   H8502     1.0  0.96718  0.41995  0.60474  1.0000
  H   H8503     1.0  0.93562  0.41172  0.62022  1.0000
  H   H8504     1.0  0.90821  0.30210  0.49776  1.0000
  H   H8505     1.0  0.76535  0.27139  0.83410  1.0000
  H   H8506     1.0  0.98168  0.45066  0.54039  1.0000
  H   H8507     1.0  0.75560  0.27795  0.89106  1.0000
  H   H8508     1.0  0.97813  0.24860  0.79639  1.0000
  C   C4800     1.0  0.92317  0.26738  0.86810  1.0000
  C   C4801     1.0  0.91000  0.27055  0.88261  1.0000
  C   C4802     1.0  0.88909  0.23968  0.51369  1.0000
  C   C4803     1.0  0.93761  0.26101  0.83481  1.0000
  H   H8509     1.0  0.77012  0.24042  0.84808  1.0000
  N   N264      1.0  0.97509  0.42828  0.57018  1.0000
  H   H8510     1.0  0.76984  0.33917  0.73308  1.0000
  H   H8511     1.0  0.96542  0.45966  0.55375  1.0000
  C   C4804     1.0  0.80188  0.33945  0.72769  1.0000
  Fe  Fe548     1.0  0.86451  0.47730  0.56189  1.0000
  Fe  Fe549     1.0  0.87268  0.23669  0.56589  1.0000
  C   C4805     1.0  0.84570  0.24032  0.48447  1.0000
  H   H8512     1.0  0.88529  0.28722  0.67923  1.0000
  S   S1091     1.0  0.97552  0.31508  0.57567  1.0000
  H   H8513     1.0  0.95063  0.25342  0.85302  1.0000
  H   H8514     1.0  0.93407  0.26998  0.86928  1.0000
  H   H8515     1.0  0.91955  0.27655  0.85796  1.0000
  N   N265      1.0  0.74409  0.29594  0.91624  1.0000
  C   C4806     1.0  0.92522  0.46613  0.59233  1.0000
  H   H8516     1.0  0.93542  0.27357  0.83517  1.0000
  C   C4807     1.0  0.94737  0.32898  0.54749  1.0000
  S   S1092     1.0  0.98905  0.24641  0.62351  1.0000
  H   H8517     1.0  0.79382  0.33619  0.75271  1.0000
  H   H8518     1.0  0.76424  0.24856  0.91639  1.0000
  C   C4808     1.0  0.98251  0.27369  0.52256  1.0000
  H   H8519     1.0  0.96670  0.29379  0.68054  1.0000
  H   H8520     1.0  0.93044  0.47123  0.61197  1.0000
  H   H8521     1.0  0.74487  0.31732  0.76815  1.0000
  C   C4809     1.0  0.97484  0.41111  0.57656  1.0000
  C   C4810     1.0  0.98660  0.23955  0.79040  1.0000
  C   C4811     1.0  0.89611  0.43488  0.62933  1.0000
  N   N266      1.0  0.78908  0.24587  0.82812  1.0000
  H   H8522     1.0  0.98454  0.25291  0.76722  1.0000
  H   H8523     1.0  0.79793  0.28531  0.64385  1.0000
  H   H8524     1.0  0.92884  0.30839  0.49993  1.0000
  H   H8525     1.0  0.81474  0.33083  0.61909  1.0000
  H   H8526     1.0  0.75157  0.35365  0.75142  1.0000
  H   H8527     1.0  0.89073  0.43036  0.54679  1.0000
  H   H8528     1.0  0.93840  0.41837  0.65072  1.0000
  H   H8529     1.0  0.89841  0.27125  0.88025  1.0000
  H   H8530     1.0  0.75023  0.27793  0.85961  1.0000
  C   C4812     1.0  0.80905  0.30001  0.71523  1.0000
  Fe  Fe550     1.0  0.89444  0.46668  0.57403  1.0000
  H   H8531     1.0  0.89100  0.38850  0.63586  1.0000
  C   C4813     1.0  0.74416  0.29523  0.81024  1.0000
  C   C4814     1.0  0.84540  0.33446  0.69965  1.0000
  H   H8532     1.0  0.78615  0.24391  0.85302  1.0000
  H   H8533     1.0  0.80937  0.46534  0.57930  1.0000
  C   C4815     1.0  0.98359  0.33376  0.58999  1.0000
  H   H8534     1.0  0.98835  0.26965  0.79092  1.0000
  C   C4816     1.0  0.88127  0.45077  0.51513  1.0000
  C   C4817     1.0  0.81317  0.25548  0.80834  1.0000
  H   H8535     1.0  0.79054  0.32912  0.68930  1.0000
  N   N267      1.0  0.90118  0.41717  0.63232  1.0000
  H   H8536     1.0  0.91261  0.39974  0.61808  1.0000
  C   C4818     1.0  0.83793  0.41513  0.57608  1.0000
  H   H8537     1.0  0.86620  0.26738  0.65117  1.0000
  H   H8538     1.0  0.88542  0.43880  0.62421  1.0000
  H   H8539     1.0  0.95407  0.24560  0.82010  1.0000
  C   C4819     1.0  0.94256  0.41226  0.64078  1.0000
  H   H8540     1.0  0.84206  0.44165  0.50746  1.0000
  H   H8541     1.0  0.96868  0.44992  0.57839  1.0000
  H   H8542     1.0  0.79355  0.26935  0.82157  1.0000
  H   H8543     1.0  0.87651  0.37443  0.66022  1.0000
  H   H8544     1.0  0.79684  0.26067  0.70185  1.0000
  C   C4820     1.0  0.98019  0.27137  0.49712  1.0000
  C   C4821     1.0  0.75591  0.26552  0.85900  1.0000
  Fe  Fe551     1.0  0.77917  0.24524  0.76211  1.0000
  C   C4822     1.0  0.84415  0.28263  0.66022  1.0000
  H   H8545     1.0  0.87945  0.33660  0.59054  1.0000
  H   H8546     1.0  0.98385  0.29659  0.79481  1.0000
  C   C4823     1.0  0.88240  0.32654  0.58476  1.0000
  H   H8547     1.0  0.86421  0.39302  0.65327  1.0000
  H   H8548     1.0  0.87254  0.31934  0.56917  1.0000
  C   C4824     1.0  0.96919  0.45083  0.54638  1.0000
  S   S1093     1.0  0.75513  0.25053  0.75731  1.0000
  H   H8549     1.0  0.81425  0.28817  0.62796  1.0000
  H   H8550     1.0  0.75558  0.28802  0.78832  1.0000
  H   H8551     1.0  0.74900  0.27111  0.92721  1.0000
  H   H8552     1.0  0.83419  0.35758  0.70490  1.0000
  H   H8553     1.0  0.91196  0.27394  0.55373  1.0000
  H   H8554     1.0  0.89946  0.27464  0.53156  1.0000
  H   H8555     1.0  0.79339  0.26235  0.63699  1.0000
  C   C4825     1.0  0.87086  0.41577  0.59948  1.0000
  H   H8556     1.0  0.82810  0.30477  0.63179  1.0000
  C   C4826     1.0  0.90699  0.24046  0.57042  1.0000
  H   H8557     1.0  0.82608  0.44000  0.59025  1.0000
  H   H8558     1.0  0.87719  0.26183  0.50087  1.0000
  N   N268      1.0  0.95666  0.29808  0.65113  1.0000
  H   H8559     1.0  0.98677  0.23668  0.70339  1.0000
  C   C4827     1.0  0.95017  0.30589  0.66497  1.0000
  C   C4828     1.0  0.95096  0.28312  0.65425  1.0000
  C   C4829     1.0  0.95102  0.30916  0.63700  1.0000
  C   C4830     1.0  0.95742  0.32443  0.63054  1.0000
  H   H8560     1.0  0.97884  0.30474  0.64745  1.0000
  C   C4831     1.0  0.93302  0.28427  0.66107  1.0000
  C   C4832     1.0  0.95398  0.29577  0.68089  1.0000
  C   C4833     1.0  0.94501  0.30408  0.69434  1.0000
  C   C4834     1.0  0.94995  0.33496  0.61700  1.0000
  H   H8561     1.0  0.88367  0.23634  0.49315  1.0000
  C   C4835     1.0  0.92830  0.26916  0.66161  1.0000
  C   C4836     1.0  0.92334  0.23811  0.56840  1.0000
  H   H8562     1.0  0.83215  0.28930  0.74922  1.0000
  H   H8563     1.0  0.95485  0.31660  0.66277  1.0000
  H   H8564     1.0  0.93719  0.31014  0.66653  1.0000
  H   H8565     1.0  0.95737  0.27347  0.66233  1.0000
  H   H8566     1.0  0.95383  0.27882  0.64318  1.0000
  H   H8567     1.0  0.95388  0.30311  0.62708  1.0000
  H   H8568     1.0  0.93796  0.31293  0.63978  1.0000
  H   H8569     1.0  0.97035  0.32181  0.62608  1.0000
  H   H8570     1.0  0.95469  0.33133  0.63965  1.0000
  H   H8571     1.0  0.93027  0.30749  0.57151  1.0000
  C   C4837     1.0  0.93413  0.28815  0.51892  1.0000
  H   H8572     1.0  0.92588  0.29414  0.65396  1.0000
  H   H8573     1.0  0.92968  0.28615  0.67325  1.0000
  H   H8574     1.0  0.93454  0.32803  0.51115  1.0000
  H   H8575     1.0  0.94553  0.28460  0.51083  1.0000
  H   H8576     1.0  0.94833  0.29690  0.70550  1.0000
  H   H8577     1.0  0.94796  0.31574  0.69205  1.0000
  H   H8578     1.0  0.93212  0.30569  0.69575  1.0000
  H   H8579     1.0  0.93696  0.33803  0.62091  1.0000
  H   H8580     1.0  0.95433  0.34602  0.61282  1.0000
  H   H8581     1.0  0.95307  0.32890  0.60711  1.0000
  C   C4838     1.0  0.91275  0.24868  0.86021  1.0000
  C   C4839     1.0  0.76307  0.24581  0.82094  1.0000
  C   C4840     1.0  0.77442  0.31509  0.92394  1.0000
  H   H8582     1.0  0.77046  0.27500  0.90204  1.0000
  H   H8583     1.0  0.93104  0.26683  0.64962  1.0000
  H   H8584     1.0  0.83866  0.38930  0.60090  1.0000
  N   N269      1.0  0.86508  0.31364  0.71529  1.0000
  C   C4841     1.0  0.87991  0.31258  0.72044  1.0000
  C   C4842     1.0  0.86881  0.30452  0.70253  1.0000
  C   C4843     1.0  0.85893  0.33078  0.70845  1.0000
  C   C4844     1.0  0.85243  0.30805  0.72887  1.0000
  C   C4845     1.0  0.85651  0.29086  0.73805  1.0000
  C   C4846     1.0  0.87818  0.32199  0.73297  1.0000
  C   C4847     1.0  0.88222  0.28949  0.70328  1.0000
  C   C4848     1.0  0.88274  0.28014  0.69141  1.0000
  H   H8585     1.0  0.93328  0.27814  0.49542  1.0000
  C   C4849     1.0  0.89389  0.31939  0.73755  1.0000
  H   H8586     1.0  0.88891  0.31670  0.70998  1.0000
  H   H8587     1.0  0.88531  0.30026  0.72529  1.0000
  H   H8588     1.0  0.91656  0.31064  0.51902  1.0000
  H   H8589     1.0  0.85444  0.33761  0.71786  1.0000
  H   H8590     1.0  0.84847  0.31590  0.73736  1.0000
  H   H8591     1.0  0.84171  0.30892  0.72472  1.0000
  H   H8592     1.0  0.86761  0.28829  0.74210  1.0000
  H   H8593     1.0  0.85746  0.28270  0.73053  1.0000
  H   H8594     1.0  0.87441  0.33479  0.72840  1.0000
  H   H8595     1.0  0.86956  0.31824  0.74382  1.0000
  H   H8596     1.0  0.89378  0.29283  0.70034  1.0000
  H   H8597     1.0  0.88097  0.28157  0.71505  1.0000
  H   H8598     1.0  0.96137  0.46826  0.52672  1.0000
  H   H8599     1.0  0.82721  0.42189  0.55038  1.0000
  H   H8600     1.0  0.98255  0.27694  0.77270  1.0000
  H   H8601     1.0  0.94470  0.25219  0.50736  1.0000
  C   C4850     1.0  0.94326  0.48246  0.58987  1.0000
  H   H8602     1.0  0.89807  0.30679  0.74279  1.0000
  H   H8603     1.0  0.90292  0.32324  0.72709  1.0000
  H   H8604     1.0  0.89243  0.32637  0.74638  1.0000
  N   N270      1.0  0.91201  0.32421  0.58316  1.0000
  C   C4851     1.0  0.91073  0.31154  0.59802  1.0000
  C   C4852     1.0  0.90888  0.34022  0.58688  1.0000
  C   C4853     1.0  0.92323  0.34584  0.58784  1.0000
  C   C4854     1.0  0.92316  0.30831  0.60794  1.0000
  C   C4855     1.0  0.92136  0.29416  0.62160  1.0000
  C   C4856     1.0  0.91798  0.36002  0.59552  1.0000
  H   H8605     1.0  0.93755  0.32038  0.57760  1.0000
  H   H8606     1.0  0.89920  0.31429  0.60613  1.0000
  H   H8607     1.0  0.90324  0.34957  0.57797  1.0000
  H   H8608     1.0  0.90003  0.34077  0.59810  1.0000
  H   H8609     1.0  0.93037  0.34939  0.57588  1.0000
  H   H8610     1.0  0.93109  0.33657  0.59460  1.0000
  H   H8611     1.0  0.93529  0.30572  0.60089  1.0000
  H   H8612     1.0  0.92160  0.31850  0.61314  1.0000
  H   H8613     1.0  0.93124  0.29124  0.62757  1.0000
  H   H8614     1.0  0.91008  0.29675  0.63018  1.0000
  H   H8615     1.0  0.91127  0.35684  0.60780  1.0000
  H   H8616     1.0  0.92843  0.36397  0.59583  1.0000
  H   H8617     1.0  0.91040  0.36991  0.58881  1.0000
  H   H8618     1.0  0.85843  0.33111  0.58198  1.0000
  H   H8619     1.0  0.94690  0.45728  0.53889  1.0000
  C   C4857     1.0  0.80793  0.28722  0.66701  1.0000
  H   H8620     1.0  0.92414  0.40331  0.58974  1.0000
  H   H8621     1.0  0.87647  0.42438  0.59070  1.0000
  H   H8622     1.0  0.83220  0.42610  0.51904  1.0000
  H   H8623     1.0  0.83719  0.28442  0.67197  1.0000
  C   C4858     1.0  0.75533  0.23446  0.69937  1.0000
  H   H8624     1.0  0.95326  0.23661  0.53952  1.0000
  H   H8625     1.0  0.90298  0.43933  0.64898  1.0000
  H   H8626     1.0  0.82454  0.30900  0.65060  1.0000
  C   C4859     1.0  0.84038  0.43759  0.53256  1.0000
  H   H8627     1.0  0.88539  0.41346  0.65525  1.0000
  C   C4860     1.0  0.75546  0.23934  0.71269  1.0000
  C   C4861     1.0  0.79671  0.31033  0.70870  1.0000
  H   H8628     1.0  0.98071  0.47895  0.63624  1.0000
  H   H8629     1.0  0.80424  0.27775  0.69977  1.0000
  H   H8630     1.0  0.88587  0.46547  0.64936  1.0000
  S   S1094     1.0  0.84985  0.48122  0.58555  1.0000
  H   H8631     1.0  0.87946  0.25512  0.86466  1.0000
  C   C4862     1.0  0.83148  0.44792  0.57965  1.0000
  H   H8632     1.0  0.96689  0.38213  0.58354  1.0000
  H   H8633     1.0  0.94770  0.38718  0.59584  1.0000
  H   H8634     1.0  0.88251  0.43855  0.65286  1.0000
  C   C4863     1.0  0.95964  0.45642  0.53360  1.0000
  H   H8635     1.0  0.98075  0.40436  0.56720  1.0000
  H   H8636     1.0  0.91544  0.27036  0.66635  1.0000
  H   H8637     1.0  0.87650  0.41622  0.63917  1.0000
  C   C4864     1.0  0.84631  0.39785  0.57560  1.0000
  H   H8638     1.0  0.83405  0.29109  0.71159  1.0000
  C   C4865     1.0  0.82779  0.30932  0.69189  1.0000
  H   H8639     1.0  0.89020  0.41342  0.56283  1.0000
  H   H8640     1.0  0.93720  0.28625  0.53049  1.0000
  C   C4866     1.0  0.77587  0.33207  0.74273  1.0000
  H   H8641     1.0  0.89825  0.25937  0.49743  1.0000
  H   H8642     1.0  0.97839  0.30488  0.77592  1.0000
  C   C4867     1.0  0.75545  0.34528  0.76189  1.0000
  H   H8643     1.0  0.89703  0.28733  0.50261  1.0000
  C   C4868     1.0  0.90451  0.41155  0.61720  1.0000
  C   C4869     1.0  0.91541  0.41452  0.58769  1.0000
  H   H8644     1.0  0.77811  0.26211  0.80954  1.0000
  H   H8645     1.0  0.95341  0.31653  0.54747  1.0000
  S   S1095     1.0  0.77631  0.26833  0.76797  1.0000
  H   H8646     1.0  0.89954  0.38624  0.65233  1.0000
  C   C4870     1.0  0.97846  0.28056  0.50791  1.0000
  H   H8647     1.0  0.83505  0.45294  0.55451  1.0000
  S   S1096     1.0  0.98393  0.25898  0.84535  1.0000
  C   C4871     1.0  0.77883  0.24796  0.84397  1.0000
  H   H8648     1.0  0.84729  0.41341  0.54442  1.0000
  Fe  Fe552     1.0  0.86490  0.45821  0.59529  1.0000
  S   S1097     1.0  0.98790  0.37106  0.62166  1.0000
  S   S1098     1.0  0.98550  0.47625  0.56306  1.0000
  H   H8649     1.0  0.76739  0.30052  0.90605  1.0000
  H   H8650     1.0  0.89353  0.40985  0.61533  1.0000
  H   H8651     1.0  0.89761  0.46504  0.62981  1.0000
  H   H8652     1.0  0.94981  0.26600  0.81035  1.0000
  S   S1099     1.0  0.76287  0.28447  0.73553  1.0000
  H   H8653     1.0  0.94848  0.33576  0.53515  1.0000
  H   H8654     1.0  0.82499  0.41592  0.57872  1.0000
  H   H8655     1.0  0.92429  0.32620  0.54845  1.0000
  H   H8656     1.0  0.83522  0.32954  0.70715  1.0000
  H   H8657     1.0  0.95331  0.33387  0.55366  1.0000
  H   H8658     1.0  0.91209  0.41340  0.65191  1.0000
  C   C4872     1.0  0.94050  0.25028  0.85087  1.0000
  C   C4873     1.0  0.91522  0.41109  0.63987  1.0000
  H   H8659     1.0  0.89762  0.41094  0.54287  1.0000
  H   H8660     1.0  0.82797  0.29970  0.50114  1.0000
  C   C4874     1.0  0.83924  0.42426  0.54758  1.0000
  H   H8661     1.0  0.75034  0.32919  0.73206  1.0000
  N   N271      1.0  0.81828  0.28745  0.65077  1.0000
  C   C4875     1.0  0.90692  0.28313  0.53007  1.0000
  C   C4876     1.0  0.91110  0.42245  0.60161  1.0000
  H   H8662     1.0  0.84218  0.29490  0.76089  1.0000
  C   C4877     1.0  0.76983  0.26507  0.84489  1.0000
  H   H8663     1.0  0.77789  0.27169  0.84620  1.0000
  H   H8664     1.0  0.84917  0.35780  0.68688  1.0000
  C   C4878     1.0  0.92178  0.27754  0.50392  1.0000
  H   H8665     1.0  0.82866  0.26742  0.81303  1.0000
  S   S1100     1.0  0.85756  0.23876  0.82556  1.0000
  H   H8666     1.0  0.90515  0.44053  0.62041  1.0000
  H   H8667     1.0  0.82832  0.26125  0.63398  1.0000
  C   C4879     1.0  0.90870  0.29016  0.49661  1.0000
  C   C4880     1.0  0.90935  0.28627  0.88617  1.0000
  N   N272      1.0  0.92663  0.25127  0.86472  1.0000
  C   C4881     1.0  0.81579  0.26428  0.64012  1.0000
  C   C4882     1.0  0.80004  0.32068  0.69406  1.0000
  H   H8668     1.0  0.80628  0.25527  0.83318  1.0000
  C   C4883     1.0  0.85925  0.42878  0.55946  1.0000
  H   H8669     1.0  0.79565  0.29351  0.66622  1.0000
  H   H8670     1.0  0.89176  0.47806  0.49915  1.0000
  H   H8671     1.0  0.81437  0.28027  0.80198  1.0000
  H   H8672     1.0  0.81169  0.29398  0.67335  1.0000
  C   C4884     1.0  0.88755  0.41062  0.64357  1.0000
  H   H8673     1.0  0.74698  0.25987  0.85781  1.0000
  H   H8674     1.0  0.86228  0.42644  0.57106  1.0000
  N   N273      1.0  0.84241  0.42760  0.56172  1.0000
  C   C4885     1.0  0.96695  0.43442  0.55654  1.0000
  C   C4886     1.0  0.89958  0.32416  0.57495  1.0000
  H   H8675     1.0  0.88576  0.26363  0.51582  1.0000
  S   S1101     1.0  0.80575  0.28943  0.73478  1.0000
  H   H8676     1.0  0.79623  0.23664  0.88666  1.0000
  C   C4887     1.0  0.92856  0.30599  0.51268  1.0000
  C   C4888     1.0  0.81933  0.28653  0.48970  1.0000
  C   C4889     1.0  0.82233  0.26851  0.80375  1.0000
  C   C4890     1.0  0.77980  0.24944  0.81552  1.0000
  H   H8677     1.0  0.84536  0.37431  0.58959  1.0000
  H   H8678     1.0  0.84663  0.27487  0.75879  1.0000
  C   C4891     1.0  0.84210  0.43165  0.51782  1.0000
  Fe  Fe553     1.0  0.78628  0.27626  0.74224  1.0000
  H   H8679     1.0  0.90224  0.31286  0.57109  1.0000
  H   H8680     1.0  0.89963  0.33361  0.56409  1.0000
  H   H8681     1.0  0.92448  0.34277  0.55551  1.0000
  H   H8682     1.0  0.88077  0.31580  0.59395  1.0000
  C   C4892     1.0  0.80604  0.26022  0.63106  1.0000
  H   H8683     1.0  0.78495  0.23641  0.62252  1.0000
  H   H8684     1.0  0.87721  0.23629  0.87728  1.0000
  H   H8685     1.0  0.74834  0.23549  0.73790  1.0000
  H   H8686     1.0  0.76409  0.23728  0.80036  1.0000
  H   H8687     1.0  0.75950  0.45760  0.95594  1.0000
  C   C4893     1.0  0.98711  0.31896  0.58634  1.0000
  H   H8688     1.0  0.74463  0.24352  0.81138  1.0000
  H   H8689     1.0  0.89662  0.24671  0.88385  1.0000
  H   H8690     1.0  0.92125  0.23759  0.88868  1.0000
  C   C4894     1.0  0.93122  0.23842  0.87838  1.0000
  H   H8691     1.0  0.75476  0.46877  0.93728  1.0000
  C   C4895     1.0  0.75394  0.46928  0.94960  1.0000
  C   C4896     1.0  0.95097  0.23632  0.52819  1.0000
  C   C4897     1.0  0.90027  0.24122  0.87357  1.0000
  C   C4898     1.0  0.98918  0.28798  0.83083  1.0000
  C   C4899     1.0  0.98321  0.28734  0.63355  1.0000
  H   H8692     1.0  0.74310  0.23500  0.62595  1.0000
  H   H8693     1.0  0.74108  0.32887  0.87279  1.0000
  H   H8694     1.0  0.84394  0.48401  0.51266  1.0000
  H   H8695     1.0  0.99097  0.30314  0.66981  1.0000
  H   H8696     1.0  0.91908  0.48398  0.49826  1.0000
  H   H8697     1.0  0.91222  0.48391  0.52694  1.0000
  H   H8698     1.0  0.76287  0.23416  0.82890  1.0000
  H   H8699     1.0  0.84056  0.66197  0.12976  1.0000
  C   C4900     1.0  0.78596  0.67907  0.20734  1.0000
  S   S1102     1.0  0.85322  0.49828  0.42594  1.0000
  S   S1103     1.0  0.74291  0.65249  0.15581  1.0000
  Fe  Fe554     1.0  0.88190  0.58465  0.34280  1.0000
  S   S1104     1.0  0.87039  0.58822  0.36739  1.0000
  S   S1105     1.0  0.87060  0.58073  0.32524  1.0000
  Fe  Fe555     1.0  0.91473  0.58338  0.34636  1.0000
  S   S1106     1.0  0.90586  0.58713  0.37084  1.0000
  S   S1107     1.0  0.94091  0.57761  0.33703  1.0000
  Fe  Fe556     1.0  0.89112  0.56967  0.37453  1.0000
  S   S1108     1.0  0.89470  0.54979  0.39570  1.0000
  Fe  Fe557     1.0  0.88625  0.60527  0.36162  1.0000
  S   S1109     1.0  0.87891  0.63014  0.36543  1.0000
  S   S1110     1.0  0.90131  0.56481  0.35047  1.0000
  S   S1111     1.0  0.89634  0.60290  0.33654  1.0000
  Fe  Fe558     1.0  0.88798  0.66605  0.42806  1.0000
  S   S1112     1.0  0.90182  0.68073  0.40800  1.0000
  S   S1113     1.0  0.88893  0.64102  0.42777  1.0000
  Fe  Fe559     1.0  0.87660  0.69177  0.44670  1.0000
  S   S1114     1.0  0.87396  0.71677  0.38914  1.0000
  Fe  Fe560     1.0  0.88078  0.70035  0.41118  1.0000
  Fe  Fe561     1.0  0.90937  0.68745  0.42628  1.0000
  S   S1115     1.0  0.93548  0.68487  0.42238  1.0000
  S   S1116     1.0  0.86619  0.68520  0.43013  1.0000
  S   S1117     1.0  0.89711  0.67117  0.44632  1.0000
  H   H8700     1.0  0.94507  0.62526  0.35951  1.0000
  C   C4901     1.0  0.75937  0.64838  0.21562  1.0000
  S   S1118     1.0  0.89495  0.71842  0.14319  1.0000
  C   C4902     1.0  0.97130  0.70453  0.36115  1.0000
  H   H8701     1.0  0.75246  0.69558  0.14583  1.0000
  S   S1119     1.0  0.89997  0.71581  0.17867  1.0000
  H   H8702     1.0  0.94766  0.66744  0.21901  1.0000
  C   C4903     1.0  0.86859  0.50468  0.47605  1.0000
  H   H8703     1.0  0.76340  0.61610  0.20151  1.0000
  Fe  Fe562     1.0  0.89005  0.70298  0.16727  1.0000
  S   S1120     1.0  0.89873  0.67697  0.17011  1.0000
  C   C4904     1.0  0.77159  0.66915  0.16994  1.0000
  S   S1121     1.0  0.86514  0.71580  0.17430  1.0000
  S   S1122     1.0  0.81341  0.71624  0.36719  1.0000
  H   H8704     1.0  0.74530  0.70331  0.27631  1.0000
  S   S1123     1.0  0.78694  0.70507  0.31289  1.0000
  H   H8705     1.0  0.86883  0.67954  0.06880  1.0000
  H   H8706     1.0  0.91968  0.72435  0.37716  1.0000
  C   C4905     1.0  0.82839  0.62217  0.18516  1.0000
  C   C4906     1.0  0.92919  0.50872  0.35592  1.0000
  H   H8707     1.0  0.84075  0.63847  0.18793  1.0000
  H   H8708     1.0  0.89235  0.54344  0.45772  1.0000
  S   S1124     1.0  0.81973  0.71779  0.32282  1.0000
  Fe  Fe563     1.0  0.81128  0.66715  0.24615  1.0000
  S   S1125     1.0  0.83133  0.65618  0.25828  1.0000
  S   S1126     1.0  0.80227  0.69326  0.24400  1.0000
  Fe  Fe564     1.0  0.80867  0.63617  0.24153  1.0000
  S   S1127     1.0  0.82806  0.62246  0.25434  1.0000
  S   S1128     1.0  0.79960  0.62231  0.22974  1.0000
  Fe  Fe565     1.0  0.81723  0.63806  0.27161  1.0000
  S   S1129     1.0  0.81661  0.63333  0.29760  1.0000
  Fe  Fe566     1.0  0.84060  0.64160  0.24024  1.0000
  S   S1130     1.0  0.86645  0.63393  0.23082  1.0000
  S   S1131     1.0  0.79633  0.64989  0.26043  1.0000
  S   S1132     1.0  0.82217  0.65445  0.22631  1.0000
  Fe  Fe567     1.0  0.82233  0.71499  0.05361  1.0000
  H   H8709     1.0  0.86648  0.49581  0.39026  1.0000
  H   H8710     1.0  0.91342  0.53713  0.45624  1.0000
  Fe  Fe568     1.0  0.79359  0.70414  0.07507  1.0000
  S   S1133     1.0  0.79294  0.71659  0.09345  1.0000
  S   S1134     1.0  0.77420  0.69202  0.07793  1.0000
  H   H8711     1.0  0.97830  0.69579  0.43717  1.0000
  H   H8712     1.0  0.76510  0.66485  0.18203  1.0000
  Fe  Fe569     1.0  0.81901  0.70773  0.08910  1.0000
  S   S1135     1.0  0.83159  0.69628  0.10914  1.0000
  H   H8713     1.0  0.76573  0.64307  0.06071  1.0000
  S   S1136     1.0  0.81931  0.69334  0.07241  1.0000
  H   H8714     1.0  0.84022  0.65624  0.03975  1.0000
  C   C4907     1.0  0.94867  0.53471  0.44473  1.0000
  H   H8715     1.0  0.94126  0.71529  0.20255  1.0000
  H   H8716     1.0  0.94727  0.58444  0.38654  1.0000
  H   H8717     1.0  0.79103  0.58968  0.17920  1.0000
  H   H8718     1.0  0.94941  0.52821  0.33640  1.0000
  C   C4908     1.0  0.90367  0.70074  0.10717  1.0000
  S   S1137     1.0  0.77818  0.63054  0.13131  1.0000
  H   H8719     1.0  0.76022  0.71373  0.33811  1.0000
  C   C4909     1.0  0.77569  0.67449  0.09214  1.0000
  C   C4910     1.0  0.79010  0.66656  0.09619  1.0000
  C   C4911     1.0  0.79095  0.65277  0.10797  1.0000
  C   C4912     1.0  0.77731  0.64721  0.11599  1.0000
  C   C4913     1.0  0.76290  0.65522  0.11199  1.0000
  C   C4914     1.0  0.76216  0.66866  0.09984  1.0000
  H   H8720     1.0  0.80059  0.67098  0.09023  1.0000
  H   H8721     1.0  0.80210  0.64660  0.11108  1.0000
  H   H8722     1.0  0.75105  0.67470  0.09662  1.0000
  C   C4915     1.0  0.86735  0.71476  0.07846  1.0000
  H   H8723     1.0  0.84702  0.61832  0.19749  1.0000
  H   H8724     1.0  0.74446  0.70070  0.10638  1.0000
  H   H8725     1.0  0.91096  0.51216  0.47633  1.0000
  H   H8726     1.0  0.80972  0.63877  0.14379  1.0000
  H   H8727     1.0  0.82086  0.72967  0.10766  1.0000
  H   H8728     1.0  0.96606  0.69138  0.40128  1.0000
  H   H8729     1.0  0.90226  0.50215  0.35854  1.0000
  H   H8730     1.0  0.80214  0.67272  0.98056  1.0000
  H   H8731     1.0  0.86026  0.50727  0.45488  1.0000
  H   H8732     1.0  0.94766  0.67062  0.18708  1.0000
  C   C4916     1.0  0.78240  0.62871  0.22200  1.0000
  H   H8733     1.0  0.81557  0.64617  0.17931  1.0000
  H   H8734     1.0  0.84494  0.51059  0.47188  1.0000
  H   H8735     1.0  0.80429  0.63352  0.19318  1.0000
  C   C4917     1.0  0.75155  0.71338  0.29244  1.0000
  C   C4918     1.0  0.77250  0.64348  0.22263  1.0000
  C   C4919     1.0  0.79504  0.69194  0.19839  1.0000
  H   H8736     1.0  0.82282  0.70824  0.19233  1.0000
  C   C4920     1.0  0.74292  0.73354  0.31618  1.0000
  H   H8737     1.0  0.77485  0.65102  0.22871  1.0000
  C   C4921     1.0  0.79169  0.70234  0.29353  1.0000
  C   C4922     1.0  0.79423  0.68714  0.29127  1.0000
  C   C4923     1.0  0.79763  0.68443  0.27610  1.0000
  C   C4924     1.0  0.79787  0.69697  0.26302  1.0000
  C   C4925     1.0  0.79492  0.71231  0.26525  1.0000
  C   C4926     1.0  0.79214  0.71498  0.28049  1.0000
  H   H8738     1.0  0.79374  0.67732  0.30129  1.0000
  H   H8739     1.0  0.79983  0.67256  0.27466  1.0000
  H   H8740     1.0  0.79504  0.72208  0.25519  1.0000
  C   C4927     1.0  0.76592  0.62379  0.20731  1.0000
  C   C4928     1.0  0.89110  0.49699  0.38328  1.0000
  H   H8741     1.0  0.86692  0.73038  0.24771  1.0000
  C   C4929     1.0  0.77403  0.64582  0.06606  1.0000
  C   C4930     1.0  0.83707  0.70916  0.11695  1.0000
  C   C4931     1.0  0.84878  0.70335  0.12576  1.0000
  C   C4932     1.0  0.85354  0.71356  0.13182  1.0000
  H   H8742     1.0  0.83006  0.51795  0.37483  1.0000
  S   S1138     1.0  0.79660  0.72456  0.05478  1.0000
  H   H8743     1.0  0.85442  0.69101  0.12762  1.0000
  H   H8744     1.0  0.86283  0.70909  0.13830  1.0000
  C   C4933     1.0  0.88907  0.66546  0.18688  1.0000
  C   C4934     1.0  0.89579  0.64945  0.19082  1.0000
  C   C4935     1.0  0.88859  0.63987  0.20425  1.0000
  C   C4936     1.0  0.87445  0.64616  0.21362  1.0000
  C   C4937     1.0  0.86748  0.66214  0.20961  1.0000
  C   C4938     1.0  0.87496  0.67188  0.19634  1.0000
  H   H8745     1.0  0.90665  0.64447  0.18351  1.0000
  H   H8746     1.0  0.89393  0.62751  0.20732  1.0000
  H   H8747     1.0  0.85659  0.66702  0.21694  1.0000
  H   H8748     1.0  0.86976  0.68424  0.19337  1.0000
  H   H8749     1.0  0.84592  0.49122  0.37546  1.0000
  H   H8750     1.0  0.74395  0.69154  0.29620  1.0000
  C   C4939     1.0  0.83152  0.72248  0.42700  1.0000
  C   C4940     1.0  0.82768  0.69978  0.99157  1.0000
  C   C4941     1.0  0.81637  0.70992  0.00041  1.0000
  H   H8751     1.0  0.92738  0.50459  0.34621  1.0000
  C   C4942     1.0  0.83504  0.70764  0.01631  1.0000
  C   C4943     1.0  0.84629  0.69780  0.00724  1.0000
  C   C4944     1.0  0.84255  0.69368  0.99515  1.0000
  H   H8752     1.0  0.78995  0.72680  0.28219  1.0000
  C   C4945     1.0  0.94727  0.53913  0.42756  1.0000
  H   H8753     1.0  0.85791  0.69315  0.00972  1.0000
  H   H8754     1.0  0.94076  0.49644  0.39277  1.0000
  H   H8755     1.0  0.75143  0.68156  0.13606  1.0000
  H   H8756     1.0  0.84270  0.71607  0.42052  1.0000
  C   C4946     1.0  0.94119  0.71482  0.16074  1.0000
  C   C4947     1.0  0.95291  0.70566  0.16883  1.0000
  H   H8757     1.0  0.78193  0.67472  0.19914  1.0000
  H   H8758     1.0  0.93342  0.70928  0.15799  1.0000
  H   H8759     1.0  0.95421  0.69309  0.17218  1.0000
  H   H8760     1.0  0.80818  0.67753  0.18151  1.0000
  C   C4948     1.0  0.84819  0.70496  0.39118  1.0000
  C   C4949     1.0  0.83458  0.70537  0.38634  1.0000
  C   C4950     1.0  0.96162  0.72893  0.16768  1.0000
  H   H8761     1.0  0.79386  0.66281  0.17614  1.0000
  H   H8762     1.0  0.85068  0.69721  0.40204  1.0000
  H   H8763     1.0  0.82662  0.69792  0.39357  1.0000
  C   C4951     1.0  0.94333  0.69640  0.42973  1.0000
  H   H8764     1.0  0.88574  0.69343  0.07484  1.0000
  C   C4952     1.0  0.93468  0.51949  0.39759  1.0000
  H   H8765     1.0  0.78018  0.67394  0.13029  1.0000
  C   C4953     1.0  0.94299  0.72115  0.43553  1.0000
  C   C4954     1.0  0.93533  0.71156  0.43172  1.0000
  N   N274      1.0  0.89804  0.49488  0.47769  1.0000
  H   H8766     1.0  0.96103  0.53289  0.44558  1.0000
  H   H8767     1.0  0.97642  0.50297  0.37280  1.0000
  H   H8768     1.0  0.92345  0.71604  0.42988  1.0000
  C   C4955     1.0  0.85530  0.59538  0.31812  1.0000
  C   C4956     1.0  0.84824  0.59249  0.30754  1.0000
  C   C4957     1.0  0.83676  0.60425  0.30077  1.0000
  C   C4958     1.0  0.83173  0.61877  0.30511  1.0000
  C   C4959     1.0  0.83842  0.62151  0.31611  1.0000
  C   C4960     1.0  0.85040  0.60996  0.32238  1.0000
  H   H8769     1.0  0.85175  0.58112  0.30447  1.0000
  H   H8770     1.0  0.83144  0.60194  0.29254  1.0000
  H   H8771     1.0  0.83442  0.63267  0.31963  1.0000
  H   H8772     1.0  0.85574  0.61225  0.33059  1.0000
  C   C4961     1.0  0.95027  0.59282  0.33521  1.0000
  C   C4962     1.0  0.96567  0.58917  0.33751  1.0000
  H   H8773     1.0  0.98259  0.67281  0.37542  1.0000
  C   C4963     1.0  0.95022  0.62057  0.32976  1.0000
  C   C4964     1.0  0.94252  0.60854  0.33141  1.0000
  H   H8774     1.0  0.97176  0.57703  0.34035  1.0000
  H   H8775     1.0  0.93066  0.61142  0.32959  1.0000
  C   C4965     1.0  0.88186  0.63298  0.38276  1.0000
  C   C4966     1.0  0.88623  0.62023  0.39466  1.0000
  C   C4967     1.0  0.88839  0.62279  0.40845  1.0000
  C   C4968     1.0  0.88610  0.63812  0.41043  1.0000
  C   C4969     1.0  0.88170  0.65089  0.39854  1.0000
  C   C4970     1.0  0.87968  0.64831  0.38470  1.0000
  H   H8776     1.0  0.88771  0.60841  0.39332  1.0000
  H   H8777     1.0  0.89171  0.61288  0.41767  1.0000
  H   H8778     1.0  0.87974  0.66275  0.40006  1.0000
  H   H8779     1.0  0.87632  0.65822  0.37555  1.0000
  C   C4971     1.0  0.92598  0.52691  0.35094  1.0000
  H   H8780     1.0  0.76805  0.64707  0.07826  1.0000
  C   C4972     1.0  0.86457  0.51278  0.41776  1.0000
  C   C4973     1.0  0.85957  0.52604  0.40646  1.0000
  C   C4974     1.0  0.86875  0.53745  0.39938  1.0000
  C   C4975     1.0  0.88270  0.53590  0.40401  1.0000
  C   C4976     1.0  0.88742  0.52290  0.41563  1.0000
  C   C4977     1.0  0.87857  0.51126  0.42229  1.0000
  H   H8781     1.0  0.84869  0.52736  0.40297  1.0000
  H   H8782     1.0  0.86493  0.54751  0.39053  1.0000
  H   H8783     1.0  0.89803  0.52181  0.41946  1.0000
  H   H8784     1.0  0.88249  0.50122  0.43105  1.0000
  N   N275      1.0  0.82604  0.66456  0.36233  1.0000
  C   C4978     1.0  0.84192  0.66637  0.35194  1.0000
  C   C4979     1.0  0.82271  0.64943  0.36145  1.0000
  C   C4980     1.0  0.81375  0.67784  0.35564  1.0000
  C   C4981     1.0  0.82470  0.66519  0.37919  1.0000
  C   C4982     1.0  0.83994  0.65894  0.38575  1.0000
  C   C4983     1.0  0.84579  0.68270  0.34911  1.0000
  C   C4984     1.0  0.79634  0.67704  0.36356  1.0000
  C   C4985     1.0  0.83436  0.63403  0.36676  1.0000
  C   C4986     1.0  0.82995  0.61994  0.36425  1.0000
  C   C4987     1.0  0.83627  0.65732  0.40356  1.0000
  C   C4988     1.0  0.86330  0.68223  0.34242  1.0000
  C   C4989     1.0  0.78518  0.69278  0.35919  1.0000
  H   H8785     1.0  0.84286  0.66421  0.34015  1.0000
  H   H8786     1.0  0.85155  0.65732  0.35661  1.0000
  H   H8787     1.0  0.81101  0.64784  0.36892  1.0000
  H   H8788     1.0  0.82209  0.64997  0.34917  1.0000
  H   H8789     1.0  0.81524  0.67861  0.34283  1.0000
  H   H8790     1.0  0.81526  0.68930  0.35649  1.0000
  H   H8791     1.0  0.82030  0.67753  0.38083  1.0000
  H   H8792     1.0  0.81567  0.65876  0.38721  1.0000
  H   H8793     1.0  0.84790  0.66725  0.38048  1.0000
  H   H8794     1.0  0.84650  0.64738  0.38320  1.0000
  H   H8795     1.0  0.83932  0.69134  0.34048  1.0000
  H   H8796     1.0  0.84226  0.68713  0.36009  1.0000
  H   H8797     1.0  0.79450  0.67382  0.37656  1.0000
  H   H8798     1.0  0.79290  0.66819  0.35956  1.0000
  H   H8799     1.0  0.84657  0.63420  0.36003  1.0000
  H   H8800     1.0  0.83389  0.63196  0.37951  1.0000
  H   H8801     1.0  0.83047  0.62112  0.35160  1.0000
  H   H8802     1.0  0.83832  0.60899  0.36826  1.0000
  H   H8803     1.0  0.81792  0.61886  0.37110  1.0000
  H   H8804     1.0  0.84740  0.65320  0.40784  1.0000
  H   H8805     1.0  0.83015  0.66881  0.40670  1.0000
  H   H8806     1.0  0.82883  0.64858  0.40958  1.0000
  H   H8807     1.0  0.86714  0.67830  0.33112  1.0000
  H   H8808     1.0  0.86550  0.69419  0.34027  1.0000
  H   H8809     1.0  0.87036  0.67414  0.35085  1.0000
  H   H8810     1.0  0.78738  0.70186  0.36393  1.0000
  H   H8811     1.0  0.78680  0.69666  0.34623  1.0000
  H   H8812     1.0  0.77280  0.69162  0.36424  1.0000
  N   N276      1.0  0.79506  0.67326  0.02921  1.0000
  C   C4990     1.0  0.78695  0.68886  0.03362  1.0000
  C   C4991     1.0  0.81212  0.66975  0.03015  1.0000
  C   C4992     1.0  0.79464  0.67499  0.01222  1.0000
  C   C4993     1.0  0.78721  0.66000  0.03928  1.0000
  C   C4994     1.0  0.77905  0.66108  0.05658  1.0000
  C   C4995     1.0  0.77021  0.69577  0.03028  1.0000
  H   H8813     1.0  0.84088  0.72569  0.45244  1.0000
  C   C4996     1.0  0.81547  0.66759  0.04655  1.0000
  S   S1139     1.0  0.86062  0.69742  0.46940  1.0000
  C   C4997     1.0  0.99002  0.49816  0.47865  1.0000
  H   H8814     1.0  0.94606  0.51678  0.40121  1.0000
  H   H8815     1.0  0.78625  0.68825  0.04615  1.0000
  H   H8816     1.0  0.81866  0.65868  0.02627  1.0000
  H   H8817     1.0  0.78231  0.67707  0.01096  1.0000
  H   H8818     1.0  0.77793  0.65888  0.03400  1.0000
  H   H8819     1.0  0.79589  0.64856  0.03952  1.0000
  H   H8820     1.0  0.90079  0.69530  0.11992  1.0000
  H   H8821     1.0  0.78678  0.66354  0.06272  1.0000
  H   H8822     1.0  0.77117  0.70174  0.01766  1.0000
  C   C4998     1.0  0.75129  0.69423  0.13444  1.0000
  H   H8823     1.0  0.80209  0.64953  0.01261  1.0000
  H   H8824     1.0  0.74575  0.52482  0.05318  1.0000
  H   H8825     1.0  0.81233  0.65659  0.05434  1.0000
  Fe  Fe570     1.0  0.75402  0.63075  0.14652  1.0000
  H   H8826     1.0  0.87005  0.51447  0.37828  1.0000
  H   H8827     1.0  0.94192  0.50421  0.35582  1.0000
  H   H8828     1.0  0.98542  0.59460  0.38201  1.0000
  H   H8829     1.0  0.88330  0.64837  0.47416  1.0000
  H   H8830     1.0  0.80667  0.65165  0.98410  1.0000
  C   C4999     1.0  0.94319  0.65996  0.19358  1.0000
  Fe  Fe571     1.0  0.97201  0.49096  0.43006  1.0000
  H   H8831     1.0  0.81645  0.60719  0.17240  1.0000
  H   H8832     1.0  0.97531  0.71258  0.40383  1.0000
  H   H8833     1.0  0.75170  0.65979  0.21624  1.0000
  C   C5000     1.0  0.90259  0.50527  0.36947  1.0000
  C   C5001     1.0  0.91930  0.50955  0.38430  1.0000
  C   C5002     1.0  0.93572  0.50862  0.38703  1.0000
  C   C5003     1.0  0.75003  0.53316  0.04235  1.0000
  H   H8834     1.0  0.90849  0.70768  0.21623  1.0000
  C   C5004     1.0  0.80473  0.61540  0.17318  1.0000
  H   H8835     1.0  0.79037  0.59098  0.15919  1.0000
  H   H8836     1.0  0.74988  0.71423  0.03577  1.0000
  C   C5005     1.0  0.85491  0.72491  0.36804  1.0000
  H   H8837     1.0  0.97347  0.55550  0.44330  1.0000
  H   H8838     1.0  0.89735  0.51811  0.36789  1.0000
  H   H8839     1.0  0.91284  0.52205  0.38229  1.0000
  H   H8840     1.0  0.97761  0.54368  0.36447  1.0000
  H   H8841     1.0  0.80914  0.58676  0.16444  1.0000
  C   C5006     1.0  0.89482  0.68847  0.36278  1.0000
  H   H8842     1.0  0.92788  0.53221  0.35974  1.0000
  H   H8843     1.0  0.98379  0.50147  0.46922  1.0000
  H   H8844     1.0  0.87880  0.71128  0.24626  1.0000
  H   H8845     1.0  0.95572  0.64808  0.17448  1.0000
  C   C5007     1.0  0.82116  0.69742  0.43712  1.0000
  C   C5008     1.0  0.83427  0.49270  0.38368  1.0000
  C   C5009     1.0  0.95242  0.57790  0.39686  1.0000
  C   C5010     1.0  0.79680  0.59354  0.16669  1.0000
  H   H8846     1.0  0.79191  0.68799  0.11899  1.0000
  C   C5011     1.0  0.90209  0.51922  0.45523  1.0000
  H   H8847     1.0  0.81702  0.73088  0.16082  1.0000
  H   H8848     1.0  0.95807  0.72810  0.21328  1.0000
  C   C5012     1.0  0.96026  0.67400  0.33749  1.0000
  N   N277      1.0  0.88725  0.60694  0.27308  1.0000
  C   C5013     1.0  0.88032  0.59398  0.27212  1.0000
  C   C5014     1.0  0.89587  0.60140  0.28643  1.0000
  C   C5015     1.0  0.87376  0.62055  0.27668  1.0000
  C   C5016     1.0  0.89775  0.61287  0.25767  1.0000
  C   C5017     1.0  0.91190  0.60073  0.25096  1.0000
  C   C5018     1.0  0.87021  0.59811  0.25966  1.0000
  C   C5019     1.0  0.87787  0.63389  0.28146  1.0000
  C   C5020     1.0  0.90473  0.58390  0.28968  1.0000
  C   C5021     1.0  0.91484  0.58066  0.30170  1.0000
  C   C5022     1.0  0.91978  0.60781  0.23422  1.0000
  C   C5023     1.0  0.86348  0.58419  0.26029  1.0000
  C   C5024     1.0  0.86378  0.64772  0.28287  1.0000
  H   H8849     1.0  0.87292  0.58982  0.28375  1.0000
  H   H8850     1.0  0.88954  0.58347  0.26975  1.0000
  H   H8851     1.0  0.90430  0.60893  0.28479  1.0000
  H   H8852     1.0  0.88739  0.60273  0.29780  1.0000
  H   H8853     1.0  0.86431  0.61626  0.28639  1.0000
  H   H8854     1.0  0.86822  0.62625  0.26637  1.0000
  H   H8855     1.0  0.89070  0.61865  0.24851  1.0000
  H   H8856     1.0  0.90285  0.62224  0.25873  1.0000
  H   H8857     1.0  0.90837  0.59016  0.25044  1.0000
  H   H8858     1.0  0.92088  0.59726  0.25820  1.0000
  H   H8859     1.0  0.86004  0.60798  0.26174  1.0000
  H   H8860     1.0  0.87740  0.60125  0.24765  1.0000
  H   H8861     1.0  0.88767  0.63849  0.27271  1.0000
  H   H8862     1.0  0.88123  0.62963  0.29306  1.0000
  H   H8863     1.0  0.89610  0.57618  0.29468  1.0000
  H   H8864     1.0  0.91243  0.58024  0.27895  1.0000
  H   H8865     1.0  0.90731  0.58303  0.31310  1.0000
  H   H8866     1.0  0.92105  0.56811  0.30374  1.0000
  H   H8867     1.0  0.92375  0.58804  0.29749  1.0000
  H   H8868     1.0  0.92380  0.61840  0.23398  1.0000
  H   H8869     1.0  0.93015  0.59904  0.22975  1.0000
  H   H8870     1.0  0.91144  0.61109  0.22627  1.0000
  H   H8871     1.0  0.87308  0.57390  0.25790  1.0000
  H   H8872     1.0  0.85576  0.58091  0.27201  1.0000
  H   H8873     1.0  0.85630  0.58750  0.25125  1.0000
  H   H8874     1.0  0.86020  0.65282  0.27143  1.0000
  H   H8875     1.0  0.85362  0.64390  0.29183  1.0000
  H   H8876     1.0  0.86701  0.65696  0.28644  1.0000
  C   C5025     1.0  0.88524  0.70182  0.47893  1.0000
  C   C5026     1.0  0.80413  0.66083  0.00463  1.0000
  H   H8877     1.0  0.74425  0.54623  0.02028  1.0000
  H   H8878     1.0  0.81130  0.72146  0.01980  1.0000
  H   H8879     1.0  0.82564  0.62468  0.15039  1.0000
  H   H8880     1.0  0.84056  0.67704  0.15395  1.0000
  H   H8881     1.0  0.81691  0.66066  0.00179  1.0000
  C   C5027     1.0  0.97639  0.49282  0.36821  1.0000
  C   C5028     1.0  0.83664  0.62759  0.19468  1.0000
  C   C5029     1.0  0.97810  0.72690  0.11911  1.0000
  H   H8882     1.0  0.98738  0.53622  0.46228  1.0000
  H   H8883     1.0  0.97587  0.57283  0.40225  1.0000
  H   H8884     1.0  0.89949  0.72601  0.08218  1.0000
  H   H8885     1.0  0.86662  0.67390  0.16101  1.0000
  N   N278      1.0  0.84571  0.70968  0.26262  1.0000
  C   C5030     1.0  0.85042  0.70708  0.24605  1.0000
  C   C5031     1.0  0.85980  0.71125  0.26754  1.0000
  C   C5032     1.0  0.84019  0.69533  0.27345  1.0000
  C   C5033     1.0  0.82412  0.50817  0.37669  1.0000
  H   H8886     1.0  0.78446  0.63592  0.06665  1.0000
  C   C5034     1.0  0.83759  0.70383  0.23978  1.0000
  C   C5035     1.0  0.83510  0.69561  0.29123  1.0000
  H   H8887     1.0  0.96352  0.68552  0.33491  1.0000
  H   H8888     1.0  0.93493  0.53958  0.42761  1.0000
  H   H8889     1.0  0.79767  0.69666  0.20726  1.0000
  C   C5036     1.0  0.84285  0.70397  0.22221  1.0000
  C   C5037     1.0  0.83250  0.67961  0.30137  1.0000
  H   H8890     1.0  0.86059  0.69695  0.24517  1.0000
  C   C5038     1.0  0.75077  0.69933  0.28669  1.0000
  C   C5039     1.0  0.92823  0.71819  0.20449  1.0000
  H   H8891     1.0  0.86646  0.69949  0.27265  1.0000
  H   H8892     1.0  0.84948  0.68453  0.27189  1.0000
  H   H8893     1.0  0.82970  0.69368  0.27049  1.0000
  H   H8894     1.0  0.98835  0.71460  0.37550  1.0000
  C   C5040     1.0  0.97284  0.67547  0.38549  1.0000
  H   H8895     1.0  0.79337  0.66909  0.21409  1.0000
  C   C5041     1.0  0.78880  0.66042  0.16750  1.0000
  H   H8896     1.0  0.83522  0.69203  0.24584  1.0000
  C   C5042     1.0  0.90021  0.51157  0.47303  1.0000
  H   H8897     1.0  0.82379  0.70423  0.29349  1.0000
  H   H8898     1.0  0.84393  0.69892  0.29536  1.0000
  H   H8899     1.0  0.80488  0.71678  0.18622  1.0000
  H   H8900     1.0  0.81816  0.67757  0.19573  1.0000
  H   H8901     1.0  0.93966  0.69160  0.38776  1.0000
  H   H8902     1.0  0.90765  0.66400  0.38382  1.0000
  H   H8903     1.0  0.76831  0.67064  0.05699  1.0000
  C   C5043     1.0  0.82663  0.64827  0.14944  1.0000
  H   H8904     1.0  0.90993  0.69123  0.10071  1.0000
  H   H8905     1.0  0.87475  0.67620  0.23346  1.0000
  C   C5044     1.0  0.75612  0.63864  0.20778  1.0000
  C   C5045     1.0  0.76647  0.52508  0.03478  1.0000
  H   H8906     1.0  0.98522  0.66160  0.40405  1.0000
  H   H8907     1.0  0.82658  0.68084  0.31359  1.0000
  H   H8908     1.0  0.82494  0.67492  0.29683  1.0000
  H   H8909     1.0  0.84390  0.67110  0.30168  1.0000
  H   H8910     1.0  0.89242  0.70001  0.46759  1.0000
  C   C5046     1.0  0.97494  0.66177  0.39958  1.0000
  C   C5047     1.0  0.85821  0.71503  0.38222  1.0000
  H   H8911     1.0  0.92361  0.72788  0.21092  1.0000
  C   C5048     1.0  0.81999  0.71366  0.01297  1.0000
  H   H8912     1.0  0.75723  0.70192  0.05262  1.0000
  H   H8913     1.0  0.91420  0.48688  0.45762  1.0000
  H   H8914     1.0  0.94117  0.54399  0.45105  1.0000
  H   H8915     1.0  0.85229  0.69570  0.07150  1.0000
  H   H8916     1.0  0.98492  0.59831  0.33850  1.0000
  H   H8917     1.0  0.82207  0.70874  0.15094  1.0000
  H   H8918     1.0  0.85708  0.72116  0.07310  1.0000
  C   C5049     1.0  0.97927  0.72998  0.47775  1.0000
  H   H8919     1.0  0.76353  0.68647  0.03276  1.0000
  H   H8920     1.0  0.79332  0.71975  0.16640  1.0000
  H   H8921     1.0  0.94806  0.72308  0.12159  1.0000
  H   H8922     1.0  0.77159  0.53313  0.02409  1.0000
  H   H8923     1.0  0.93459  0.64269  0.22964  1.0000
  H   H8924     1.0  0.94997  0.64119  0.38232  1.0000
  H   H8925     1.0  0.80183  0.61454  0.15011  1.0000
  H   H8926     1.0  0.96699  0.60216  0.39410  1.0000
  H   H8927     1.0  0.75894  0.72038  0.28272  1.0000
  H   H8928     1.0  0.94163  0.61978  0.38048  1.0000
  C   C5050     1.0  0.93741  0.64126  0.41408  1.0000
  H   H8929     1.0  0.89028  0.50036  0.39435  1.0000
  C   C5051     1.0  0.90114  0.73215  0.03243  1.0000
  C   C5052     1.0  0.83232  0.72373  0.26449  1.0000
  C   C5053     1.0  0.87484  0.70035  0.07087  1.0000
  C   C5054     1.0  0.97267  0.59474  0.38529  1.0000
  C   C5055     1.0  0.93872  0.70353  0.38014  1.0000
  H   H8930     1.0  0.98962  0.68351  0.34147  1.0000
  H   H8931     1.0  0.92536  0.51785  0.40837  1.0000
  H   H8932     1.0  0.81972  0.65894  0.15372  1.0000
  H   H8933     1.0  0.95483  0.52945  0.42183  1.0000
  H   H8934     1.0  0.76591  0.66741  0.16135  1.0000
  H   H8935     1.0  0.82856  0.62976  0.20593  1.0000
  H   H8936     1.0  0.92479  0.72238  0.19293  1.0000
  S   S1140     1.0  0.84055  0.71229  0.03142  1.0000
  H   H8937     1.0  0.96665  0.69486  0.36010  1.0000
  H   H8938     1.0  0.76776  0.70974  0.12152  1.0000
  H   H8939     1.0  0.81156  0.70225  0.43054  1.0000
  H   H8940     1.0  0.84393  0.69754  0.16416  1.0000
  H   H8941     1.0  0.93520  0.52791  0.32581  1.0000
  H   H8942     1.0  0.81251  0.51065  0.38484  1.0000
  C   C5056     1.0  0.76667  0.69758  0.12264  1.0000
  N   N279      1.0  0.92402  0.67430  0.21494  1.0000
  C   C5057     1.0  0.92744  0.69006  0.20541  1.0000
  H   H8943     1.0  0.86258  0.73276  0.36107  1.0000
  H   H8944     1.0  0.92401  0.65193  0.24605  1.0000
  H   H8945     1.0  0.97100  0.66455  0.33856  1.0000
  S   S1141     1.0  0.97441  0.63233  0.33108  1.0000
  C   C5058     1.0  0.92404  0.48744  0.42630  1.0000
  H   H8946     1.0  0.95572  0.67345  0.32750  1.0000
  C   C5059     1.0  0.88466  0.49336  0.47171  1.0000
  H   H8947     1.0  0.81614  0.69077  0.15552  1.0000
  H   H8948     1.0  0.89958  0.68636  0.21664  1.0000
  H   H8949     1.0  0.78518  0.64165  0.16004  1.0000
  C   C5060     1.0  0.91296  0.48452  0.47053  1.0000
  C   C5061     1.0  0.88852  0.70972  0.10164  1.0000
  H   H8950     1.0  0.75235  0.65099  0.11818  1.0000
  C   C5062     1.0  0.87456  0.50155  0.38003  1.0000
  H   H8951     1.0  0.93204  0.53193  0.39119  1.0000
  C   C5063     1.0  0.97021  0.57796  0.39202  1.0000
  H   H8952     1.0  0.97288  0.72001  0.13074  1.0000
  C   C5064     1.0  0.82400  0.72553  0.17005  1.0000
  H   H8953     1.0  0.85432  0.69568  0.21963  1.0000
  Fe  Fe572     1.0  0.79565  0.72365  0.31797  1.0000
  N   N280      1.0  0.91929  0.50201  0.37141  1.0000
  C   C5065     1.0  0.81689  0.63554  0.15290  1.0000
  C   C5066     1.0  0.95872  0.69075  0.43205  1.0000
  H   H8954     1.0  0.76286  0.69239  0.28319  1.0000
  H   H8955     1.0  0.77080  0.68191  0.16830  1.0000
  H   H8956     1.0  0.84391  0.71597  0.21532  1.0000
  C   C5067     1.0  0.93465  0.65114  0.23639  1.0000
  H   H8957     1.0  0.82133  0.72120  0.26367  1.0000
  H   H8958     1.0  0.97639  0.57126  0.38273  1.0000
  H   H8959     1.0  0.77430  0.52168  0.04324  1.0000
  C   C5068     1.0  0.81067  0.68545  0.18750  1.0000
  H   H8960     1.0  0.96499  0.67904  0.43056  1.0000
  H   H8961     1.0  0.93952  0.63982  0.18736  1.0000
  C   C5069     1.0  0.92371  0.63973  0.37117  1.0000
  C   C5070     1.0  0.93582  0.62399  0.37036  1.0000
  C   C5071     1.0  0.92913  0.64233  0.40112  1.0000
  S   S1142     1.0  0.97617  0.70082  0.18441  1.0000
  H   H8962     1.0  0.82344  0.65904  0.12550  1.0000
  H   H8963     1.0  0.79465  0.66540  0.15540  1.0000
  H   H8964     1.0  0.96301  0.54930  0.35273  1.0000
  H   H8965     1.0  0.94782  0.63283  0.25198  1.0000
  H   H8966     1.0  0.93676  0.60106  0.36676  1.0000
  H   H8967     1.0  0.84103  0.68681  0.18389  1.0000
  H   H8968     1.0  0.80486  0.71472  0.99768  1.0000
  H   H8969     1.0  0.89193  0.51918  0.45067  1.0000
  C   C5072     1.0  0.88438  0.72214  0.26163  1.0000
  C   C5073     1.0  0.83318  0.65333  0.13182  1.0000
  H   H8970     1.0  0.94938  0.65242  0.25125  1.0000
  H   H8971     1.0  0.91294  0.51288  0.44841  1.0000
  H   H8972     1.0  0.96672  0.49621  0.36186  1.0000
  H   H8973     1.0  0.86197  0.65577  0.16116  1.0000
  C   C5074     1.0  0.88270  0.66645  0.23984  1.0000
  H   H8974     1.0  0.80035  0.72636  0.13770  1.0000
  H   H8975     1.0  0.91816  0.66978  0.19533  1.0000
  H   H8976     1.0  0.98801  0.66266  0.24361  1.0000
  H   H8977     1.0  0.92312  0.65260  0.20958  1.0000
  H   H8978     1.0  0.92229  0.69389  0.19480  1.0000
  C   C5075     1.0  0.81441  0.70146  0.16008  1.0000
  C   C5076     1.0  0.86355  0.68931  0.07507  1.0000
  H   H8979     1.0  0.78640  0.60728  0.21420  1.0000
  C   C5077     1.0  0.79430  0.71648  0.14359  1.0000
  C   C5078     1.0  0.98586  0.54980  0.43890  1.0000
  H   H8980     1.0  0.79904  0.68556  0.00472  1.0000
  H   H8981     1.0  0.83636  0.72185  0.16412  1.0000
  C   C5079     1.0  0.89880  0.66288  0.22894  1.0000
  H   H8982     1.0  0.94472  0.52355  0.45062  1.0000
  H   H8983     1.0  0.82234  0.50775  0.36518  1.0000
  H   H8984     1.0  0.91265  0.50394  0.39576  1.0000
  H   H8985     1.0  0.89282  0.72820  0.25213  1.0000
  H   H8986     1.0  0.76769  0.71646  0.03940  1.0000
  C   C5080     1.0  0.95222  0.73169  0.11088  1.0000
  C   C5081     1.0  0.85848  0.66581  0.16706  1.0000
  S   S1143     1.0  0.98377  0.48773  0.40571  1.0000
  H   H8987     1.0  0.79885  0.70730  0.13650  1.0000
  C   C5082     1.0  0.84644  0.72957  0.12922  1.0000
  C   C5083     1.0  0.84148  0.67423  0.16643  1.0000
  C   C5084     1.0  0.95861  0.71558  0.43736  1.0000
  H   H8988     1.0  0.91371  0.53168  0.34941  1.0000
  C   C5085     1.0  0.82995  0.72513  0.11441  1.0000
  H   H8989     1.0  0.86212  0.71064  0.09106  1.0000
  S   S1144     1.0  0.88958  0.70860  0.42781  1.0000
  C   C5086     1.0  0.82523  0.71056  0.44177  1.0000
  H   H8990     1.0  0.85128  0.68575  0.98849  1.0000
  H   H8991     1.0  0.78714  0.70146  0.19180  1.0000
  S   S1145     1.0  0.94571  0.49662  0.43555  1.0000
  C   C5087     1.0  0.93692  0.53235  0.33534  1.0000
  H   H8992     1.0  0.75584  0.73013  0.31156  1.0000
  H   H8993     1.0  0.83675  0.64353  0.15530  1.0000
  H   H8994     1.0  0.96432  0.66284  0.40925  1.0000
  H   H8995     1.0  0.89101  0.71091  0.26767  1.0000
  H   H8996     1.0  0.95346  0.53972  0.39656  1.0000
  H   H8997     1.0  0.94420  0.63272  0.32674  1.0000
  C   C5088     1.0  0.77894  0.61884  0.21447  1.0000
  H   H8998     1.0  0.79407  0.69785  0.02717  1.0000
  H   H8999     1.0  0.85966  0.66113  0.17946  1.0000
  H   H9000     1.0  0.94117  0.66024  0.38586  1.0000
  C   C5089     1.0  0.96493  0.54506  0.36492  1.0000
  H   H9001     1.0  0.97680  0.65048  0.39608  1.0000
  H   H9002     1.0  0.93804  0.68269  0.35172  1.0000
  N   N281      1.0  0.81942  0.69724  0.17553  1.0000
  H   H9003     1.0  0.81791  0.67917  0.02189  1.0000
  H   H9004     1.0  0.80892  0.67764  0.05210  1.0000
  H   H9005     1.0  0.82537  0.61082  0.19220  1.0000
  H   H9006     1.0  0.92733  0.55304  0.40586  1.0000
  H   H9007     1.0  0.78226  0.68879  0.13903  1.0000
  H   H9008     1.0  0.94641  0.71207  0.39583  1.0000
  H   H9009     1.0  0.83615  0.49395  0.39478  1.0000
  C   C5090     1.0  0.83296  0.66607  0.04542  1.0000
  H   H9010     1.0  0.95266  0.64720  0.35564  1.0000
  H   H9011     1.0  0.93720  0.65710  0.34578  1.0000
  H   H9012     1.0  0.94757  0.56342  0.42662  1.0000
  H   H9013     1.0  0.89992  0.58230  0.40548  1.0000
  H   H9014     1.0  0.83519  0.66371  0.05739  1.0000
  C   C5091     1.0  0.95705  0.55111  0.39208  1.0000
  H   H9015     1.0  0.96987  0.54803  0.39198  1.0000
  C   C5092     1.0  0.81317  0.63430  0.18185  1.0000
  H   H9016     1.0  0.74369  0.72338  0.13385  1.0000
  C   C5093     1.0  0.83676  0.68952  0.17279  1.0000
  H   H9017     1.0  0.94243  0.55832  0.37438  1.0000
  C   C5094     1.0  0.78110  0.68636  0.12813  1.0000
  H   H9018     1.0  0.75750  0.70867  0.30245  1.0000
  C   C5095     1.0  0.95487  0.55690  0.37487  1.0000
  C   C5096     1.0  0.95238  0.55488  0.41879  1.0000
  C   C5097     1.0  0.93069  0.56440  0.40417  1.0000
  S   S1146     1.0  0.96885  0.72791  0.44065  1.0000
  H   H9019     1.0  0.89990  0.69785  0.36388  1.0000
  H   H9020     1.0  0.78363  0.61714  0.16469  1.0000
  C   C5098     1.0  0.90240  0.57527  0.41699  1.0000
  H   H9021     1.0  0.92132  0.56628  0.42901  1.0000
  H   H9022     1.0  0.85537  0.49085  0.47042  1.0000
  C   C5099     1.0  0.81742  0.71162  0.18187  1.0000
  C   C5100     1.0  0.97299  0.69114  0.38915  1.0000
  H   H9023     1.0  0.89970  0.70812  0.07780  1.0000
  Fe  Fe573     1.0  0.87555  0.73039  0.18335  1.0000
  H   H9024     1.0  0.94033  0.68911  0.20077  1.0000
  H   H9025     1.0  0.88608  0.68531  0.37380  1.0000
  N   N282      1.0  0.94814  0.56204  0.40298  1.0000
  C   C5101     1.0  0.91970  0.57303  0.41713  1.0000
  H   H9026     1.0  0.92752  0.57138  0.39286  1.0000
  H   H9027     1.0  0.89921  0.56376  0.41927  1.0000
  H   H9028     1.0  0.89485  0.58156  0.42627  1.0000
  S   S1147     1.0  0.82415  0.72870  0.07007  1.0000
  C   C5102     1.0  0.97532  0.71859  0.37861  1.0000
  H   H9029     1.0  0.92043  0.60763  0.38196  1.0000
  H   H9030     1.0  0.92493  0.70055  0.22564  1.0000
  H   H9031     1.0  0.87456  0.49775  0.36939  1.0000
  H   H9032     1.0  0.77544  0.68383  0.21580  1.0000
  H   H9033     1.0  0.76715  0.69609  0.11084  1.0000
  H   H9034     1.0  0.85467  0.71722  0.23752  1.0000
  H   H9035     1.0  0.83663  0.67715  0.03855  1.0000
  H   H9036     1.0  0.90192  0.66531  0.35831  1.0000
  C   C5103     1.0  0.93960  0.73110  0.15611  1.0000
  H   H9037     1.0  0.92358  0.48742  0.47195  1.0000
  C   C5104     1.0  0.93534  0.66766  0.22584  1.0000
  H   H9038     1.0  0.83679  0.61999  0.17409  1.0000
  H   H9039     1.0  0.88275  0.71868  0.10884  1.0000
  H   H9040     1.0  0.91804  0.71248  0.39697  1.0000
  H   H9041     1.0  0.78938  0.70129  0.16633  1.0000
  H   H9042     1.0  0.95137  0.65247  0.20120  1.0000
  C   C5105     1.0  0.93837  0.64947  0.38469  1.0000
  H   H9043     1.0  0.95834  0.56831  0.36931  1.0000
  C   C5106     1.0  0.79625  0.61116  0.16273  1.0000
  H   H9044     1.0  0.93581  0.65821  0.17326  1.0000
  H   H9045     1.0  0.94407  0.51216  0.37594  1.0000
  H   H9046     1.0  0.98604  0.54011  0.43357  1.0000
  C   C5107     1.0  0.91667  0.66724  0.37316  1.0000
  H   H9047     1.0  0.93064  0.63593  0.42562  1.0000
  H   H9048     1.0  0.92062  0.67693  0.37523  1.0000
  H   H9049     1.0  0.82649  0.71278  0.24154  1.0000
  C   C5108     1.0  0.76071  0.70786  0.04012  1.0000
  H   H9050     1.0  0.88785  0.49480  0.45870  1.0000
  H   H9051     1.0  0.93430  0.54541  0.33208  1.0000
  N   N283      1.0  0.96735  0.70622  0.37799  1.0000
  C   C5109     1.0  0.97316  0.60121  0.33641  1.0000
  H   H9052     1.0  0.91601  0.49807  0.42902  1.0000
  C   C5110     1.0  0.96631  0.70027  0.43582  1.0000
  H   H9053     1.0  0.96178  0.67584  0.38248  1.0000
  C   C5111     1.0  0.94353  0.65095  0.18146  1.0000
  C   C5112     1.0  0.92779  0.61135  0.37016  1.0000
  H   H9054     1.0  0.89682  0.66053  0.21835  1.0000
  C   C5113     1.0  0.79024  0.64264  0.16952  1.0000
  H   H9055     1.0  0.92025  0.61575  0.36136  1.0000
  H   H9056     1.0  0.79822  0.61229  0.18559  1.0000
  H   H9057     1.0  0.92201  0.58486  0.41533  1.0000
  C   C5114     1.0  0.90339  0.53629  0.45195  1.0000
  H   H9058     1.0  0.94715  0.58526  0.40579  1.0000
  H   H9059     1.0  0.94950  0.63387  0.41201  1.0000
  C   C5115     1.0  0.92154  0.71215  0.38429  1.0000
  H   H9060     1.0  0.88855  0.69324  0.35296  1.0000
  H   H9061     1.0  0.96535  0.55240  0.41747  1.0000
  H   H9062     1.0  0.76601  0.51428  0.03155  1.0000
  H   H9063     1.0  0.74309  0.72484  0.11411  1.0000
  H   H9064     1.0  0.76547  0.73371  0.01018  1.0000
  C   C5116     1.0  0.79702  0.70985  0.16032  1.0000
  C   C5117     1.0  0.96290  0.71267  0.17265  1.0000
  H   H9065     1.0  0.84056  0.64307  0.12690  1.0000
  H   H9066     1.0  0.88367  0.66957  0.25050  1.0000
  C   C5118     1.0  0.90772  0.67405  0.35956  1.0000
  H   H9067     1.0  0.90538  0.54114  0.43908  1.0000
  H   H9068     1.0  0.85588  0.71776  0.27719  1.0000
  C   C5119     1.0  0.94883  0.64448  0.24411  1.0000
  C   C5120     1.0  0.94779  0.67219  0.35278  1.0000
  H   H9069     1.0  0.91569  0.67765  0.34815  1.0000
  H   H9070     1.0  0.95317  0.67209  0.36237  1.0000
  S   S1148     1.0  0.74948  0.61406  0.16989  1.0000
  H   H9071     1.0  0.91825  0.64251  0.36087  1.0000
  H   H9072     1.0  0.91402  0.63765  0.38164  1.0000
  H   H9073     1.0  0.78217  0.63865  0.18077  1.0000
  H   H9074     1.0  0.93801  0.65316  0.41462  1.0000
  C   C5121     1.0  0.96548  0.61694  0.33243  1.0000
  H   H9075     1.0  0.87743  0.65595  0.24356  1.0000
  H   H9076     1.0  0.91714  0.64950  0.40396  1.0000
  H   H9077     1.0  0.92798  0.63032  0.40169  1.0000
  N   N284      1.0  0.80651  0.63225  0.16916  1.0000
  C   C5122     1.0  0.94194  0.65684  0.35599  1.0000
  N   N285      1.0  0.93018  0.65332  0.37123  1.0000
  H   H9078     1.0  0.93348  0.67552  0.23396  1.0000
  H   H9079     1.0  0.90571  0.65191  0.23485  1.0000
  H   H9080     1.0  0.95993  0.64293  0.23504  1.0000
  C   C5123     1.0  0.90708  0.67695  0.22398  1.0000
  H   H9081     1.0  0.83391  0.66584  0.17327  1.0000
  C   C5124     1.0  0.83106  0.71554  0.37236  1.0000
  H   H9082     1.0  0.86116  0.68423  0.08791  1.0000
  H   H9083     1.0  0.83395  0.70037  0.21843  1.0000
  C   C5125     1.0  0.85661  0.50320  0.46781  1.0000
  H   H9084     1.0  0.90602  0.68129  0.23466  1.0000
  C   C5126     1.0  0.92151  0.70388  0.21413  1.0000
  C   C5127     1.0  0.92632  0.66405  0.20353  1.0000
  H   H9085     1.0  0.96788  0.60002  0.37449  1.0000
  H   H9086     1.0  0.88092  0.70121  0.10422  1.0000
  H   H9087     1.0  0.83423  0.70500  0.44899  1.0000
  H   H9088     1.0  0.81718  0.68877  0.44786  1.0000
  H   H9089     1.0  0.98232  0.71862  0.11101  1.0000
  H   H9090     1.0  0.83162  0.69119  0.42967  1.0000
  Fe  Fe574     1.0  0.90293  0.73246  0.15521  1.0000
  H   H9091     1.0  0.91377  0.70597  0.38184  1.0000
  C   C5128     1.0  0.87230  0.71908  0.25458  1.0000
  C   C5129     1.0  0.94981  0.71227  0.38301  1.0000
  H   H9092     1.0  0.96170  0.53345  0.36985  1.0000
  H   H9093     1.0  0.87745  0.70425  0.05787  1.0000
  H   H9094     1.0  0.96535  0.71533  0.35375  1.0000
  H   H9095     1.0  0.94118  0.70277  0.36767  1.0000
  C   C5130     1.0  0.88310  0.73319  0.05935  1.0000
  C   C5131     1.0  0.92599  0.48462  0.37593  1.0000
  H   H9096     1.0  0.85619  0.72233  0.43590  1.0000
  H   H9097     1.0  0.78697  0.66191  0.99123  1.0000
  H   H9098     1.0  0.95779  0.72565  0.10096  1.0000
  H   H9099     1.0  0.91156  0.70882  0.10542  1.0000
  H   H9100     1.0  0.98532  0.69007  0.38992  1.0000
  C   C5132     1.0  0.84144  0.72511  0.36306  1.0000
  C   C5133     1.0  0.89203  0.71750  0.08383  1.0000
  H   H9101     1.0  0.78152  0.72097  0.14394  1.0000
  H   H9102     1.0  0.75122  0.54355  0.04577  1.0000
  C   C5134     1.0  0.79965  0.66190  0.98922  1.0000
  Fe  Fe575     1.0  0.87066  0.73235  0.15102  1.0000
  H   H9103     1.0  0.81441  0.71633  0.44913  1.0000
  H   H9104     1.0  0.82984  0.72598  0.27649  1.0000
  H   H9105     1.0  0.98556  0.70342  0.32987  1.0000
  S   S1149     1.0  0.98575  0.50815  0.42991  1.0000
  H   H9106     1.0  0.89980  0.71222  0.05170  1.0000
  H   H9107     1.0  0.86958  0.51714  0.47251  1.0000
  H   H9108     1.0  0.82321  0.72557  0.41910  1.0000
  C   C5135     1.0  0.97174  0.72307  0.39477  1.0000
  H   H9109     1.0  0.82151  0.48497  0.41692  1.0000
  H   H9110     1.0  0.91273  0.72635  0.02614  1.0000
  C   C5136     1.0  0.98907  0.70165  0.35325  1.0000
  H   H9111     1.0  0.90891  0.72642  0.05405  1.0000
  H   H9112     1.0  0.98457  0.71844  0.47443  1.0000
  C   C5137     1.0  0.74748  0.71761  0.34298  1.0000
  C   C5138     1.0  0.84621  0.73150  0.44035  1.0000
  H   H9113     1.0  0.74375  0.70826  0.35311  1.0000
  N   N286      1.0  0.87793  0.72570  0.07657  1.0000
  H   H9114     1.0  0.74554  0.72849  0.34728  1.0000
  H   H9115     1.0  0.87848  0.72978  0.27021  1.0000
  H   H9116     1.0  0.94650  0.72483  0.37698  1.0000
  C   C5139     1.0  0.89894  0.72495  0.05006  1.0000
  H   H9117     1.0  0.87297  0.72806  0.45179  1.0000
  H   H9118     1.0  0.95907  0.72818  0.39867  1.0000
  H   H9119     1.0  0.93694  0.73297  0.43675  1.0000
  Fe  Fe576     1.0  0.80839  0.72946  0.34321  1.0000
  H   H9120     1.0  0.97223  0.72958  0.36975  1.0000
  H   H9121     1.0  0.89179  0.73043  0.02770  1.0000
  H   H9122     1.0  0.83885  0.73298  0.35225  1.0000
  S   S1150     1.0  0.78383  0.73365  0.33942  1.0000
  H   H9123     1.0  0.83051  0.73386  0.18730  1.0000
  H   H9124     1.0  0.86407  0.73381  0.09767  1.0000
  H   H9125     1.0  0.74106  0.73376  0.08008  1.0000
  H   H9126     1.0  0.89036  0.51922  0.47975  1.0000
  H   H9127     1.0  0.75043  0.64818  0.84248  1.0000
  H   H9128     1.0  0.97782  0.68960  0.79859  1.0000
  H   H9129     1.0  0.98492  0.49468  0.61959  1.0000
  H   H9130     1.0  0.95636  0.70185  0.54101  1.0000
  C   C5140     1.0  0.97946  0.67851  0.79476  1.0000
  C   C5141     1.0  0.95075  0.72044  0.57423  1.0000
  H   H9131     1.0  0.86838  0.72535  0.88080  1.0000
  H   H9132     1.0  0.74990  0.68709  0.84661  1.0000
  C   C5142     1.0  0.93369  0.72172  0.83980  1.0000
  S   S1151     1.0  0.86362  0.51651  0.59234  1.0000
  H   H9133     1.0  0.94908  0.60934  0.59915  1.0000
  C   C5143     1.0  0.95783  0.70815  0.52840  1.0000
  H   H9134     1.0  0.98442  0.64328  0.59771  1.0000
  C   C5144     1.0  0.83735  0.72663  0.92760  1.0000
  H   H9135     1.0  0.91891  0.65225  0.57741  1.0000
  H   H9136     1.0  0.76380  0.69683  0.73474  1.0000
  C   C5145     1.0  0.86015  0.70381  0.49743  1.0000
  Fe  Fe577     1.0  0.87819  0.55708  0.65210  1.0000
  S   S1152     1.0  0.87726  0.56262  0.67525  1.0000
  S   S1153     1.0  0.87502  0.53317  0.65164  1.0000
  Fe  Fe578     1.0  0.89018  0.58623  0.63299  1.0000
  S   S1154     1.0  0.89031  0.59426  0.65414  1.0000
  S   S1155     1.0  0.90108  0.59899  0.60921  1.0000
  Fe  Fe579     1.0  0.90052  0.56912  0.66349  1.0000
  S   S1156     1.0  0.92123  0.56161  0.67502  1.0000
  Fe  Fe580     1.0  0.86699  0.58751  0.66436  1.0000
  S   S1157     1.0  0.84904  0.60598  0.67629  1.0000
  S   S1158     1.0  0.90245  0.56153  0.64143  1.0000
  S   S1159     1.0  0.86581  0.58160  0.64205  1.0000
  C   C5146     1.0  0.96110  0.63778  0.60823  1.0000
  H   H9137     1.0  0.85630  0.73010  0.76469  1.0000
  H   H9138     1.0  0.93204  0.70231  0.52080  1.0000
  H   H9139     1.0  0.76965  0.60635  0.79007  1.0000
  Fe  Fe581     1.0  0.79433  0.72308  0.93484  1.0000
  S   S1160     1.0  0.80231  0.69752  0.94481  1.0000
  H   H9140     1.0  0.91597  0.68008  0.51880  1.0000
  Fe  Fe582     1.0  0.77677  0.69783  0.95504  1.0000
  S   S1161     1.0  0.76682  0.67763  0.95503  1.0000
  H   H9141     1.0  0.82663  0.72187  0.93048  1.0000
  S   S1162     1.0  0.76872  0.72293  0.94332  1.0000
  H   H9142     1.0  0.98968  0.53710  0.66913  1.0000
  Fe  Fe583     1.0  0.86594  0.71606  0.57506  1.0000
  H   H9143     1.0  0.86177  0.69140  0.95927  1.0000
  H   H9144     1.0  0.75538  0.65778  0.81350  1.0000
  H   H9145     1.0  0.96407  0.53503  0.58861  1.0000
  H   H9146     1.0  0.74716  0.61049  0.84685  1.0000
  S   S1163     1.0  0.77161  0.62976  0.86313  1.0000
  N   N287      1.0  0.97176  0.71593  0.52358  1.0000
  C   C5147     1.0  0.75599  0.69336  0.92795  1.0000
  H   H9147     1.0  0.85338  0.66605  0.61371  1.0000
  H   H9148     1.0  0.97961  0.68249  0.53419  1.0000
  H   H9149     1.0  0.93744  0.72617  0.53613  1.0000
  S   S1164     1.0  0.87195  0.71021  0.78790  1.0000
  H   H9150     1.0  0.86680  0.63568  0.62713  1.0000
  S   S1165     1.0  0.88780  0.69478  0.82801  1.0000
  Fe  Fe584     1.0  0.84290  0.64590  0.77413  1.0000
  S   S1166     1.0  0.82376  0.66715  0.76938  1.0000
  S   S1167     1.0  0.85900  0.64443  0.78968  1.0000
  Fe  Fe585     1.0  0.83318  0.62749  0.75610  1.0000
  S   S1168     1.0  0.81308  0.64717  0.75013  1.0000
  S   S1169     1.0  0.83893  0.60411  0.74904  1.0000
  Fe  Fe586     1.0  0.83016  0.66267  0.74498  1.0000
  H   H9151     1.0  0.74296  0.62838  0.83228  1.0000
  Fe  Fe587     1.0  0.80847  0.64978  0.77510  1.0000
  S   S1170     1.0  0.78352  0.65437  0.78936  1.0000
  S   S1171     1.0  0.85071  0.64280  0.74923  1.0000
  S   S1172     1.0  0.82719  0.62868  0.78160  1.0000
  H   H9152     1.0  0.81706  0.69544  0.74767  1.0000
  C   C5148     1.0  0.86829  0.69187  0.78868  1.0000
  C   C5149     1.0  0.86965  0.67948  0.80179  1.0000
  C   C5150     1.0  0.86686  0.66492  0.80200  1.0000
  C   C5151     1.0  0.86232  0.66280  0.78927  1.0000
  C   C5152     1.0  0.86074  0.67525  0.77624  1.0000
  C   C5153     1.0  0.86394  0.68967  0.77587  1.0000
  H   H9153     1.0  0.82675  0.65968  0.65499  1.0000
  H   H9154     1.0  0.85736  0.67367  0.76632  1.0000
  H   H9155     1.0  0.86302  0.69912  0.76563  1.0000
  C   C5154     1.0  0.77490  0.63879  0.84295  1.0000
  C   C5155     1.0  0.76237  0.64680  0.83561  1.0000
  C   C5156     1.0  0.76519  0.65227  0.81919  1.0000
  C   C5157     1.0  0.78058  0.64996  0.81005  1.0000
  C   C5158     1.0  0.79320  0.64298  0.81754  1.0000
  C   C5159     1.0  0.79034  0.63720  0.83392  1.0000
  C   C5160     1.0  0.98092  0.71950  0.75357  1.0000
  H   H9156     1.0  0.92244  0.51147  0.67543  1.0000
  H   H9157     1.0  0.80512  0.64145  0.81063  1.0000
  H   H9158     1.0  0.80012  0.63116  0.83954  1.0000
  H   H9159     1.0  0.88430  0.70813  0.88144  1.0000
  C   C5161     1.0  0.81889  0.70853  0.90091  1.0000
  C   C5162     1.0  0.83063  0.69950  0.89124  1.0000
  C   C5163     1.0  0.84083  0.70671  0.87833  1.0000
  C   C5164     1.0  0.83896  0.72305  0.87485  1.0000
  C   C5165     1.0  0.97677  0.69229  0.76795  1.0000
  H   H9160     1.0  0.81106  0.70289  0.91080  1.0000
  H   H9161     1.0  0.83193  0.68689  0.89384  1.0000
  H   H9162     1.0  0.97927  0.73174  0.75470  1.0000
  C   C5166     1.0  0.75805  0.67938  0.93932  1.0000
  H   H9163     1.0  0.79979  0.60334  0.77516  1.0000
  H   H9164     1.0  0.88752  0.72677  0.88178  1.0000
  C   C5167     1.0  0.77500  0.69853  0.73604  1.0000
  C   C5168     1.0  0.76426  0.71508  0.70487  1.0000
  H   H9165     1.0  0.91340  0.65038  0.51046  1.0000
  H   H9166     1.0  0.92609  0.48974  0.62976  1.0000
  H   H9167     1.0  0.85321  0.67647  0.91314  1.0000
  C   C5169     1.0  0.84405  0.69100  0.93096  1.0000
  H   H9168     1.0  0.97586  0.52260  0.62342  1.0000
  C   C5170     1.0  0.93682  0.72499  0.56876  1.0000
  H   H9169     1.0  0.82050  0.71292  0.77777  1.0000
  C   C5171     1.0  0.74331  0.61558  0.83552  1.0000
  C   C5172     1.0  0.91873  0.52154  0.66602  1.0000
  C   C5173     1.0  0.95638  0.70259  0.83043  1.0000
  H   H9170     1.0  0.81670  0.62579  0.63457  1.0000
  H   H9171     1.0  0.96148  0.69296  0.82458  1.0000
  C   C5174     1.0  0.84654  0.66458  0.66051  1.0000
  C   C5175     1.0  0.84638  0.60508  0.69657  1.0000
  C   C5176     1.0  0.85073  0.59100  0.70712  1.0000
  C   C5177     1.0  0.84820  0.59077  0.72322  1.0000
  C   C5178     1.0  0.84158  0.60465  0.72884  1.0000
  C   C5179     1.0  0.83732  0.61874  0.71827  1.0000
  C   C5180     1.0  0.83949  0.61888  0.70226  1.0000
  H   H9172     1.0  0.85583  0.58024  0.70290  1.0000
  H   H9173     1.0  0.85141  0.57980  0.73135  1.0000
  H   H9174     1.0  0.83216  0.62951  0.72245  1.0000
  H   H9175     1.0  0.83583  0.62972  0.69422  1.0000
  C   C5181     1.0  0.93279  0.57565  0.66981  1.0000
  C   C5182     1.0  0.94913  0.57063  0.66775  1.0000
  N   N288      1.0  0.85700  0.69974  0.92744  1.0000
  C   C5183     1.0  0.93550  0.60274  0.66326  1.0000
  C   C5184     1.0  0.92595  0.59172  0.66771  1.0000
  H   H9176     1.0  0.95437  0.55822  0.66984  1.0000
  H   H9177     1.0  0.93021  0.61516  0.66163  1.0000
  H   H9178     1.0  0.91332  0.59566  0.66969  1.0000
  C   C5185     1.0  0.88861  0.61661  0.60241  1.0000
  C   C5186     1.0  0.87297  0.61704  0.60281  1.0000
  C   C5187     1.0  0.86338  0.63108  0.59647  1.0000
  C   C5188     1.0  0.86925  0.64479  0.59030  1.0000
  C   C5189     1.0  0.88479  0.64443  0.59026  1.0000
  C   C5190     1.0  0.89454  0.63027  0.59606  1.0000
  H   H9179     1.0  0.86840  0.60645  0.60760  1.0000
  H   H9180     1.0  0.85140  0.63132  0.59637  1.0000
  H   H9181     1.0  0.88931  0.65502  0.58569  1.0000
  H   H9182     1.0  0.90663  0.62992  0.59580  1.0000
  H   H9183     1.0  0.83599  0.65635  0.68522  1.0000
  C   C5191     1.0  0.88556  0.64193  0.48594  1.0000
  H   H9184     1.0  0.76596  0.66594  0.86240  1.0000
  H   H9185     1.0  0.78505  0.72837  0.68369  1.0000
  S   S1173     1.0  0.74566  0.63884  0.90272  1.0000
  C   C5192     1.0  0.82899  0.61913  0.63458  1.0000
  C   C5193     1.0  0.92930  0.64867  0.56822  1.0000
  H   H9186     1.0  0.90485  0.49433  0.63346  1.0000
  H   H9187     1.0  0.88347  0.49774  0.50052  1.0000
  H   H9188     1.0  0.93184  0.66592  0.51018  1.0000
  H   H9189     1.0  0.96573  0.61038  0.57460  1.0000
  H   H9190     1.0  0.76777  0.67883  0.83416  1.0000
  C   C5194     1.0  0.80343  0.70747  0.68761  1.0000
  C   C5195     1.0  0.89441  0.48995  0.49537  1.0000
  H   H9191     1.0  0.92617  0.62780  0.61230  1.0000
  S   S1174     1.0  0.92110  0.68467  0.58137  1.0000
  H   H9192     1.0  0.83939  0.69340  0.60135  1.0000
  H   H9193     1.0  0.78374  0.73326  0.71957  1.0000
  H   H9194     1.0  0.80853  0.60155  0.79735  1.0000
  C   C5196     1.0  0.94724  0.64180  0.58736  1.0000
  C   C5197     1.0  0.86608  0.52077  0.60935  1.0000
  C   C5198     1.0  0.87090  0.50895  0.62179  1.0000
  C   C5199     1.0  0.87317  0.51296  0.63485  1.0000
  C   C5200     1.0  0.87107  0.52876  0.63541  1.0000
  C   C5201     1.0  0.86606  0.54057  0.62308  1.0000
  C   C5202     1.0  0.86341  0.53657  0.61020  1.0000
  H   H9195     1.0  0.87282  0.49675  0.62136  1.0000
  H   H9196     1.0  0.87673  0.50377  0.64451  1.0000
  H   H9197     1.0  0.86419  0.55278  0.62346  1.0000
  H   H9198     1.0  0.85954  0.54579  0.60070  1.0000
  H   H9199     1.0  0.84717  0.67624  0.65262  1.0000
  H   H9200     1.0  0.93657  0.64734  0.59518  1.0000
  H   H9201     1.0  0.96401  0.62372  0.68836  1.0000
  S   S1175     1.0  0.96380  0.61151  0.65434  1.0000
  H   H9202     1.0  0.97925  0.70599  0.54561  1.0000
  C   C5203     1.0  0.97146  0.65944  0.61234  1.0000
  H   H9203     1.0  0.79832  0.61816  0.80513  1.0000
  C   C5204     1.0  0.82727  0.73207  0.88460  1.0000
  H   H9204     1.0  0.97639  0.59885  0.58935  1.0000
  S   S1176     1.0  0.85817  0.72561  0.82693  1.0000
  H   H9205     1.0  0.87712  0.68012  0.92800  1.0000
  C   C5205     1.0  0.94575  0.48535  0.57350  1.0000
  Fe  Fe588     1.0  0.98649  0.72878  0.57235  1.0000
  H   H9206     1.0  0.98439  0.53052  0.64128  1.0000
  H   H9207     1.0  0.79438  0.68408  0.74707  1.0000
  H   H9208     1.0  0.96646  0.62887  0.61764  1.0000
  H   H9209     1.0  0.82009  0.72196  0.67331  1.0000
  C   C5206     1.0  0.97595  0.49109  0.63021  1.0000
  C   C5207     1.0  0.94325  0.72731  0.84599  1.0000
  C   C5208     1.0  0.79924  0.60531  0.80729  1.0000
  C   C5209     1.0  0.77172  0.60811  0.82107  1.0000
  C   C5210     1.0  0.78422  0.58509  0.80963  1.0000
  C   C5211     1.0  0.79659  0.57645  0.79749  1.0000
  C   C5212     1.0  0.80581  0.59755  0.82239  1.0000
  H   H9210     1.0  0.74270  0.69619  0.70985  1.0000
  C   C5213     1.0  0.79723  0.55878  0.80227  1.0000
  C   C5214     1.0  0.82220  0.60044  0.82025  1.0000
  Fe  Fe589     1.0  0.80213  0.70512  0.96643  1.0000
  H   H9211     1.0  0.77204  0.62041  0.82055  1.0000
  H   H9212     1.0  0.77467  0.60114  0.83247  1.0000
  H   H9213     1.0  0.78599  0.57869  0.82161  1.0000
  H   H9214     1.0  0.77269  0.58336  0.80916  1.0000
  H   H9215     1.0  0.80858  0.57803  0.79632  1.0000
  H   H9216     1.0  0.79822  0.60257  0.83251  1.0000
  H   H9217     1.0  0.80677  0.58466  0.82538  1.0000
  S   S1177     1.0  0.79606  0.73077  0.95567  1.0000
  H   H9218     1.0  0.80595  0.55290  0.79321  1.0000
  H   H9219     1.0  0.80090  0.55369  0.81368  1.0000
  H   H9220     1.0  0.78557  0.55638  0.80328  1.0000
  H   H9221     1.0  0.83056  0.59546  0.81041  1.0000
  H   H9222     1.0  0.82176  0.61323  0.81782  1.0000
  H   H9223     1.0  0.82664  0.59475  0.83118  1.0000
  C   C5215     1.0  0.90726  0.49021  0.50356  1.0000
  H   H9224     1.0  0.92127  0.72702  0.84103  1.0000
  H   H9225     1.0  0.83712  0.71413  0.78428  1.0000
  N   N289      1.0  0.88074  0.65488  0.52523  1.0000
  C   C5216     1.0  0.88379  0.64477  0.51351  1.0000
  C   C5217     1.0  0.88206  0.64473  0.54140  1.0000
  C   C5218     1.0  0.86404  0.66441  0.52620  1.0000
  C   C5219     1.0  0.89160  0.66619  0.52001  1.0000
  C   C5220     1.0  0.90939  0.65886  0.51825  1.0000
  C   C5221     1.0  0.88180  0.65354  0.49658  1.0000
  C   C5222     1.0  0.85736  0.67369  0.53954  1.0000
  C   C5223     1.0  0.89428  0.62883  0.54221  1.0000
  C   C5224     1.0  0.89661  0.62157  0.55898  1.0000
  C   C5225     1.0  0.91914  0.67146  0.51119  1.0000
  H   H9226     1.0  0.98184  0.61406  0.67697  1.0000
  C   C5226     1.0  0.84023  0.68221  0.53972  1.0000
  H   H9227     1.0  0.87575  0.63639  0.51795  1.0000
  H   H9228     1.0  0.89584  0.63732  0.51226  1.0000
  H   H9229     1.0  0.88437  0.65157  0.54873  1.0000
  H   H9230     1.0  0.87064  0.64136  0.54781  1.0000
  H   H9231     1.0  0.85588  0.65662  0.52769  1.0000
  H   H9232     1.0  0.86295  0.67326  0.51508  1.0000
  H   H9233     1.0  0.88967  0.67438  0.50875  1.0000
  H   H9234     1.0  0.88879  0.67391  0.52846  1.0000
  C   C5227     1.0  0.75436  0.60759  0.82250  1.0000
  H   H9235     1.0  0.91203  0.65296  0.52999  1.0000
  H   H9236     1.0  0.86954  0.66020  0.49650  1.0000
  Fe  Fe590     1.0  0.74739  0.63688  0.87809  1.0000
  H   H9237     1.0  0.86419  0.68259  0.53810  1.0000
  H   H9238     1.0  0.85758  0.66576  0.55120  1.0000
  H   H9239     1.0  0.89001  0.62038  0.53843  1.0000
  H   H9240     1.0  0.90592  0.62997  0.53455  1.0000
  H   H9241     1.0  0.90481  0.60989  0.55942  1.0000
  H   H9242     1.0  0.90171  0.62921  0.56297  1.0000
  H   H9243     1.0  0.88523  0.61996  0.56716  1.0000
  C   C5228     1.0  0.98650  0.66310  0.82087  1.0000
  H   H9244     1.0  0.87836  0.66688  0.97071  1.0000
  S   S1178     1.0  0.88223  0.49019  0.56225  1.0000
  H   H9245     1.0  0.75028  0.61365  0.81145  1.0000
  C   C5229     1.0  0.88152  0.67199  0.95792  1.0000
  H   H9246     1.0  0.97930  0.66783  0.60650  1.0000
  H   H9247     1.0  0.83587  0.68882  0.54929  1.0000
  H   H9248     1.0  0.83915  0.69067  0.52839  1.0000
  H   H9249     1.0  0.83274  0.67366  0.54193  1.0000
  H   H9250     1.0  0.91498  0.51172  0.55810  1.0000
  C   C5230     1.0  0.83739  0.62700  0.64172  1.0000
  H   H9251     1.0  0.79050  0.69299  0.71461  1.0000
  H   H9252     1.0  0.98317  0.66484  0.65253  1.0000
  S   S1179     1.0  0.83371  0.67993  0.72181  1.0000
  H   H9253     1.0  0.89674  0.68718  0.63414  1.0000
  H   H9254     1.0  0.77909  0.65296  0.88034  1.0000
  H   H9255     1.0  0.83645  0.70792  0.69816  1.0000
  H   H9256     1.0  0.77175  0.68939  0.70630  1.0000
  Fe  Fe591     1.0  0.86942  0.68240  0.57378  1.0000
  H   H9257     1.0  0.84941  0.61964  0.64168  1.0000
  N   N290      1.0  0.97011  0.68119  0.78247  1.0000
  C   C5231     1.0  0.97116  0.66604  0.77799  1.0000
  C   C5232     1.0  0.95311  0.68789  0.78913  1.0000
  H   H9258     1.0  0.96321  0.66978  0.81653  1.0000
  H   H9259     1.0  0.97627  0.65446  0.80730  1.0000
  Fe  Fe592     1.0  0.98842  0.60054  0.64348  1.0000
  Fe  Fe593     1.0  0.97638  0.49192  0.58026  1.0000
  C   C5233     1.0  0.97481  0.70937  0.76950  1.0000
  C   C5234     1.0  0.94190  0.69313  0.77752  1.0000
  C   C5235     1.0  0.92529  0.70057  0.78536  1.0000
  H   H9260     1.0  0.84375  0.72950  0.73029  1.0000
  C   C5236     1.0  0.90511  0.52181  0.56049  1.0000
  H   H9261     1.0  0.80011  0.61881  0.88339  1.0000
  H   H9262     1.0  0.96549  0.66846  0.76788  1.0000
  H   H9263     1.0  0.96431  0.65836  0.78766  1.0000
  H   H9264     1.0  0.94805  0.67912  0.79914  1.0000
  H   H9265     1.0  0.95211  0.69797  0.79437  1.0000
  H   H9266     1.0  0.96160  0.73047  0.54064  1.0000
  H   H9267     1.0  0.76557  0.69762  0.83882  1.0000
  C   C5237     1.0  0.76288  0.68576  0.84347  1.0000
  H   H9268     1.0  0.83019  0.66504  0.94359  1.0000
  H   H9269     1.0  0.98206  0.61836  0.69526  1.0000
  H   H9270     1.0  0.95340  0.49305  0.56614  1.0000
  C   C5238     1.0  0.74826  0.69468  0.91602  1.0000
  H   H9271     1.0  0.97549  0.64691  0.68390  1.0000
  H   H9272     1.0  0.90777  0.50253  0.50266  1.0000
  H   H9273     1.0  0.96231  0.71494  0.77356  1.0000
  H   H9274     1.0  0.94593  0.70197  0.76704  1.0000
  H   H9275     1.0  0.94108  0.68291  0.77357  1.0000
  H   H9276     1.0  0.92538  0.71132  0.78891  1.0000
  H   H9277     1.0  0.91733  0.70390  0.77703  1.0000
  H   H9278     1.0  0.92049  0.69219  0.79594  1.0000
  C   C5239     1.0  0.86935  0.70122  0.48275  1.0000
  C   C5240     1.0  0.98773  0.64139  0.76859  1.0000
  H   H9279     1.0  0.75191  0.73196  0.91588  1.0000
  H   H9280     1.0  0.88784  0.71557  0.63270  1.0000
  H   H9281     1.0  0.83825  0.68920  0.94367  1.0000
  H   H9282     1.0  0.89161  0.48781  0.52684  1.0000
  H   H9283     1.0  0.90900  0.51926  0.66231  1.0000
  H   H9284     1.0  0.74452  0.70837  0.69013  1.0000
  H   H9285     1.0  0.87958  0.69672  0.93286  1.0000
  N   N291      1.0  0.95981  0.53119  0.64334  1.0000
  C   C5241     1.0  0.94625  0.52703  0.65659  1.0000
  C   C5242     1.0  0.97296  0.53294  0.64967  1.0000
  C   C5243     1.0  0.95380  0.54697  0.63336  1.0000
  C   C5244     1.0  0.96586  0.51935  0.63304  1.0000
  H   H9286     1.0  0.82503  0.65045  0.63409  1.0000
  H   H9287     1.0  0.93412  0.65919  0.56143  1.0000
  C   C5245     1.0  0.96629  0.55388  0.61952  1.0000
  H   H9288     1.0  0.98241  0.65526  0.83222  1.0000
  H   H9289     1.0  0.98617  0.66818  0.67602  1.0000
  C   C5246     1.0  0.82990  0.71129  0.70910  1.0000
  C   C5247     1.0  0.95973  0.57092  0.61219  1.0000
  H   H9290     1.0  0.94146  0.53655  0.66326  1.0000
  H   H9291     1.0  0.93668  0.62549  0.58145  1.0000
  H   H9292     1.0  0.97697  0.55373  0.62330  1.0000
  H   H9293     1.0  0.97145  0.54533  0.65051  1.0000
  H   H9294     1.0  0.94817  0.55576  0.64091  1.0000
  H   H9295     1.0  0.94448  0.54641  0.62788  1.0000
  H   H9296     1.0  0.95670  0.51948  0.62693  1.0000
  H   H9297     1.0  0.84548  0.71058  0.94736  1.0000
  H   H9298     1.0  0.92782  0.53326  0.64274  1.0000
  N   N292      1.0  0.95822  0.62982  0.59695  1.0000
  H   H9299     1.0  0.96995  0.54709  0.61016  1.0000
  C   C5248     1.0  0.81741  0.72479  0.89780  1.0000
  H   H9300     1.0  0.84122  0.71882  0.75498  1.0000
  C   C5249     1.0  0.85059  0.71404  0.93457  1.0000
  C   C5250     1.0  0.97203  0.50225  0.64133  1.0000
  C   C5251     1.0  0.92958  0.60482  0.62723  1.0000
  H   H9301     1.0  0.95188  0.63321  0.56586  1.0000
  H   H9302     1.0  0.75615  0.73357  0.89493  1.0000
  H   H9303     1.0  0.95809  0.57849  0.62052  1.0000
  H   H9304     1.0  0.96822  0.57488  0.60131  1.0000
  H   H9305     1.0  0.94831  0.57220  0.60913  1.0000
  N   N293      1.0  0.91711  0.53070  0.59508  1.0000
  C   C5252     1.0  0.91772  0.52807  0.57914  1.0000
  C   C5253     1.0  0.93277  0.53331  0.59556  1.0000
  C   C5254     1.0  0.91403  0.51594  0.60708  1.0000
  C   C5255     1.0  0.90389  0.54408  0.59945  1.0000
  C   C5256     1.0  0.90460  0.56057  0.58887  1.0000
  C   C5257     1.0  0.90294  0.52397  0.57715  1.0000
  C   C5258     1.0  0.91566  0.51474  0.62401  1.0000
  C   C5259     1.0  0.94228  0.54186  0.58009  1.0000
  C   C5260     1.0  0.95645  0.54580  0.58299  1.0000
  C   C5261     1.0  0.88937  0.57244  0.59336  1.0000
  H   H9306     1.0  0.85825  0.66674  0.93186  1.0000
  H   H9307     1.0  0.78996  0.69656  0.89883  1.0000
  H   H9308     1.0  0.92791  0.51830  0.57629  1.0000
  H   H9309     1.0  0.91989  0.53849  0.56970  1.0000
  H   H9310     1.0  0.93117  0.53974  0.60494  1.0000
  H   H9311     1.0  0.94091  0.52183  0.59881  1.0000
  H   H9312     1.0  0.92196  0.50546  0.60298  1.0000
  H   H9313     1.0  0.90189  0.51456  0.60836  1.0000
  H   H9314     1.0  0.89249  0.54157  0.59991  1.0000
  H   H9315     1.0  0.90316  0.54517  0.61158  1.0000
  H   H9316     1.0  0.90621  0.56058  0.57630  1.0000
  H   H9317     1.0  0.91435  0.56474  0.59051  1.0000
  C   C5262     1.0  0.78580  0.70352  0.71980  1.0000
  H   H9318     1.0  0.89237  0.53348  0.57927  1.0000
  H   H9319     1.0  0.90587  0.52309  0.62982  1.0000
  H   H9320     1.0  0.92688  0.51728  0.62410  1.0000
  H   H9321     1.0  0.94683  0.53413  0.57149  1.0000
  H   H9322     1.0  0.93509  0.55291  0.57455  1.0000
  H   H9323     1.0  0.79348  0.62300  0.75195  1.0000
  H   H9324     1.0  0.96359  0.55100  0.57162  1.0000
  C   C5263     1.0  0.95940  0.72050  0.84436  1.0000
  H   H9325     1.0  0.87922  0.56925  0.59131  1.0000
  H   H9326     1.0  0.88712  0.57287  0.60595  1.0000
  H   H9327     1.0  0.89035  0.58435  0.58612  1.0000
  S   S1180     1.0  0.82377  0.69364  0.97647  1.0000
  H   H9328     1.0  0.91742  0.71730  0.52940  1.0000
  C   C5264     1.0  0.83958  0.65461  0.65388  1.0000
  S   S1181     1.0  0.98109  0.50545  0.52275  1.0000
  S   S1182     1.0  0.97939  0.51380  0.56209  1.0000
  C   C5265     1.0  0.98808  0.65629  0.77312  1.0000
  C   C5266     1.0  0.97390  0.62410  0.58660  1.0000
  H   H9329     1.0  0.86894  0.72676  0.90751  1.0000
  C   C5267     1.0  0.98046  0.63878  0.67573  1.0000
  H   H9330     1.0  0.97815  0.70238  0.83576  1.0000
  H   H9331     1.0  0.79621  0.70598  0.72210  1.0000
  C   C5268     1.0  0.95602  0.70470  0.58118  1.0000
  H   H9332     1.0  0.98158  0.70962  0.77791  1.0000
  C   C5269     1.0  0.95116  0.61601  0.60667  1.0000
  H   H9333     1.0  0.83921  0.70110  0.61787  1.0000
  C   C5270     1.0  0.97924  0.71691  0.50635  1.0000
  H   H9334     1.0  0.82431  0.67395  0.67536  1.0000
  H   H9335     1.0  0.88429  0.69603  0.62018  1.0000
  H   H9336     1.0  0.93668  0.62534  0.62743  1.0000
  H   H9337     1.0  0.91720  0.67774  0.49926  1.0000
  H   H9338     1.0  0.93812  0.59669  0.63411  1.0000
  H   H9339     1.0  0.84166  0.67482  0.68086  1.0000
  H   H9340     1.0  0.87475  0.72948  0.70554  1.0000
  C   C5271     1.0  0.87747  0.65112  0.63247  1.0000
  C   C5272     1.0  0.89284  0.63944  0.63494  1.0000
  H   H9341     1.0  0.87933  0.65737  0.61990  1.0000
  H   H9342     1.0  0.87517  0.65988  0.63968  1.0000
  H   H9343     1.0  0.90262  0.64574  0.63124  1.0000
  H   H9344     1.0  0.89191  0.63348  0.64754  1.0000
  H   H9345     1.0  0.89564  0.63043  0.62783  1.0000
  N   N294      1.0  0.89093  0.60510  0.72106  1.0000
  C   C5273     1.0  0.88341  0.61501  0.70757  1.0000
  C   C5274     1.0  0.89042  0.58806  0.72331  1.0000
  C   C5275     1.0  0.88126  0.61066  0.73582  1.0000
  C   C5276     1.0  0.90748  0.60699  0.71892  1.0000
  C   C5277     1.0  0.91933  0.60344  0.70373  1.0000
  C   C5278     1.0  0.88185  0.63300  0.70450  1.0000
  C   C5279     1.0  0.88514  0.60021  0.75165  1.0000
  C   C5280     1.0  0.89255  0.58175  0.70839  1.0000
  C   C5281     1.0  0.89303  0.56413  0.71267  1.0000
  C   C5282     1.0  0.93475  0.60817  0.70213  1.0000
  C   C5283     1.0  0.87489  0.64147  0.69003  1.0000
  C   C5284     1.0  0.87480  0.60718  0.76561  1.0000
  H   H9346     1.0  0.87136  0.61298  0.70958  1.0000
  H   H9347     1.0  0.88981  0.61138  0.69636  1.0000
  H   H9348     1.0  0.89927  0.58024  0.73009  1.0000
  H   H9349     1.0  0.87874  0.58594  0.73055  1.0000
  H   H9350     1.0  0.86853  0.61178  0.73661  1.0000
  H   H9351     1.0  0.88254  0.62262  0.73542  1.0000
  H   H9352     1.0  0.90734  0.61908  0.71967  1.0000
  H   H9353     1.0  0.91283  0.59910  0.72874  1.0000
  H   H9354     1.0  0.91475  0.60993  0.69307  1.0000
  H   H9355     1.0  0.92231  0.59064  0.70417  1.0000
  H   H9356     1.0  0.87381  0.63781  0.71457  1.0000
  H   H9357     1.0  0.89347  0.63590  0.70242  1.0000
  H   H9358     1.0  0.89754  0.59913  0.75196  1.0000
  H   H9359     1.0  0.88307  0.58825  0.75362  1.0000
  H   H9360     1.0  0.88253  0.58758  0.70255  1.0000
  H   H9361     1.0  0.90338  0.58378  0.69961  1.0000
  H   H9362     1.0  0.88217  0.56156  0.72130  1.0000
  H   H9363     1.0  0.89378  0.56003  0.70197  1.0000
  H   H9364     1.0  0.90350  0.55750  0.71762  1.0000
  H   H9365     1.0  0.94337  0.60486  0.69157  1.0000
  H   H9366     1.0  0.93275  0.62108  0.70077  1.0000
  H   H9367     1.0  0.93993  0.60205  0.71257  1.0000
  H   H9368     1.0  0.87353  0.65435  0.68826  1.0000
  H   H9369     1.0  0.88271  0.63761  0.67933  1.0000
  H   H9370     1.0  0.86311  0.63904  0.69168  1.0000
  H   H9371     1.0  0.87674  0.61901  0.76469  1.0000
  H   H9372     1.0  0.86217  0.60808  0.76623  1.0000
  H   H9373     1.0  0.87776  0.59948  0.77674  1.0000
  H   H9374     1.0  0.96679  0.70114  0.58545  1.0000
  N   N295      1.0  0.78362  0.60234  0.80737  1.0000
  H   H9375     1.0  0.91811  0.60772  0.63541  1.0000
  H   H9376     1.0  0.84779  0.70363  0.50031  1.0000
  H   H9377     1.0  0.92537  0.64413  0.56009  1.0000
  H   H9378     1.0  0.97133  0.57764  0.66082  1.0000
  H   H9379     1.0  0.85455  0.67495  0.62814  1.0000
  S   S1183     1.0  0.89328  0.68083  0.55775  1.0000
  H   H9380     1.0  0.75989  0.72516  0.69575  1.0000
  H   H9381     1.0  0.83458  0.69823  0.92479  1.0000
  H   H9382     1.0  0.77602  0.63299  0.76360  1.0000
  C   C5285     1.0  0.98388  0.70582  0.53287  1.0000
  H   H9383     1.0  0.91715  0.71770  0.56637  1.0000
  H   H9384     1.0  0.86809  0.65532  0.81210  1.0000
  C   C5286     1.0  0.97694  0.62272  0.68463  1.0000
  C   C5287     1.0  0.84890  0.67494  0.92607  1.0000
  S   S1184     1.0  0.97150  0.72754  0.85186  1.0000
  H   H9385     1.0  0.85844  0.65819  0.66239  1.0000
  C   C5288     1.0  0.87422  0.71541  0.90382  1.0000
  H   H9386     1.0  0.87797  0.63320  0.49085  1.0000
  H   H9387     1.0  0.95245  0.55446  0.59061  1.0000
  H   H9388     1.0  0.77537  0.67995  0.75718  1.0000
  C   C5289     1.0  0.92790  0.71399  0.57054  1.0000
  H   H9389     1.0  0.93644  0.51263  0.64751  1.0000
  H   H9390     1.0  0.98301  0.50144  0.64496  1.0000
  H   H9391     1.0  0.96901  0.65778  0.59001  1.0000
  S   S1185     1.0  0.95423  0.48961  0.59838  1.0000
  C   C5290     1.0  0.74507  0.66790  0.92641  1.0000
  N   N296      1.0  0.79610  0.66742  0.86752  1.0000
  C   C5291     1.0  0.78788  0.67480  0.85397  1.0000
  C   C5292     1.0  0.81381  0.66471  0.86154  1.0000
  C   C5293     1.0  0.97536  0.66593  0.80994  1.0000
  C   C5294     1.0  0.79072  0.67706  0.87994  1.0000
  C   C5295     1.0  0.79381  0.69388  0.87472  1.0000
  C   C5296     1.0  0.76967  0.67733  0.85804  1.0000
  C   C5297     1.0  0.82030  0.67675  0.84690  1.0000
  C   C5298     1.0  0.83821  0.67406  0.84387  1.0000
  C   C5299     1.0  0.78606  0.70303  0.88774  1.0000
  H   H9392     1.0  0.77237  0.70744  0.74321  1.0000
  H   H9393     1.0  0.79238  0.66737  0.84501  1.0000
  H   H9394     1.0  0.79063  0.68641  0.84775  1.0000
  H   H9395     1.0  0.81966  0.66393  0.87114  1.0000
  H   H9396     1.0  0.81849  0.65317  0.85798  1.0000
  H   H9397     1.0  0.77800  0.67769  0.88541  1.0000
  H   H9398     1.0  0.79680  0.67121  0.88982  1.0000
  H   H9399     1.0  0.78913  0.70066  0.86418  1.0000
  H   H9400     1.0  0.80665  0.69331  0.87225  1.0000
  H   H9401     1.0  0.91412  0.53236  0.67080  1.0000
  H   H9402     1.0  0.76423  0.68455  0.86703  1.0000
  H   H9403     1.0  0.88982  0.66181  0.49119  1.0000
  H   H9404     1.0  0.94147  0.72704  0.51549  1.0000
  H   H9405     1.0  0.81741  0.67543  0.83624  1.0000
  H   H9406     1.0  0.81531  0.68905  0.84812  1.0000
  H   H9407     1.0  0.84251  0.68268  0.83324  1.0000
  H   H9408     1.0  0.84182  0.67567  0.85398  1.0000
  H   H9409     1.0  0.84388  0.66205  0.84182  1.0000
  H   H9410     1.0  0.97735  0.63389  0.57676  1.0000
  H   H9411     1.0  0.78938  0.71462  0.88415  1.0000
  H   H9412     1.0  0.77306  0.70500  0.88991  1.0000
  H   H9413     1.0  0.92260  0.72729  0.60579  1.0000
  C   C5300     1.0  0.82769  0.72102  0.77790  1.0000
  H   H9414     1.0  0.98226  0.70513  0.50349  1.0000
  C   C5301     1.0  0.79624  0.62485  0.89338  1.0000
  H   H9415     1.0  0.90488  0.71785  0.59766  1.0000
  Fe  Fe594     1.0  0.89815  0.69373  0.57310  1.0000
  H   H9416     1.0  0.95066  0.68167  0.58900  1.0000
  C   C5302     1.0  0.81407  0.71341  0.67196  1.0000
  C   C5303     1.0  0.97568  0.60959  0.57980  1.0000
  H   H9417     1.0  0.83094  0.62686  0.65408  1.0000
  H   H9418     1.0  0.84175  0.64411  0.61978  1.0000
  C   C5304     1.0  0.83111  0.67924  0.62442  1.0000
  C   C5305     1.0  0.76632  0.70020  0.69868  1.0000
  S   S1186     1.0  0.77717  0.70311  0.97778  1.0000
  H   H9419     1.0  0.95279  0.65176  0.58023  1.0000
  H   H9420     1.0  0.79332  0.58069  0.78587  1.0000
  C   C5306     1.0  0.83647  0.66757  0.67643  1.0000
  C   C5307     1.0  0.81910  0.70422  0.73701  1.0000
  C   C5308     1.0  0.83289  0.69504  0.61333  1.0000
  H   H9421     1.0  0.97423  0.64300  0.66586  1.0000
  C   C5309     1.0  0.97206  0.64965  0.60084  1.0000
  S   S1187     1.0  0.87507  0.69315  0.59046  1.0000
  H   H9422     1.0  0.92807  0.59873  0.61888  1.0000
  H   H9423     1.0  0.89418  0.51939  0.55928  1.0000
  H   H9424     1.0  0.82419  0.67412  0.61954  1.0000
  H   H9425     1.0  0.82324  0.70346  0.66804  1.0000
  C   C5310     1.0  0.85126  0.72788  0.62999  1.0000
  H   H9426     1.0  0.84675  0.72869  0.86484  1.0000
  H   H9427     1.0  0.95011  0.51638  0.66533  1.0000
  S   S1188     1.0  0.88628  0.72304  0.84508  1.0000
  H   H9428     1.0  0.88679  0.66221  0.95163  1.0000
  S   S1189     1.0  0.85625  0.69498  0.86726  1.0000
  H   H9429     1.0  0.96502  0.52718  0.67533  1.0000
  H   H9430     1.0  0.75301  0.59525  0.82553  1.0000
  H   H9431     1.0  0.82431  0.68157  0.63606  1.0000
  H   H9432     1.0  0.91466  0.49799  0.64645  1.0000
  H   H9433     1.0  0.86856  0.69358  0.90495  1.0000
  H   H9434     1.0  0.85974  0.70856  0.51969  1.0000
  Fe  Fe595     1.0  0.87712  0.71351  0.80962  1.0000
  H   H9435     1.0  0.87296  0.68105  0.81174  1.0000
  H   H9436     1.0  0.79770  0.62269  0.77777  1.0000
  C   C5311     1.0  0.86690  0.70655  0.50842  1.0000
  S   S1190     1.0  0.85701  0.66234  0.58286  1.0000
  H   H9437     1.0  0.99071  0.72039  0.50352  1.0000
  S   S1191     1.0  0.92918  0.70182  0.82374  1.0000
  C   C5312     1.0  0.96587  0.70806  0.83665  1.0000
  H   H9438     1.0  0.82871  0.60702  0.64165  1.0000
  C   C5313     1.0  0.77824  0.61170  0.79239  1.0000
  H   H9439     1.0  0.94977  0.64420  0.61442  1.0000
  C   C5314     1.0  0.81272  0.72014  0.73722  1.0000
  Fe  Fe596     1.0  0.87011  0.70811  0.84524  1.0000
  H   H9440     1.0  0.85670  0.71836  0.63834  1.0000
  H   H9441     1.0  0.95996  0.69897  0.52158  1.0000
  C   C5315     1.0  0.79115  0.61429  0.77711  1.0000
  C   C5316     1.0  0.89188  0.70495  0.48975  1.0000
  H   H9442     1.0  0.77177  0.62384  0.79374  1.0000
  C   C5317     1.0  0.94030  0.70932  0.83198  1.0000
  H   H9443     1.0  0.95933  0.66627  0.61586  1.0000
  H   H9444     1.0  0.97176  0.69273  0.75788  1.0000
  H   H9445     1.0  0.86446  0.63356  0.64763  1.0000
  Fe  Fe597     1.0  0.90299  0.71134  0.82621  1.0000
  C   C5318     1.0  0.88283  0.70703  0.50464  1.0000
  C   C5319     1.0  0.94182  0.63596  0.57564  1.0000
  H   H9446     1.0  0.96325  0.49803  0.65178  1.0000
  N   N297      1.0  0.77860  0.71749  0.70849  1.0000
  C   C5320     1.0  0.75263  0.66664  0.93846  1.0000
  C   C5321     1.0  0.82746  0.69976  0.72289  1.0000
  H   H9447     1.0  0.97435  0.71973  0.74479  1.0000
  C   C5322     1.0  0.93247  0.52365  0.65192  1.0000
  H   H9448     1.0  0.86022  0.71978  0.93390  1.0000
  H   H9449     1.0  0.80222  0.61751  0.90297  1.0000
  H   H9450     1.0  0.82110  0.70267  0.61245  1.0000
  C   C5323     1.0  0.94692  0.69371  0.58317  1.0000
  C   C5324     1.0  0.83759  0.64417  0.63253  1.0000
  C   C5325     1.0  0.86374  0.64255  0.63645  1.0000
  H   H9451     1.0  0.77159  0.73273  0.90426  1.0000
  C   C5326     1.0  0.95190  0.59769  0.66052  1.0000
  C   C5327     1.0  0.78304  0.68305  0.74539  1.0000
  C   C5328     1.0  0.95870  0.58162  0.66277  1.0000
  H   H9452     1.0  0.95968  0.60754  0.61352  1.0000
  C   C5329     1.0  0.79189  0.65160  0.87495  1.0000
  S   S1192     1.0  0.89374  0.72906  0.80630  1.0000
  H   H9453     1.0  0.88516  0.70996  0.90827  1.0000
  C   C5330     1.0  0.93276  0.69838  0.57798  1.0000
  N   N298      1.0  0.84721  0.65260  0.63729  1.0000
  C   C5331     1.0  0.84740  0.66816  0.62567  1.0000
  C   C5332     1.0  0.94141  0.71894  0.52711  1.0000
  C   C5333     1.0  0.91527  0.49818  0.63401  1.0000
  C   C5334     1.0  0.98958  0.68838  0.53139  1.0000
  S   S1193     1.0  0.88955  0.71762  0.55890  1.0000
  C   C5335     1.0  0.96691  0.73182  0.52783  1.0000
  H   H9454     1.0  0.81333  0.63923  0.88428  1.0000
  H   H9455     1.0  0.89035  0.67913  0.95594  1.0000
  H   H9456     1.0  0.79431  0.64477  0.86571  1.0000
  H   H9457     1.0  0.79659  0.64628  0.89869  1.0000
  H   H9458     1.0  0.83535  0.61832  0.62235  1.0000
  H   H9459     1.0  0.85821  0.67462  0.95504  1.0000
  C   C5336     1.0  0.89740  0.71156  0.62305  1.0000
  S   S1194     1.0  0.89194  0.71004  0.51813  1.0000
  H   H9460     1.0  0.84031  0.64294  0.66221  1.0000
  H   H9461     1.0  0.97073  0.50975  0.49451  1.0000
  C   C5337     1.0  0.92908  0.70928  0.52996  1.0000
  H   H9462     1.0  0.90540  0.69047  0.61340  1.0000
  H   H9463     1.0  0.75413  0.65581  0.94724  1.0000
  C   C5338     1.0  0.89586  0.69534  0.62260  1.0000
  H   H9464     1.0  0.86960  0.71291  0.72096  1.0000
  S   S1195     1.0  0.85858  0.70522  0.55942  1.0000
  Fe  Fe598     1.0  0.88302  0.70466  0.54458  1.0000
  C   C5339     1.0  0.93537  0.61985  0.61847  1.0000
  H   H9465     1.0  0.77727  0.61341  0.76127  1.0000
  C   C5340     1.0  0.79082  0.72132  0.69357  1.0000
  H   H9466     1.0  0.97594  0.51036  0.66715  1.0000
  C   C5341     1.0  0.80036  0.64104  0.88818  1.0000
  H   H9467     1.0  0.82542  0.67443  0.92456  1.0000
  H   H9468     1.0  0.75439  0.71513  0.71540  1.0000
  H   H9469     1.0  0.84080  0.73050  0.91466  1.0000
  H   H9470     1.0  0.86372  0.50190  0.48891  1.0000
  H   H9471     1.0  0.83870  0.65552  0.92720  1.0000
  H   H9472     1.0  0.85993  0.71540  0.61115  1.0000
  H   H9473     1.0  0.90065  0.51279  0.58525  1.0000
  C   C5342     1.0  0.87075  0.68967  0.93443  1.0000
  C   C5343     1.0  0.86257  0.70424  0.90983  1.0000
  H   H9474     1.0  0.95964  0.72250  0.49464  1.0000
  C   C5344     1.0  0.99006  0.52458  0.66979  1.0000
  H   H9475     1.0  0.90744  0.53262  0.55166  1.0000
  Fe  Fe599     1.0  0.77103  0.72831  0.96519  1.0000
  C   C5345     1.0  0.96933  0.72784  0.49452  1.0000
  C   C5346     1.0  0.86678  0.68219  0.95228  1.0000
  H   H9476     1.0  0.90887  0.71010  0.62606  1.0000
  C   C5347     1.0  0.87886  0.71910  0.88588  1.0000
  H   H9477     1.0  0.79816  0.69857  0.68598  1.0000
  C   C5348     1.0  0.78395  0.62135  0.76263  1.0000
  H   H9478     1.0  0.85241  0.70966  0.90403  1.0000
  C   C5349     1.0  0.97513  0.52299  0.66616  1.0000
  H   H9479     1.0  0.98324  0.62027  0.59349  1.0000
  C   C5350     1.0  0.83491  0.66704  0.93067  1.0000
  H   H9480     1.0  0.88446  0.72382  0.60516  1.0000
  H   H9481     1.0  0.81113  0.70144  0.69610  1.0000
  H   H9482     1.0  0.78528  0.67338  0.73922  1.0000
  H   H9483     1.0  0.76018  0.70319  0.92846  1.0000
  C   C5351     1.0  0.81487  0.73161  0.72333  1.0000
  C   C5352     1.0  0.98266  0.50284  0.49297  1.0000
  H   H9484     1.0  0.77358  0.70144  0.68655  1.0000
  H   H9485     1.0  0.97556  0.65173  0.62296  1.0000
  H   H9486     1.0  0.92819  0.70123  0.54176  1.0000
  C   C5353     1.0  0.83470  0.72857  0.76101  1.0000
  H   H9487     1.0  0.78334  0.62598  0.89781  1.0000
  H   H9488     1.0  0.85876  0.72128  0.70559  1.0000
  H   H9489     1.0  0.80593  0.72352  0.74808  1.0000
  H   H9490     1.0  0.96523  0.49105  0.62655  1.0000
  Fe  Fe600     1.0  0.86873  0.49235  0.58676  1.0000
  H   H9491     1.0  0.79781  0.72888  0.69520  1.0000
  H   H9492     1.0  0.98129  0.63377  0.77868  1.0000
  C   C5354     1.0  0.85314  0.72618  0.61460  1.0000
  H   H9493     1.0  0.98711  0.67297  0.70232  1.0000
  H   H9494     1.0  0.86920  0.72947  0.73889  1.0000
  H   H9495     1.0  0.89812  0.63572  0.48448  1.0000
  H   H9496     1.0  0.98393  0.56928  0.70120  1.0000
  C   C5355     1.0  0.86488  0.72406  0.71321  1.0000
  H   H9497     1.0  0.82002  0.73015  0.78432  1.0000
  C   C5356     1.0  0.74279  0.68195  0.91521  1.0000
  H   H9498     1.0  0.98121  0.68561  0.62767  1.0000
  H   H9499     1.0  0.90417  0.70554  0.48665  1.0000
  H   H9500     1.0  0.98961  0.68784  0.76408  1.0000
  H   H9501     1.0  0.98202  0.64440  0.75844  1.0000
  H   H9502     1.0  0.75225  0.68746  0.69309  1.0000
  C   C5357     1.0  0.89616  0.72331  0.60707  1.0000
  H   H9503     1.0  0.80715  0.71920  0.66273  1.0000
  H   H9504     1.0  0.74640  0.70561  0.90746  1.0000
  C   C5358     1.0  0.77353  0.73146  0.71617  1.0000
  C   C5359     1.0  0.82360  0.72719  0.70931  1.0000
  H   H9505     1.0  0.98692  0.67431  0.82330  1.0000
  C   C5360     1.0  0.75044  0.69798  0.69791  1.0000
  H   H9506     1.0  0.76461  0.72937  0.72728  1.0000
  H   H9507     1.0  0.99084  0.56773  0.71855  1.0000
  C   C5361     1.0  0.99062  0.49866  0.50531  1.0000
  Fe  Fe601     1.0  0.99050  0.49786  0.54507  1.0000
  H   H9508     1.0  0.99072  0.61756  0.55717  1.0000
  C   C5362     1.0  0.99081  0.60723  0.56721  1.0000
  H   H9509     1.0  0.77591  0.78665  0.09324  1.0000
  H   H9510     1.0  0.75158  0.75827  0.33900  1.0000
  H   H9511     1.0  0.84051  0.75889  0.41601  1.0000
  H   H9512     1.0  0.74265  0.94658  0.06396  1.0000
  Fe  Fe602     1.0  0.77880  0.89691  0.23995  1.0000
  H   H9513     1.0  0.97802  0.74605  0.13794  1.0000
  S   S1196     1.0  0.79802  0.87854  0.24987  1.0000
  S   S1197     1.0  0.75919  0.90753  0.25774  1.0000
  C   C5363     1.0  0.87756  0.74850  0.20905  1.0000
  H   H9514     1.0  0.79983  0.82288  0.29702  1.0000
  S   S1198     1.0  0.76282  0.89232  0.22757  1.0000
  S   S1199     1.0  0.78177  0.92012  0.22379  1.0000
  Fe  Fe603     1.0  0.90517  0.82661  0.22751  1.0000
  S   S1200     1.0  0.89918  0.82100  0.20751  1.0000
  S   S1201     1.0  0.92574  0.83803  0.22237  1.0000
  Fe  Fe604     1.0  0.87928  0.81273  0.25152  1.0000
  S   S1202     1.0  0.87174  0.80530  0.23373  1.0000
  S   S1203     1.0  0.86588  0.80798  0.27646  1.0000
  Fe  Fe605     1.0  0.89742  0.79774  0.22394  1.0000
  S   S1204     1.0  0.91007  0.77588  0.21497  1.0000
  Fe  Fe606     1.0  0.87397  0.82917  0.21909  1.0000
  S   S1205     1.0  0.85470  0.84227  0.20584  1.0000
  S   S1206     1.0  0.90486  0.80282  0.24322  1.0000
  S   S1207     1.0  0.88010  0.83725  0.23756  1.0000
  H   H9515     1.0  0.74594  0.78822  0.28133  1.0000
  H   H9516     1.0  0.75197  0.80339  0.11625  1.0000
  H   H9517     1.0  0.76173  0.86964  0.18422  1.0000
  H   H9518     1.0  0.78290  0.81003  0.29473  1.0000
  C   C5364     1.0  0.85960  0.79037  0.28035  1.0000
  C   C5365     1.0  0.84701  0.78721  0.29289  1.0000
  C   C5366     1.0  0.84170  0.77332  0.29571  1.0000
  C   C5367     1.0  0.84897  0.76259  0.28599  1.0000
  C   C5368     1.0  0.86157  0.76576  0.27347  1.0000
  C   C5369     1.0  0.86694  0.77956  0.27073  1.0000
  H   H9519     1.0  0.84131  0.79554  0.30037  1.0000
  H   H9520     1.0  0.86722  0.75757  0.26587  1.0000
  H   H9521     1.0  0.87694  0.78169  0.26130  1.0000
  C   C5370     1.0  0.89758  0.76508  0.21319  1.0000
  C   C5371     1.0  0.88305  0.76444  0.22368  1.0000
  H   H9522     1.0  0.86860  0.74746  0.45550  1.0000
  C   C5372     1.0  0.76895  0.96616  0.24257  1.0000
  H   H9523     1.0  0.74691  0.76426  0.30212  1.0000
  C   C5373     1.0  0.90212  0.75734  0.20076  1.0000
  H   H9524     1.0  0.87957  0.77030  0.23339  1.0000
  H   H9525     1.0  0.77115  0.88820  0.19319  1.0000
  H   H9526     1.0  0.91329  0.75791  0.19254  1.0000
  Fe  Fe607     1.0  0.74327  0.90485  0.24415  1.0000
  C   C5374     1.0  0.77913  0.96716  0.22772  1.0000
  H   H9527     1.0  0.89555  0.74375  0.18867  1.0000
  H   H9528     1.0  0.78997  0.84990  0.26984  1.0000
  H   H9529     1.0  0.98875  0.73604  0.47662  1.0000
  H   H9530     1.0  0.87646  0.74634  0.08488  1.0000
  H   H9531     1.0  0.78106  0.95819  0.22121  1.0000
  C   C5375     1.0  0.76193  0.81069  0.09137  1.0000
  H   H9532     1.0  0.77474  0.82233  0.25566  1.0000
  C   C5376     1.0  0.81267  0.86739  0.23767  1.0000
  C   C5377     1.0  0.81224  0.86877  0.22202  1.0000
  C   C5378     1.0  0.82491  0.86049  0.21234  1.0000
  C   C5379     1.0  0.83796  0.85097  0.21833  1.0000
  C   C5380     1.0  0.83785  0.84893  0.23419  1.0000
  C   C5381     1.0  0.82529  0.85718  0.24380  1.0000
  H   H9533     1.0  0.80231  0.87641  0.21738  1.0000
  H   H9534     1.0  0.82485  0.86180  0.20013  1.0000
  H   H9535     1.0  0.84758  0.84123  0.23905  1.0000
  H   H9536     1.0  0.82560  0.85598  0.25593  1.0000
  C   C5382     1.0  0.96338  0.81709  0.25169  1.0000
  C   C5383     1.0  0.94905  0.81221  0.25668  1.0000
  C   C5384     1.0  0.93777  0.81794  0.24736  1.0000
  C   C5385     1.0  0.94057  0.82885  0.23315  1.0000
  C   C5386     1.0  0.95504  0.83345  0.22799  1.0000
  C   C5387     1.0  0.96650  0.82744  0.23715  1.0000
  H   H9537     1.0  0.94658  0.80419  0.26791  1.0000
  H   H9538     1.0  0.92664  0.81442  0.25158  1.0000
  H   H9539     1.0  0.95730  0.84190  0.21702  1.0000
  H   H9540     1.0  0.78065  0.79819  0.10403  1.0000
  C   C5388     1.0  0.81964  0.74637  0.43859  1.0000
  C   C5389     1.0  0.75561  0.75283  0.02278  1.0000
  H   H9541     1.0  0.81627  0.77851  0.28044  1.0000
  C   C5390     1.0  0.95763  0.75061  0.21770  1.0000
  Fe  Fe608     1.0  0.82130  0.74202  0.30858  1.0000
  H   H9542     1.0  0.78661  0.96354  0.18773  1.0000
  C   C5391     1.0  0.76563  0.83626  0.28210  1.0000
  C   C5392     1.0  0.84821  0.76435  0.08516  1.0000
  N   N299      1.0  0.81935  0.91346  0.18190  1.0000
  C   C5393     1.0  0.80368  0.92503  0.18275  1.0000
  C   C5394     1.0  0.81788  0.89806  0.17954  1.0000
  C   C5395     1.0  0.82388  0.91018  0.19755  1.0000
  C   C5396     1.0  0.83213  0.91997  0.16926  1.0000
  C   C5397     1.0  0.82913  0.92555  0.15240  1.0000
  C   C5398     1.0  0.80303  0.94122  0.18587  1.0000
  C   C5399     1.0  0.83917  0.89752  0.19966  1.0000
  C   C5400     1.0  0.80591  0.89874  0.16983  1.0000
  C   C5401     1.0  0.80699  0.88255  0.16713  1.0000
  C   C5402     1.0  0.84204  0.93360  0.14119  1.0000
  C   C5403     1.0  0.78681  0.95208  0.18541  1.0000
  C   C5404     1.0  0.84163  0.89416  0.21640  1.0000
  H   H9543     1.0  0.79466  0.91965  0.19210  1.0000
  H   H9544     1.0  0.79930  0.92751  0.17184  1.0000
  H   H9545     1.0  0.82956  0.89140  0.17425  1.0000
  H   H9546     1.0  0.81395  0.89036  0.19110  1.0000
  H   H9547     1.0  0.81413  0.90646  0.20732  1.0000
  H   H9548     1.0  0.82571  0.92097  0.19970  1.0000
  H   H9549     1.0  0.83480  0.92983  0.17242  1.0000
  H   H9550     1.0  0.84332  0.91094  0.16845  1.0000
  H   H9551     1.0  0.81777  0.93411  0.15189  1.0000
  H   H9552     1.0  0.82933  0.91532  0.14786  1.0000
  H   H9553     1.0  0.80517  0.93993  0.19769  1.0000
  H   H9554     1.0  0.81184  0.94718  0.17687  1.0000
  H   H9555     1.0  0.84965  0.90157  0.19159  1.0000
  H   H9556     1.0  0.83885  0.88626  0.19733  1.0000
  H   H9557     1.0  0.79375  0.90260  0.17638  1.0000
  H   H9558     1.0  0.80758  0.90697  0.15826  1.0000
  H   H9559     1.0  0.81884  0.87804  0.16030  1.0000
  H   H9560     1.0  0.80452  0.87416  0.17858  1.0000
  H   H9561     1.0  0.79807  0.88337  0.16046  1.0000
  H   H9562     1.0  0.85375  0.92545  0.14090  1.0000
  H   H9563     1.0  0.83980  0.93721  0.12911  1.0000
  H   H9564     1.0  0.84217  0.94427  0.14487  1.0000
  H   H9565     1.0  0.77755  0.94684  0.19456  1.0000
  H   H9566     1.0  0.74830  0.96951  0.21024  1.0000
  H   H9567     1.0  0.75285  0.81797  0.28416  1.0000
  H   H9568     1.0  0.84337  0.90480  0.21891  1.0000
  H   H9569     1.0  0.83134  0.89035  0.22513  1.0000
  H   H9570     1.0  0.85219  0.88457  0.21782  1.0000
  N   N300      1.0  0.84619  0.80181  0.19714  1.0000
  C   C5405     1.0  0.86083  0.80694  0.18659  1.0000
  C   C5406     1.0  0.83174  0.81500  0.19561  1.0000
  C   C5407     1.0  0.84798  0.79826  0.21390  1.0000
  C   C5408     1.0  0.84409  0.78709  0.19399  1.0000
  C   C5409     1.0  0.84532  0.78704  0.17666  1.0000
  C   C5410     1.0  0.87668  0.79509  0.18810  1.0000
  C   C5411     1.0  0.83415  0.79267  0.22678  1.0000
  C   C5412     1.0  0.83198  0.82711  0.17968  1.0000
  C   C5413     1.0  0.81587  0.83818  0.17933  1.0000
  C   C5414     1.0  0.84160  0.77204  0.17540  1.0000
  C   C5415     1.0  0.89021  0.80008  0.17491  1.0000
  C   C5416     1.0  0.83711  0.79018  0.24320  1.0000
  H   H9571     1.0  0.86178  0.81800  0.18901  1.0000
  H   H9572     1.0  0.86016  0.80985  0.17405  1.0000
  H   H9573     1.0  0.82098  0.81018  0.19857  1.0000
  H   H9574     1.0  0.82956  0.82239  0.20436  1.0000
  H   H9575     1.0  0.84978  0.80889  0.21644  1.0000
  H   H9576     1.0  0.85851  0.78885  0.21577  1.0000
  H   H9577     1.0  0.85277  0.77663  0.19861  1.0000
  H   H9578     1.0  0.83240  0.78461  0.20057  1.0000
  H   H9579     1.0  0.85739  0.78758  0.16961  1.0000
  H   H9580     1.0  0.83674  0.79700  0.17146  1.0000
  H   H9581     1.0  0.87973  0.79461  0.19929  1.0000
  H   H9582     1.0  0.87620  0.78314  0.18770  1.0000
  H   H9583     1.0  0.83294  0.78124  0.22561  1.0000
  H   H9584     1.0  0.82286  0.80132  0.22603  1.0000
  H   H9585     1.0  0.84057  0.83445  0.17798  1.0000
  H   H9586     1.0  0.83529  0.82143  0.16956  1.0000
  H   H9587     1.0  0.80686  0.83152  0.18043  1.0000
  H   H9588     1.0  0.81224  0.84454  0.18906  1.0000
  H   H9589     1.0  0.81645  0.84694  0.16798  1.0000
  H   H9590     1.0  0.82916  0.77158  0.18118  1.0000
  H   H9591     1.0  0.84348  0.77175  0.16283  1.0000
  H   H9592     1.0  0.84938  0.76148  0.18107  1.0000
  H   H9593     1.0  0.90141  0.79163  0.17672  1.0000
  H   H9594     1.0  0.88833  0.80011  0.16330  1.0000
  H   H9595     1.0  0.89132  0.81196  0.17500  1.0000
  H   H9596     1.0  0.84849  0.78181  0.24440  1.0000
  H   H9597     1.0  0.83724  0.80151  0.24561  1.0000
  H   H9598     1.0  0.82770  0.78512  0.25218  1.0000
  N   N301      1.0  0.95804  0.77929  0.21759  1.0000
  C   C5417     1.0  0.97382  0.77412  0.22211  1.0000
  C   C5418     1.0  0.95665  0.76793  0.20885  1.0000
  C   C5419     1.0  0.95771  0.79505  0.20619  1.0000
  C   C5420     1.0  0.94445  0.78090  0.23159  1.0000
  C   C5421     1.0  0.94677  0.76969  0.24762  1.0000
  C   C5422     1.0  0.97828  0.78627  0.22835  1.0000
  C   C5423     1.0  0.94293  0.80212  0.19899  1.0000
  H   H9599     1.0  0.74226  0.83911  0.09746  1.0000
  H   H9600     1.0  0.82790  0.74819  0.16944  1.0000
  C   C5424     1.0  0.93145  0.77077  0.26009  1.0000
  H   H9601     1.0  0.78682  0.80165  0.08290  1.0000
  C   C5425     1.0  0.94372  0.81840  0.18845  1.0000
  H   H9602     1.0  0.78763  0.74783  0.45324  1.0000
  H   H9603     1.0  0.97474  0.76286  0.23091  1.0000
  H   H9604     1.0  0.94512  0.77151  0.20538  1.0000
  H   H9605     1.0  0.96585  0.76817  0.19771  1.0000
  H   H9606     1.0  0.96824  0.79432  0.19627  1.0000
  H   H9607     1.0  0.95836  0.80408  0.21204  1.0000
  H   H9608     1.0  0.94141  0.79300  0.23371  1.0000
  H   H9609     1.0  0.93365  0.77950  0.22902  1.0000
  H   H9610     1.0  0.95541  0.77283  0.25217  1.0000
  H   H9611     1.0  0.95116  0.75728  0.24666  1.0000
  C   C5426     1.0  0.79633  0.83536  0.29111  1.0000
  H   H9612     1.0  0.96807  0.79198  0.23636  1.0000
  H   H9613     1.0  0.93212  0.80321  0.20842  1.0000
  H   H9614     1.0  0.94195  0.79484  0.19144  1.0000
  H   H9615     1.0  0.84431  0.75455  0.44558  1.0000
  H   H9616     1.0  0.76398  0.82226  0.09107  1.0000
  H   H9617     1.0  0.88446  0.74538  0.05798  1.0000
  H   H9618     1.0  0.75987  0.76276  0.02381  1.0000
  H   H9619     1.0  0.99053  0.74282  0.08673  1.0000
  H   H9620     1.0  0.92215  0.76798  0.25616  1.0000
  H   H9621     1.0  0.93341  0.76224  0.27118  1.0000
  H   H9622     1.0  0.92743  0.78273  0.26260  1.0000
  C   C5427     1.0  0.75956  0.74529  0.07809  1.0000
  H   H9623     1.0  0.97830  0.73807  0.40569  1.0000
  H   H9624     1.0  0.74364  0.79645  0.05140  1.0000
  H   H9625     1.0  0.93272  0.82354  0.18402  1.0000
  H   H9626     1.0  0.94505  0.82641  0.19507  1.0000
  H   H9627     1.0  0.95382  0.81755  0.17823  1.0000
  H   H9628     1.0  0.75071  0.85315  0.11248  1.0000
  H   H9629     1.0  0.94731  0.74964  0.22763  1.0000
  H   H9630     1.0  0.98328  0.77149  0.21183  1.0000
  C   C5428     1.0  0.75138  0.78112  0.32364  1.0000
  H   H9631     1.0  0.80650  0.76181  0.42112  1.0000
  H   H9632     1.0  0.81652  0.75445  0.26740  1.0000
  C   C5429     1.0  0.84146  0.74683  0.41460  1.0000
  H   H9633     1.0  0.74342  0.83342  0.07353  1.0000
  H   H9634     1.0  0.81089  0.74309  0.18394  1.0000
  C   C5430     1.0  0.79022  0.75753  0.44298  1.0000
  H   H9635     1.0  0.74206  0.87390  0.24141  1.0000
  H   H9636     1.0  0.75023  0.83416  0.26802  1.0000
  H   H9637     1.0  0.79171  0.76735  0.44716  1.0000
  C   C5431     1.0  0.74814  0.80625  0.10495  1.0000
  H   H9638     1.0  0.77724  0.80525  0.27985  1.0000
  Fe  Fe609     1.0  0.76380  0.91645  0.21293  1.0000
  C   C5432     1.0  0.79359  0.83707  0.27449  1.0000
  S   S1208     1.0  0.76396  0.92217  0.18709  1.0000
  C   C5433     1.0  0.77722  0.79853  0.09306  1.0000
  H   H9639     1.0  0.74655  0.95205  0.19425  1.0000
  C   C5434     1.0  0.86330  0.73810  0.45472  1.0000
  S   S1209     1.0  0.85257  0.74278  0.13601  1.0000
  S   S1210     1.0  0.79814  0.74677  0.30189  1.0000
  C   C5435     1.0  0.86863  0.73868  0.08507  1.0000
  H   H9640     1.0  0.75115  0.92649  0.13602  1.0000
  H   H9641     1.0  0.86176  0.75578  0.22962  1.0000
  H   H9642     1.0  0.94878  0.75074  0.15577  1.0000
  S   S1211     1.0  0.77159  0.78033  0.32082  1.0000
  S   S1212     1.0  0.87909  0.74810  0.16066  1.0000
  H   H9643     1.0  0.78972  0.84183  0.22407  1.0000
  N   N302      1.0  0.91524  0.86005  0.26316  1.0000
  C   C5436     1.0  0.91690  0.86913  0.24630  1.0000
  C   C5437     1.0  0.93150  0.85249  0.26630  1.0000
  C   C5438     1.0  0.90700  0.84705  0.26489  1.0000
  C   C5439     1.0  0.90573  0.87000  0.27491  1.0000
  C   C5440     1.0  0.90663  0.88760  0.27047  1.0000
  C   C5441     1.0  0.90155  0.87472  0.23996  1.0000
  C   C5442     1.0  0.90655  0.83445  0.28048  1.0000
  C   C5443     1.0  0.94221  0.86367  0.26499  1.0000
  C   C5444     1.0  0.95891  0.85449  0.26623  1.0000
  C   C5445     1.0  0.89882  0.89543  0.28446  1.0000
  C   C5446     1.0  0.90355  0.88668  0.22433  1.0000
  C   C5447     1.0  0.89520  0.82405  0.28223  1.0000
  H   H9644     1.0  0.92558  0.86180  0.23834  1.0000
  H   H9645     1.0  0.92195  0.87949  0.24436  1.0000
  H   H9646     1.0  0.93084  0.84510  0.27840  1.0000
  H   H9647     1.0  0.93788  0.84443  0.25821  1.0000
  H   H9648     1.0  0.91242  0.84080  0.25511  1.0000
  H   H9649     1.0  0.89455  0.85205  0.26381  1.0000
  H   H9650     1.0  0.89297  0.87003  0.27728  1.0000
  H   H9651     1.0  0.90904  0.86469  0.28651  1.0000
  H   H9652     1.0  0.90038  0.89407  0.26085  1.0000
  H   H9653     1.0  0.91886  0.88925  0.26641  1.0000
  H   H9654     1.0  0.89846  0.86458  0.23778  1.0000
  H   H9655     1.0  0.89154  0.88005  0.24849  1.0000
  H   H9656     1.0  0.90278  0.83999  0.29080  1.0000
  H   H9657     1.0  0.91836  0.82659  0.28065  1.0000
  H   H9658     1.0  0.94316  0.87235  0.25364  1.0000
  H   H9659     1.0  0.93762  0.86988  0.27484  1.0000
  H   H9660     1.0  0.96460  0.84887  0.25603  1.0000
  H   H9661     1.0  0.96613  0.86260  0.26624  1.0000
  H   H9662     1.0  0.95882  0.84525  0.27724  1.0000
  H   H9663     1.0  0.88629  0.89452  0.28868  1.0000
  H   H9664     1.0  0.90508  0.88985  0.29424  1.0000
  H   H9665     1.0  0.89926  0.90807  0.28085  1.0000
  H   H9666     1.0  0.91330  0.88148  0.21546  1.0000
  H   H9667     1.0  0.89255  0.89007  0.21989  1.0000
  H   H9668     1.0  0.90610  0.89741  0.22585  1.0000
  H   H9669     1.0  0.89540  0.81486  0.29323  1.0000
  H   H9670     1.0  0.88297  0.83111  0.28277  1.0000
  H   H9671     1.0  0.89866  0.81814  0.27218  1.0000
  H   H9672     1.0  0.83803  0.76009  0.37525  1.0000
  C   C5448     1.0  0.75146  0.83085  0.28038  1.0000
  C   C5449     1.0  0.80941  0.84343  0.29014  1.0000
  S   S1213     1.0  0.92464  0.74261  0.14631  1.0000
  S   S1214     1.0  0.81188  0.75345  0.32933  1.0000
  H   H9673     1.0  0.83198  0.77100  0.30536  1.0000
  H   H9674     1.0  0.85432  0.74171  0.41118  1.0000
  S   S1215     1.0  0.84258  0.74515  0.28913  1.0000
  C   C5450     1.0  0.83502  0.74837  0.39990  1.0000
  Fe  Fe610     1.0  0.79790  0.73632  0.07301  1.0000
  Fe  Fe611     1.0  0.76085  0.93048  0.24061  1.0000
  H   H9675     1.0  0.75967  0.77188  0.27403  1.0000
  H   H9676     1.0  0.98292  0.77894  0.12785  1.0000
  H   H9677     1.0  0.78548  0.84091  0.29864  1.0000
  Fe  Fe612     1.0  0.78832  0.75657  0.32367  1.0000
  H   H9678     1.0  0.98225  0.79566  0.21840  1.0000
  H   H9679     1.0  0.83687  0.77097  0.08185  1.0000
  C   C5451     1.0  0.83447  0.73526  0.12074  1.0000
  C   C5452     1.0  0.74554  0.88772  0.17196  1.0000
  H   H9680     1.0  0.85584  0.73418  0.46641  1.0000
  C   C5453     1.0  0.89206  0.74924  0.19859  1.0000
  H   H9681     1.0  0.85559  0.75513  0.38283  1.0000
  C   C5454     1.0  0.87304  0.75612  0.22161  1.0000
  H   H9682     1.0  0.75433  0.74450  0.28598  1.0000
  H   H9683     1.0  0.85620  0.75275  0.06589  1.0000
  H   H9684     1.0  0.97749  0.83129  0.23322  1.0000
  H   H9685     1.0  0.74913  0.79904  0.03032  1.0000
  H   H9686     1.0  0.81122  0.80724  0.27817  1.0000
  H   H9687     1.0  0.80908  0.74817  0.25404  1.0000
  C   C5455     1.0  0.80222  0.80230  0.27615  1.0000
  C   C5456     1.0  0.85348  0.74442  0.44214  1.0000
  C   C5457     1.0  0.76233  0.89262  0.18616  1.0000
  H   H9688     1.0  0.83985  0.77152  0.38785  1.0000
  C   C5458     1.0  0.74201  0.79466  0.31628  1.0000
  H   H9689     1.0  0.77332  0.85843  0.22345  1.0000
  H   H9690     1.0  0.83782  0.73685  0.39671  1.0000
  C   C5459     1.0  0.76337  0.75924  0.07807  1.0000
  C   C5460     1.0  0.82322  0.73842  0.17827  1.0000
  C   C5461     1.0  0.81913  0.75204  0.25546  1.0000
  H   H9691     1.0  0.74680  0.79490  0.10366  1.0000
  H   H9692     1.0  0.75346  0.74475  0.03441  1.0000
  H   H9693     1.0  0.82217  0.75264  0.40173  1.0000
  H   H9694     1.0  0.96867  0.74558  0.22204  1.0000
  C   C5462     1.0  0.84261  0.75951  0.38563  1.0000
  H   H9695     1.0  0.75322  0.94524  0.12311  1.0000
  C   C5463     1.0  0.95711  0.74056  0.20687  1.0000
  H   H9696     1.0  0.95734  0.74586  0.12337  1.0000
  C   C5464     1.0  0.74152  0.74936  0.28971  1.0000
  S   S1216     1.0  0.78307  0.76017  0.07528  1.0000
  H   H9697     1.0  0.83710  0.73856  0.24053  1.0000
  H   H9698     1.0  0.84638  0.76165  0.09817  1.0000
  C   C5465     1.0  0.76897  0.74383  0.01189  1.0000
  H   H9699     1.0  0.82076  0.83770  0.28337  1.0000
  N   N303      1.0  0.78163  0.82871  0.27375  1.0000
  H   H9700     1.0  0.76466  0.85235  0.25208  1.0000
  H   H9701     1.0  0.80307  0.78429  0.29774  1.0000
  H   H9702     1.0  0.79418  0.82536  0.25047  1.0000
  H   H9703     1.0  0.77999  0.76184  0.43725  1.0000
  C   C5466     1.0  0.85393  0.74927  0.07889  1.0000
  H   H9704     1.0  0.80460  0.80241  0.26347  1.0000
  H   H9705     1.0  0.80650  0.85608  0.28441  1.0000
  H   H9706     1.0  0.79554  0.77964  0.28341  1.0000
  C   C5467     1.0  0.75135  0.77240  0.08049  1.0000
  C   C5468     1.0  0.80436  0.78515  0.28499  1.0000
  C   C5469     1.0  0.96382  0.73939  0.11389  1.0000
  H   H9707     1.0  0.90079  0.74492  0.03009  1.0000
  H   H9708     1.0  0.76973  0.83886  0.22978  1.0000
  H   H9709     1.0  0.80515  0.83332  0.26666  1.0000
  C   C5470     1.0  0.77746  0.84636  0.23004  1.0000
  S   S1217     1.0  0.97660  0.81075  0.26433  1.0000
  H   H9710     1.0  0.81086  0.84248  0.30217  1.0000
  H   H9711     1.0  0.84364  0.74386  0.25519  1.0000
  C   C5471     1.0  0.80499  0.75173  0.43122  1.0000
  H   H9712     1.0  0.78469  0.85431  0.24646  1.0000
  C   C5472     1.0  0.77681  0.84672  0.24698  1.0000
  H   H9713     1.0  0.76344  0.84931  0.27818  1.0000
  H   H9714     1.0  0.96703  0.74119  0.19644  1.0000
  S   S1218     1.0  0.75806  0.95137  0.25081  1.0000
  H   H9715     1.0  0.86136  0.74878  0.43091  1.0000
  C   C5473     1.0  0.75653  0.90881  0.18180  1.0000
  C   C5474     1.0  0.78203  0.82993  0.25670  1.0000
  C   C5475     1.0  0.78528  0.81155  0.28171  1.0000
  H   H9716     1.0  0.96927  0.73446  0.17060  1.0000
  H   H9717     1.0  0.75016  0.82504  0.12385  1.0000
  H   H9718     1.0  0.82195  0.75732  0.43985  1.0000
  H   H9719     1.0  0.82047  0.76309  0.24668  1.0000
  C   C5476     1.0  0.74385  0.74456  0.08025  1.0000
  H   H9720     1.0  0.78400  0.95421  0.17371  1.0000
  H   H9721     1.0  0.76513  0.83387  0.29494  1.0000
  H   H9722     1.0  0.80267  0.74220  0.42734  1.0000
  H   H9723     1.0  0.96741  0.74806  0.10309  1.0000
  H   H9724     1.0  0.75953  0.81082  0.07997  1.0000
  C   C5477     1.0  0.74702  0.77678  0.27842  1.0000
  H   H9725     1.0  0.82879  0.74759  0.11889  1.0000
  C   C5478     1.0  0.95001  0.73813  0.15932  1.0000
  H   H9726     1.0  0.75425  0.78318  0.08048  1.0000
  H   H9727     1.0  0.75262  0.97756  0.18943  1.0000
  H   H9728     1.0  0.85694  0.77192  0.08004  1.0000
  C   C5479     1.0  0.74448  0.76866  0.33304  1.0000
  H   H9729     1.0  0.84417  0.74291  0.08295  1.0000
  S   S1219     1.0  0.74306  0.92878  0.22851  1.0000
  C   C5480     1.0  0.76643  0.97788  0.25089  1.0000
  H   H9730     1.0  0.98520  0.76624  0.14680  1.0000
  H   H9731     1.0  0.77955  0.73934  0.01710  1.0000
  S   S1220     1.0  0.86504  0.73830  0.20622  1.0000
  C   C5481     1.0  0.75706  0.88214  0.18100  1.0000
  H   H9732     1.0  0.74135  0.74400  0.32099  1.0000
  H   H9733     1.0  0.81619  0.73979  0.45090  1.0000
  N   N304      1.0  0.83435  0.73695  0.42997  1.0000
  H   H9734     1.0  0.97853  0.75698  0.11848  1.0000
  C   C5482     1.0  0.83432  0.73953  0.25297  1.0000
  C   C5483     1.0  0.74306  0.97467  0.19974  1.0000
  H   H9735     1.0  0.75874  0.97709  0.26245  1.0000
  H   H9736     1.0  0.74723  0.80444  0.30941  1.0000
  H   H9737     1.0  0.94585  0.74465  0.20280  1.0000
  C   C5484     1.0  0.78652  0.98002  0.22120  1.0000
  H   H9738     1.0  0.97173  0.73726  0.46942  1.0000
  H   H9739     1.0  0.94181  0.74082  0.10789  1.0000
  H   H9740     1.0  0.98769  0.77044  0.24809  1.0000
  C   C5485     1.0  0.74518  0.91441  0.17259  1.0000
  C   C5486     1.0  0.98589  0.74796  0.12605  1.0000
  C   C5487     1.0  0.98077  0.73535  0.39392  1.0000
  H   H9741     1.0  0.83852  0.98159  0.20109  1.0000
  H   H9742     1.0  0.97702  0.74637  0.38548  1.0000
  H   H9743     1.0  0.74399  0.84955  0.13357  1.0000
  H   H9744     1.0  0.79421  0.98093  0.20965  1.0000
  H   H9745     1.0  0.77212  0.75166  0.00022  1.0000
  H   H9746     1.0  0.74498  0.77204  0.04388  1.0000
  C   C5488     1.0  0.74482  0.93877  0.13216  1.0000
  H   H9747     1.0  0.76868  0.73502  0.07634  1.0000
  H   H9748     1.0  0.74416  0.76730  0.00455  1.0000
  H   H9749     1.0  0.87381  0.73452  0.05287  1.0000
  C   C5489     1.0  0.97354  0.75727  0.52786  1.0000
  H   H9750     1.0  0.81251  0.81019  0.80337  1.0000
  H   H9751     1.0  0.87732  0.82237  0.79891  1.0000
  H   H9752     1.0  0.83100  0.88959  0.73117  1.0000
  C   C5490     1.0  0.75434  0.83856  0.65407  1.0000
  H   H9753     1.0  0.76160  0.95129  0.73119  1.0000
  C   C5491     1.0  0.97203  0.76965  0.83725  1.0000
  H   H9754     1.0  0.96508  0.76445  0.52041  1.0000
  H   H9755     1.0  0.86846  0.76406  0.64031  1.0000
  H   H9756     1.0  0.86424  0.83637  0.78737  1.0000
  H   H9757     1.0  0.87833  0.77055  0.76185  1.0000
  C   C5492     1.0  0.76375  0.82349  0.65809  1.0000
  H   H9758     1.0  0.87313  0.76149  0.56252  1.0000
  H   H9759     1.0  0.89421  0.75476  0.55822  1.0000
  C   C5493     1.0  0.88526  0.88379  0.74052  1.0000
  H   H9760     1.0  0.83946  0.83024  0.78797  1.0000
  Fe  Fe613     1.0  0.77219  0.88971  0.73609  1.0000
  S   S1221     1.0  0.79116  0.86890  0.72983  1.0000
  H   H9761     1.0  0.97286  0.74406  0.79964  1.0000
  Fe  Fe614     1.0  0.89013  0.81457  0.72527  1.0000
  S   S1222     1.0  0.88077  0.81283  0.75111  1.0000
  S   S1223     1.0  0.88596  0.79627  0.71522  1.0000
  Fe  Fe615     1.0  0.90572  0.84122  0.72224  1.0000
  S   S1224     1.0  0.89733  0.84174  0.74772  1.0000
  S   S1225     1.0  0.91951  0.85865  0.70572  1.0000
  Fe  Fe616     1.0  0.90435  0.81556  0.75150  1.0000
  S   S1226     1.0  0.91633  0.80203  0.77120  1.0000
  Fe  Fe617     1.0  0.87440  0.83911  0.74498  1.0000
  S   S1227     1.0  0.85201  0.85302  0.75749  1.0000
  S   S1228     1.0  0.91461  0.81508  0.72612  1.0000
  S   S1229     1.0  0.88207  0.84082  0.71893  1.0000
  H   H9762     1.0  0.92310  0.74718  0.79225  1.0000
  H   H9763     1.0  0.88702  0.91533  0.66879  1.0000
  H   H9764     1.0  0.90806  0.74254  0.58083  1.0000
  C   C5494     1.0  0.75708  0.81167  0.66920  1.0000
  H   H9765     1.0  0.91760  0.75546  0.80939  1.0000
  H   H9766     1.0  0.76201  0.84095  0.75656  1.0000
  S   S1230     1.0  0.86920  0.76550  0.82378  1.0000
  S   S1231     1.0  0.84195  0.74395  0.65353  1.0000
  Fe  Fe618     1.0  0.87577  0.73950  0.82524  1.0000
  Fe  Fe619     1.0  0.82585  0.76384  0.66471  1.0000
  S   S1232     1.0  0.83446  0.76789  0.68400  1.0000
  H   H9767     1.0  0.84808  0.74568  0.71478  1.0000
  Fe  Fe620     1.0  0.79355  0.78580  0.67312  1.0000
  S   S1233     1.0  0.79995  0.79139  0.69279  1.0000
  S   S1234     1.0  0.76770  0.79203  0.67256  1.0000
  Fe  Fe621     1.0  0.82321  0.79317  0.67611  1.0000
  S   S1235     1.0  0.83347  0.81345  0.67552  1.0000
  Fe  Fe622     1.0  0.81062  0.76573  0.69880  1.0000
  S   S1236     1.0  0.80644  0.75140  0.72349  1.0000
  S   S1237     1.0  0.81611  0.78955  0.65554  1.0000
  S   S1238     1.0  0.80277  0.75984  0.68031  1.0000
  H   H9768     1.0  0.82849  0.90268  0.71301  1.0000
  H   H9769     1.0  0.84809  0.77013  0.71533  1.0000
  H   H9770     1.0  0.75936  0.84748  0.64495  1.0000
  C   C5495     1.0  0.77293  0.76911  0.93492  1.0000
  H   H9771     1.0  0.86855  0.89802  0.68201  1.0000
  C   C5496     1.0  0.85901  0.81302  0.79589  1.0000
  H   H9772     1.0  0.94198  0.82269  0.69647  1.0000
  S   S1239     1.0  0.76981  0.93404  0.76093  1.0000
  H   H9773     1.0  0.78223  0.78552  0.94160  1.0000
  H   H9774     1.0  0.94381  0.75860  0.60168  1.0000
  C   C5497     1.0  0.87150  0.80154  0.70398  1.0000
  C   C5498     1.0  0.86163  0.81651  0.70205  1.0000
  C   C5499     1.0  0.85008  0.82018  0.69313  1.0000
  C   C5500     1.0  0.84829  0.80885  0.68627  1.0000
  C   C5501     1.0  0.85821  0.79393  0.68819  1.0000
  C   C5502     1.0  0.86977  0.79030  0.69701  1.0000
  H   H9775     1.0  0.86287  0.82520  0.70743  1.0000
  H   H9776     1.0  0.84244  0.83174  0.69169  1.0000
  H   H9777     1.0  0.85715  0.78524  0.68269  1.0000
  H   H9778     1.0  0.87743  0.77874  0.69839  1.0000
  C   C5503     1.0  0.90373  0.79129  0.78581  1.0000
  C   C5504     1.0  0.90101  0.79243  0.80145  1.0000
  C   C5505     1.0  0.89049  0.78436  0.81313  1.0000
  C   C5506     1.0  0.88315  0.77465  0.80929  1.0000
  C   C5507     1.0  0.88631  0.77307  0.79372  1.0000
  C   C5508     1.0  0.89641  0.78159  0.78193  1.0000
  H   H9779     1.0  0.90661  0.79995  0.80446  1.0000
  H   H9780     1.0  0.88801  0.78563  0.82515  1.0000
  H   H9781     1.0  0.88067  0.76555  0.79074  1.0000
  H   H9782     1.0  0.89870  0.78056  0.76986  1.0000
  H   H9783     1.0  0.77590  0.82077  0.65198  1.0000
  C   C5509     1.0  0.80785  0.86432  0.73789  1.0000
  C   C5510     1.0  0.80785  0.87088  0.75016  1.0000
  C   C5511     1.0  0.82137  0.86707  0.75636  1.0000
  C   C5512     1.0  0.83503  0.85700  0.75006  1.0000
  C   C5513     1.0  0.83502  0.85046  0.73781  1.0000
  C   C5514     1.0  0.82142  0.85399  0.73184  1.0000
  H   H9784     1.0  0.79744  0.87887  0.75489  1.0000
  H   H9785     1.0  0.82133  0.87219  0.76584  1.0000
  H   H9786     1.0  0.84560  0.84297  0.73270  1.0000
  H   H9787     1.0  0.82158  0.84899  0.72226  1.0000
  S   S1240     1.0  0.77403  0.91475  0.72497  1.0000
  H   H9788     1.0  0.87250  0.75661  0.59075  1.0000
  S   S1241     1.0  0.98830  0.83215  0.74469  1.0000
  H   H9789     1.0  0.86674  0.76620  0.73706  1.0000
  H   H9790     1.0  0.95453  0.80750  0.71707  1.0000
  C   C5515     1.0  0.88406  0.76047  0.56640  1.0000
  C   C5516     1.0  0.86928  0.77122  0.62810  1.0000
  H   H9791     1.0  0.83419  0.92417  0.72325  1.0000
  H   H9792     1.0  0.78984  0.78252  0.86797  1.0000
  C   C5517     1.0  0.79508  0.78233  0.87778  1.0000
  H   H9793     1.0  0.87974  0.87498  0.75005  1.0000
  H   H9794     1.0  0.76549  0.77909  0.95580  1.0000
  C   C5518     1.0  0.88299  0.75062  0.58317  1.0000
  C   C5519     1.0  0.95868  0.87057  0.72045  1.0000
  C   C5520     1.0  0.95284  0.87965  0.70722  1.0000
  C   C5521     1.0  0.94085  0.87583  0.70296  1.0000
  C   C5522     1.0  0.93413  0.86320  0.71214  1.0000
  C   C5523     1.0  0.93951  0.85434  0.72575  1.0000
  C   C5524     1.0  0.95194  0.85790  0.72979  1.0000
  H   H9795     1.0  0.94530  0.73770  0.60722  1.0000
  H   H9796     1.0  0.93674  0.88276  0.69249  1.0000
  H   H9797     1.0  0.93429  0.84463  0.73300  1.0000
  H   H9798     1.0  0.95611  0.85104  0.74023  1.0000
  H   H9799     1.0  0.86924  0.78343  0.62827  1.0000
  C   C5525     1.0  0.83753  0.75246  0.60830  1.0000
  C   C5526     1.0  0.83559  0.75417  0.62374  1.0000
  H   H9800     1.0  0.76534  0.79297  0.92223  1.0000
  S   S1242     1.0  0.80366  0.73618  0.91048  1.0000
  H   H9801     1.0  0.95788  0.88951  0.70003  1.0000
  H   H9802     1.0  0.83229  0.76206  0.59988  1.0000
  H   H9803     1.0  0.82894  0.76505  0.62716  1.0000
  H   H9804     1.0  0.91292  0.73578  0.62238  1.0000
  H   H9805     1.0  0.95260  0.79666  0.74568  1.0000
  H   H9806     1.0  0.93440  0.83929  0.67228  1.0000
  H   H9807     1.0  0.85875  0.77147  0.62395  1.0000
  H   H9808     1.0  0.79545  0.79449  0.87769  1.0000
  C   C5527     1.0  0.81133  0.91898  0.73414  1.0000
  H   H9809     1.0  0.85434  0.87036  0.72146  1.0000
  H   H9810     1.0  0.83441  0.81854  0.80714  1.0000
  H   H9811     1.0  0.83285  0.91063  0.74216  1.0000
  N   N305      1.0  0.85147  0.74953  0.74524  1.0000
  H   H9812     1.0  0.88555  0.74067  0.62958  1.0000
  C   C5528     1.0  0.76896  0.95376  0.75086  1.0000
  C   C5529     1.0  0.96548  0.79606  0.74193  1.0000
  H   H9813     1.0  0.85967  0.91773  0.70727  1.0000
  H   H9814     1.0  0.75712  0.75913  0.72591  1.0000
  H   H9815     1.0  0.96440  0.73970  0.49707  1.0000
  H   H9816     1.0  0.80700  0.92318  0.72305  1.0000
  H   H9817     1.0  0.84494  0.89010  0.69038  1.0000
  N   N306      1.0  0.83572  0.80755  0.78820  1.0000
  C   C5530     1.0  0.81807  0.81282  0.79060  1.0000
  C   C5531     1.0  0.83983  0.79089  0.79743  1.0000
  C   C5532     1.0  0.84139  0.81794  0.79499  1.0000
  C   C5533     1.0  0.84393  0.80882  0.77106  1.0000
  C   C5534     1.0  0.83476  0.80724  0.75958  1.0000
  C   C5535     1.0  0.81192  0.83063  0.78425  1.0000
  Fe  Fe623     1.0  0.74934  0.91808  0.72211  1.0000
  C   C5536     1.0  0.83514  0.77816  0.79238  1.0000
  C   C5537     1.0  0.83977  0.76194  0.80277  1.0000
  C   C5538     1.0  0.84550  0.80632  0.74343  1.0000
  C   C5539     1.0  0.79528  0.83415  0.78149  1.0000
  H   H9818     1.0  0.77894  0.98304  0.78395  1.0000
  H   H9819     1.0  0.81321  0.80604  0.78532  1.0000
  H   H9820     1.0  0.85276  0.78695  0.79648  1.0000
  H   H9821     1.0  0.83462  0.79027  0.81022  1.0000
  H   H9822     1.0  0.79230  0.83539  0.73060  1.0000
  H   H9823     1.0  0.87353  0.74654  0.61576  1.0000
  H   H9824     1.0  0.84734  0.82039  0.76601  1.0000
  H   H9825     1.0  0.85520  0.79990  0.77000  1.0000
  H   H9826     1.0  0.82502  0.81765  0.75781  1.0000
  H   H9827     1.0  0.82960  0.79671  0.76389  1.0000
  H   H9828     1.0  0.92736  0.75155  0.58861  1.0000
  H   H9829     1.0  0.81967  0.83512  0.77306  1.0000
  H   H9830     1.0  0.86659  0.80902  0.78523  1.0000
  H   H9831     1.0  0.80743  0.92874  0.74048  1.0000
  H   H9832     1.0  0.82229  0.78065  0.79321  1.0000
  H   H9833     1.0  0.84151  0.77734  0.78020  1.0000
  H   H9834     1.0  0.83405  0.76189  0.81532  1.0000
  H   H9835     1.0  0.83607  0.75302  0.79914  1.0000
  H   H9836     1.0  0.85274  0.75849  0.80159  1.0000
  H   H9837     1.0  0.85148  0.81631  0.73880  1.0000
  H   H9838     1.0  0.85470  0.79530  0.74410  1.0000
  H   H9839     1.0  0.83845  0.80681  0.73498  1.0000
  C   C5540     1.0  0.96284  0.81518  0.71544  1.0000
  H   H9840     1.0  0.79513  0.82837  0.77223  1.0000
  H   H9841     1.0  0.78455  0.76603  0.95389  1.0000
  N   N307      1.0  0.78566  0.85287  0.68398  1.0000
  C   C5541     1.0  0.78545  0.84376  0.70073  1.0000
  C   C5542     1.0  0.76920  0.85758  0.68093  1.0000
  C   C5543     1.0  0.79578  0.84205  0.67325  1.0000
  C   C5544     1.0  0.79286  0.86698  0.68023  1.0000
  C   C5545     1.0  0.78402  0.88004  0.68942  1.0000
  C   C5546     1.0  0.80165  0.83702  0.70540  1.0000
  C   C5547     1.0  0.79514  0.84773  0.65555  1.0000
  C   C5548     1.0  0.75543  0.86216  0.69463  1.0000
  H   H9842     1.0  0.81157  0.82328  0.72546  1.0000
  C   C5549     1.0  0.79422  0.89167  0.68739  1.0000
  C   C5550     1.0  0.80601  0.83574  0.64615  1.0000
  H   H9843     1.0  0.77972  0.83368  0.70307  1.0000
  H   H9844     1.0  0.77823  0.85101  0.70931  1.0000
  H   H9845     1.0  0.76852  0.86741  0.67039  1.0000
  H   H9846     1.0  0.76630  0.84765  0.67805  1.0000
  H   H9847     1.0  0.79267  0.83028  0.67738  1.0000
  H   H9848     1.0  0.80837  0.84002  0.67359  1.0000
  H   H9849     1.0  0.80526  0.86325  0.68165  1.0000
  H   H9850     1.0  0.79368  0.87296  0.66766  1.0000
  H   H9851     1.0  0.78050  0.87525  0.70213  1.0000
  H   H9852     1.0  0.77333  0.88677  0.68488  1.0000
  H   H9853     1.0  0.80944  0.82878  0.69806  1.0000
  H   H9854     1.0  0.80755  0.84661  0.70422  1.0000
  H   H9855     1.0  0.79897  0.85900  0.65032  1.0000
  H   H9856     1.0  0.78312  0.84932  0.65380  1.0000
  H   H9857     1.0  0.75366  0.85150  0.70393  1.0000
  H   H9858     1.0  0.75750  0.87064  0.70013  1.0000
  C   C5551     1.0  0.77575  0.97802  0.79677  1.0000
  H   H9859     1.0  0.84670  0.78216  0.72847  1.0000
  H   H9860     1.0  0.86729  0.92692  0.67305  1.0000
  H   H9861     1.0  0.79807  0.89700  0.67476  1.0000
  H   H9862     1.0  0.78730  0.90121  0.69361  1.0000
  H   H9863     1.0  0.80469  0.88568  0.69257  1.0000
  H   H9864     1.0  0.80524  0.83986  0.63361  1.0000
  H   H9865     1.0  0.81842  0.83413  0.64690  1.0000
  H   H9866     1.0  0.80252  0.82424  0.65072  1.0000
  H   H9867     1.0  0.81171  0.83739  0.79286  1.0000
  H   H9868     1.0  0.82611  0.74466  0.88207  1.0000
  H   H9869     1.0  0.79456  0.81758  0.72404  1.0000
  H   H9870     1.0  0.83355  0.87886  0.70689  1.0000
  C   C5552     1.0  0.87889  0.88694  0.72572  1.0000
  H   H9871     1.0  0.90025  0.76048  0.58697  1.0000
  H   H9872     1.0  0.86850  0.87662  0.70507  1.0000
  C   C5553     1.0  0.76456  0.95921  0.73636  1.0000
  C   C5554     1.0  0.79982  0.82777  0.72244  1.0000
  H   H9873     1.0  0.80591  0.90905  0.74166  1.0000
  S   S1243     1.0  0.76252  0.89372  0.76058  1.0000
  H   H9874     1.0  0.79166  0.77468  0.90270  1.0000
  H   H9875     1.0  0.84747  0.91494  0.69655  1.0000
  H   H9876     1.0  0.88445  0.77211  0.60529  1.0000
  H   H9877     1.0  0.76773  0.75873  0.94123  1.0000
  H   H9878     1.0  0.86417  0.86506  0.68553  1.0000
  C   C5555     1.0  0.85214  0.86495  0.69290  1.0000
  H   H9879     1.0  0.78703  0.83004  0.79254  1.0000
  H   H9880     1.0  0.75517  0.98302  0.68810  1.0000
  H   H9881     1.0  0.78613  0.76272  0.89296  1.0000
  N   N308      1.0  0.95685  0.77565  0.79889  1.0000
  C   C5556     1.0  0.94525  0.76501  0.80551  1.0000
  C   C5557     1.0  0.96194  0.77893  0.81201  1.0000
  C   C5558     1.0  0.94847  0.79113  0.79027  1.0000
  C   C5559     1.0  0.97085  0.76913  0.78719  1.0000
  H   H9882     1.0  0.88530  0.77246  0.56584  1.0000
  C   C5560     1.0  0.93949  0.76023  0.79324  1.0000
  C   C5561     1.0  0.95728  0.80487  0.78484  1.0000
  C   C5562     1.0  0.96422  0.76534  0.82654  1.0000
  H   H9883     1.0  0.74383  0.96076  0.78582  1.0000
  N   N309      1.0  0.97521  0.81388  0.70048  1.0000
  H   H9884     1.0  0.97761  0.78869  0.70739  1.0000
  C   C5563     1.0  0.94778  0.81961  0.77586  1.0000
  H   H9885     1.0  0.93471  0.77069  0.81341  1.0000
  H   H9886     1.0  0.95013  0.75385  0.81312  1.0000
  H   H9887     1.0  0.97303  0.78332  0.80730  1.0000
  H   H9888     1.0  0.95302  0.78856  0.81697  1.0000
  H   H9889     1.0  0.93677  0.79532  0.79768  1.0000
  H   H9890     1.0  0.94600  0.78965  0.77948  1.0000
  H   H9891     1.0  0.96716  0.76926  0.77640  1.0000
  C   C5564     1.0  0.98922  0.85322  0.69168  1.0000
  H   H9892     1.0  0.84315  0.74700  0.93116  1.0000
  H   H9893     1.0  0.76353  0.78502  0.88646  1.0000
  H   H9894     1.0  0.93355  0.77064  0.78563  1.0000
  H   H9895     1.0  0.94946  0.75363  0.78568  1.0000
  H   H9896     1.0  0.96887  0.80181  0.77694  1.0000
  H   H9897     1.0  0.95923  0.80808  0.79501  1.0000
  H   H9898     1.0  0.95259  0.76302  0.83356  1.0000
  N   N310      1.0  0.89833  0.73961  0.60571  1.0000
  H   H9899     1.0  0.97410  0.84621  0.68179  1.0000
  C   C5565     1.0  0.88531  0.76040  0.75654  1.0000
  C   C5566     1.0  0.89817  0.74853  0.58898  1.0000
  H   H9900     1.0  0.88466  0.89597  0.71691  1.0000
  Fe  Fe624     1.0  0.76243  0.91917  0.74915  1.0000
  H   H9901     1.0  0.85251  0.85410  0.70233  1.0000
  H   H9902     1.0  0.82939  0.73806  0.94754  1.0000
  H   H9903     1.0  0.97250  0.76029  0.84811  1.0000
  C   C5567     1.0  0.96745  0.81616  0.68694  1.0000
  H   H9904     1.0  0.93622  0.82360  0.78348  1.0000
  H   H9905     1.0  0.95434  0.82920  0.77205  1.0000
  H   H9906     1.0  0.94575  0.81728  0.76527  1.0000
  C   C5568     1.0  0.87172  0.90421  0.68930  1.0000
  C   C5569     1.0  0.92771  0.74966  0.80126  1.0000
  H   H9907     1.0  0.95107  0.83919  0.68951  1.0000
  H   H9908     1.0  0.75283  0.86146  0.75495  1.0000
  H   H9909     1.0  0.85773  0.83075  0.80854  1.0000
  C   C5570     1.0  0.88433  0.76448  0.61718  1.0000
  H   H9910     1.0  0.77077  0.75390  0.91587  1.0000
  C   C5571     1.0  0.76120  0.78177  0.92580  1.0000
  C   C5572     1.0  0.84569  0.87948  0.70005  1.0000
  C   C5573     1.0  0.87704  0.91883  0.67839  1.0000
  C   C5574     1.0  0.86080  0.89294  0.72919  1.0000
  C   C5575     1.0  0.85735  0.90865  0.70259  1.0000
  C   C5576     1.0  0.77649  0.77540  0.94727  1.0000
  H   H9911     1.0  0.88250  0.87581  0.72155  1.0000
  C   C5577     1.0  0.77281  0.96413  0.75743  1.0000
  H   H9912     1.0  0.93349  0.73832  0.80792  1.0000
  H   H9913     1.0  0.88293  0.89479  0.74470  1.0000
  C   C5578     1.0  0.98573  0.82536  0.69673  1.0000
  H   H9914     1.0  0.88194  0.89635  0.69387  1.0000
  H   H9915     1.0  0.89436  0.76514  0.62158  1.0000
  H   H9916     1.0  0.98797  0.75314  0.80039  1.0000
  C   C5579     1.0  0.86485  0.82650  0.79782  1.0000
  C   C5580     1.0  0.85599  0.88005  0.71094  1.0000
  H   H9917     1.0  0.97554  0.81982  0.67553  1.0000
  C   C5581     1.0  0.83725  0.76080  0.73995  1.0000
  C   C5582     1.0  0.78566  0.77489  0.89354  1.0000
  C   C5583     1.0  0.86116  0.75910  0.74832  1.0000
  H   H9918     1.0  0.95466  0.83711  0.66182  1.0000
  C   C5584     1.0  0.87469  0.74976  0.75687  1.0000
  C   C5585     1.0  0.84060  0.77456  0.72579  1.0000
  C   C5586     1.0  0.94621  0.83127  0.67153  1.0000
  H   H9919     1.0  0.76896  0.79653  0.89609  1.0000
  H   H9920     1.0  0.97022  0.79398  0.75256  1.0000
  C   C5587     1.0  0.75417  0.85094  0.75027  1.0000
  C   C5588     1.0  0.82529  0.78507  0.72161  1.0000
  H   H9921     1.0  0.91538  0.76310  0.60251  1.0000
  H   H9922     1.0  0.82935  0.76604  0.74989  1.0000
  H   H9923     1.0  0.83005  0.75464  0.73669  1.0000
  C   C5589     1.0  0.93722  0.74926  0.60827  1.0000
  H   H9924     1.0  0.97149  0.75429  0.82324  1.0000
  H   H9925     1.0  0.85347  0.76768  0.75547  1.0000
  H   H9926     1.0  0.98614  0.74257  0.51157  1.0000
  S   S1244     1.0  0.74848  0.89271  0.73097  1.0000
  H   H9927     1.0  0.82548  0.73597  0.69856  1.0000
  S   S1245     1.0  0.75334  0.74722  0.97628  1.0000
  C   C5590     1.0  0.75878  0.76068  0.91461  1.0000
  S   S1246     1.0  0.84941  0.73709  0.58395  1.0000
  C   C5591     1.0  0.84644  0.73852  0.60364  1.0000
  N   N311      1.0  0.75777  0.77808  0.91189  1.0000
  C   C5592     1.0  0.77218  0.97993  0.74959  1.0000
  C   C5593     1.0  0.96878  0.81151  0.73092  1.0000
  H   H9928     1.0  0.76342  0.96218  0.79414  1.0000
  H   H9929     1.0  0.80734  0.77528  0.87585  1.0000
  H   H9930     1.0  0.93345  0.75002  0.62083  1.0000
  H   H9931     1.0  0.88203  0.73989  0.75132  1.0000
  H   H9932     1.0  0.85570  0.88456  0.73966  1.0000
  H   H9933     1.0  0.79121  0.84703  0.77745  1.0000
  S   S1247     1.0  0.97425  0.87570  0.72478  1.0000
  H   H9934     1.0  0.81743  0.78963  0.73191  1.0000
  H   H9935     1.0  0.82784  0.79523  0.71197  1.0000
  H   H9936     1.0  0.81914  0.77843  0.71760  1.0000
  H   H9937     1.0  0.98426  0.77074  0.83124  1.0000
  C   C5594     1.0  0.91412  0.73788  0.60944  1.0000
  H   H9938     1.0  0.77655  0.95985  0.76846  1.0000
  H   H9939     1.0  0.89442  0.75365  0.76339  1.0000
  C   C5595     1.0  0.83510  0.89979  0.72250  1.0000
  C   C5596     1.0  0.98014  0.74096  0.52416  1.0000
  C   C5597     1.0  0.82930  0.91392  0.73069  1.0000
  H   H9940     1.0  0.84438  0.86473  0.68541  1.0000
  C   C5598     1.0  0.95118  0.82783  0.68714  1.0000
  H   H9941     1.0  0.89819  0.87910  0.73783  1.0000
  H   H9942     1.0  0.85870  0.90410  0.73306  1.0000
  H   H9943     1.0  0.75817  0.77205  0.70668  1.0000
  N   N312      1.0  0.85262  0.89540  0.71597  1.0000
  C   C5599     1.0  0.76091  0.97152  0.80072  1.0000
  H   H9944     1.0  0.86056  0.80326  0.80627  1.0000
  H   H9945     1.0  0.88109  0.92509  0.68497  1.0000
  H   H9946     1.0  0.84045  0.74566  0.76997  1.0000
  H   H9947     1.0  0.78421  0.76501  0.92712  1.0000
  C   C5600     1.0  0.97781  0.84298  0.69316  1.0000
  C   C5601     1.0  0.92296  0.75144  0.60136  1.0000
  H   H9948     1.0  0.87015  0.74713  0.72447  1.0000
  H   H9949     1.0  0.74380  0.81037  0.89821  1.0000
  C   C5602     1.0  0.83301  0.74122  0.93451  1.0000
  H   H9950     1.0  0.95752  0.73974  0.52193  1.0000
  H   H9951     1.0  0.76095  0.75999  0.88989  1.0000
  H   H9952     1.0  0.96521  0.80482  0.68649  1.0000
  C   C5603     1.0  0.76845  0.78425  0.89671  1.0000
  H   H9953     1.0  0.98896  0.73478  0.53145  1.0000
  C   C5604     1.0  0.85332  0.73534  0.72305  1.0000
  H   H9954     1.0  0.96251  0.82106  0.73735  1.0000
  H   H9955     1.0  0.95521  0.82711  0.71454  1.0000
  H   H9956     1.0  0.76120  0.97893  0.71700  1.0000
  H   H9957     1.0  0.75403  0.74693  0.70552  1.0000
  H   H9958     1.0  0.94552  0.82026  0.66890  1.0000
  C   C5605     1.0  0.76597  0.74727  0.70624  1.0000
  H   H9959     1.0  0.75020  0.78380  0.93497  1.0000
  H   H9960     1.0  0.97944  0.77687  0.78303  1.0000
  C   C5606     1.0  0.84263  0.74193  0.63456  1.0000
  H   H9961     1.0  0.75085  0.75666  0.92602  1.0000
  H   H9962     1.0  0.77302  0.74985  0.69411  1.0000
  H   H9963     1.0  0.82302  0.74969  0.92987  1.0000
  C   C5607     1.0  0.84607  0.73872  0.76068  1.0000
  C   C5608     1.0  0.76419  0.76105  0.71368  1.0000
  H   H9964     1.0  0.98341  0.86582  0.68861  1.0000
  H   H9965     1.0  0.75872  0.96598  0.81345  1.0000
  C   C5609     1.0  0.88504  0.74722  0.61734  1.0000
  C   C5610     1.0  0.76428  0.97491  0.72835  1.0000
  C   C5611     1.0  0.98041  0.75249  0.79292  1.0000
  C   C5612     1.0  0.75883  0.73727  0.90442  1.0000
  H   H9966     1.0  0.96526  0.78087  0.84069  1.0000
  H   H9967     1.0  0.78572  0.96842  0.80008  1.0000
  H   H9968     1.0  0.93291  0.73712  0.56312  1.0000
  H   H9969     1.0  0.96753  0.84593  0.70256  1.0000
  H   H9970     1.0  0.93815  0.73691  0.85201  1.0000
  C   C5613     1.0  0.98527  0.79742  0.70296  1.0000
  H   H9971     1.0  0.97124  0.78601  0.73614  1.0000
  H   H9972     1.0  0.98334  0.76333  0.52547  1.0000
  H   H9973     1.0  0.82469  0.73544  0.75553  1.0000
  H   H9974     1.0  0.75988  0.85321  0.73757  1.0000
  H   H9975     1.0  0.98671  0.90873  0.82556  1.0000
  H   H9976     1.0  0.88119  0.73911  0.58293  1.0000
  H   H9977     1.0  0.77591  0.76259  0.71373  1.0000
  C   C5614     1.0  0.86172  0.74030  0.73311  1.0000
  C   C5615     1.0  0.75457  0.75518  0.90183  1.0000
  H   H9978     1.0  0.89131  0.76486  0.74427  1.0000
  H   H9979     1.0  0.86984  0.74495  0.76943  1.0000
  H   H9980     1.0  0.98413  0.74412  0.77162  1.0000
  H   H9981     1.0  0.98144  0.81121  0.72897  1.0000
  H   H9982     1.0  0.96757  0.75634  0.54046  1.0000
  S   S1248     1.0  0.96055  0.73505  0.57297  1.0000
  H   H9983     1.0  0.74172  0.75896  0.90231  1.0000
  H   H9984     1.0  0.74122  0.88006  0.67947  1.0000
  C   C5616     1.0  0.74116  0.81520  0.67677  1.0000
