data_image0
_chemical_formula_structural       FeHS2CH4SH3CFeS2FeSHFeSFeS3FeS2C3HCH3CHC2H3C2HCH2CH2CHSH3C6H5C4H4CH2C6H2CHCHCSH2C4SCHCHCHCHCHC4HC2H7CH6NCH3CH4CHFeH6CH9FeH4C3HCHC2H2CH5C2HCH2NH2SHNH5CFeHC2H2C2HNCH10CH4CHC2HCH5NH10C2HNHFeC5H2CHCH14C2H2CSH4CH3C2H3CHCH4C2H3FeC3H2C2H4NH7CH3CH4SH4CH3SHCHC2H2CHCHC3H6CSHCHCH2C2HS2C3H3SH5FeS3FeSFeS2FeSCFeS2FeSFeS3FeS2FeS2FeSFeCS2H2SHFeS2FeSHFeSFeS3FeS2FeS2FeSFeS3CSC7H4C6H4C3H2CH3C2HC3H4C7H12FeC7H4C6H4C6H5C5HCHC6HCH4C6H3C6H4C3SCHCH2CSH12C2HCSH4CH3SHNC7HCH8CH2CH3NC7HCH10CHCH2CH7CSH2C2H2C3HC3HCH3SH2CH5NH3C2H3NC2HC4H15NC10H26FeH2CH3SHCH2CH6CFeHC2H2CH6C3H3C3NH7CHCNC2H6C4SHFeCH2C2HCH2C2H3FeC3H2CH2SC3H2CNCHCHCH2NHSH6CH2C2HC2H2CH5C2H2NHCH8SCH5CNC2S2CH2SCH3C2HC2H3CHCHCH5C2SHCHCHC3H2C2HCHS2HFeH2SHCSH3CH7CFeCHFeHCHC2HCHSCNHC2HCH4CH3CH2CHCHCH4C3H3C2FeHCH2CHCHNC2H3CHC2H8CH3CHCH2CH5CH6CH3CHNH2CH2CH7C2H6CHCH3CHCSCH2C3FeNCH12CH4CHCH5FeH6NH2CH2CH2SH4FeS2FeS2FeSFeS3FeS2FeHSFeSHS3CHSH2SH2FeSFeS2FeS3FeS2FeS2FeSFeS3FeS2FeS2FeSFeS3HSC3HCHCH2SH2C6H4C6H4C6H2C6H4C6FeCH2C6H7C2HCSH2C2HCHCHC6H4C6H7CH2C2H2C6H4CH5CHCHC2H4NCH2CHCHCHSH2CHNCH2C2H6CHCH4CH4SCH3NC5HC6H14CH7CH7CHC2HCH5NH14CH2FeHC3H2C2HNC8HCHCH16NHCH9CSH6CHFeH2FeCHCNH5CFeH5C2HCH2CH3C3HC2H6C3NCH3FeH3CH3NC2H4C3H2NC2H2CH3C4HC2H2CH4C2HCSH4C2H2NC11H27CHCHSH3C3H2C3H4CH2SH2CH2C3H3CH3NC2H2C2H3CHCH4C2H2CHC2HCH5C2HCH7C2H2FeCH2CH6CH5CH2C2H3CH6CHFeHCH6CH2CHCHC2H3CH9CH4SH2CH3C2HC2H2C2HC2H6C2H3C2HC2HSH4CH2C3H2CH2SH2CH6CHCH2C4H2CHSNH2CNHCH4CSH4C2H4CHSHFeSFeSHSNC2SH7SH4SC2HC2SCSHCH2C3FeH3NC7H4FeHC2HCHC2HSHCH4NCH2CH4FeCHC5H2C2H4CNC3HC2HC2HCH5CHCH3CH6SH7CH3CH2C2HCS2CHC2H3CNH3CH4NH5CH3FeH3C3H6CH3FeHCH2CH2C2HCH2NC2H2CH2SHCH4CHCH2CH2CH2C2HCH6CHC2HCH4SH4CHC3H2CFeSC2H5SH7CHC3HCH2CHC2H4C2HC2H3C2H6CH3FeH2CHC2H3CH2CHCSHCH3C2H3CH3CSHSCH3CH3SCHCH2SFeHC2H5CH2CH5CHCHFeS2FeS2FeSFeS3FeS2FeS2FeSFeS3HC4FeS2FeS2FeHFeS3CH3FeS2Fe2S2FeS2HSHFeSFeS2H3SH3FeS2FeSHCS2HFeS2HC2S2FeHSFeHS2H2S2FeH7C4HCHCH2CHC6H7C6H11C5HCH2C6H4C6H5CHC3HC3H3C6H4C6H4CH3C2SH3CHC6H4C6H4C6H5C3HCNC12H22C2H4NC11H19CH6NC12H26NC5H14C2H4C2H2C2SH4C2H5CSH5CH6CH2C3H2NCH2CH2CH2CH9CNC5HC3H9CHCH2CH9SCHCH3CHNH2FeHC2H2CH2CH2C3HC3H11C2H3C2H7C2HCFeCH4SFeHC2H3FeHCHCH3CH2CH2CHC2H4CH6CH3C3H2CHC2FeNC2H4C2H2CHCHCH3CHC2HC2H2CH2CHCH6CHSH5FeSHNHCHC2HCSH4CHC2H2C2H2CHSH2C2HCH2NC2H2CHCHC2HC2NCHCFeH2C2HCH2C2HC3HCHCH2CH4C2H3SH2CHCH8CH5SH6CHNH2CH2FeC2SCH3C2HCHSNH7NHCH5CH6CH5C2HC2HCHCHCS2CNCH9CH2CH5SH9C2H2CSH3C2HCHFeHCHCH7CHC3H5SH2FeSH2FeCSHFeH2SFeS2FeS2FeCFeS2H2SCH2NH3FeS2FeH4FeS3FeHSFeS2CHFeHS2FeH2CHSCHFeS2FeS2FeSFeS3FeS2FeS2FeSFeS3CFeS2HFeS2FeS2FeS2FeSFeHS2H4C6H3C4H2C6H4C3H2FeHC6H4C6H4SCH2C5H4C6H4C6H4C2HCH3C8H9CHCSHC6H4CH2C3H4C6H4C6H3C2HCH5CHCH13CH2NC8HC2H17C2H9NC12H31CHFeH4C3HCH6CHCH4CHCH5NCH5C3HSH4C2H2CH4CHCHC2HCHCHC2H2CHCH4CH2SH4C3H3CSCHC2SH5CSHCH2FeH2CHNC11H21CH3NC5HCH18SHCH2C2HC2H9SHCHCHC2HCHCNCH2NHCSH2CH3CH7C2HCH2CH5C3HCH5CH4CH6SH4C4H2C2H3CHC3HC2H3C3HCHC2HC3HCH4CHC2H2CH3FeH2CNHSH3CHC2H3CNCHNH3CH5CHSHCHC2H2C2HCHCH8CH5NHC2NH2CHC3HC4H5CH2CHCHC2H2C2H3CH4NH2CHFeH2CSHSCSH2CH3C2H3C2H3NH2C3H2CHC2HNSH2SH5CSCH2SH2C2H2SH3CHCH11C3H8CSCNCH2CH4C2HCH5CH6C2HCFeC2H3CNHC2HC3H2CH6CH2FeH3C3H4CH5C3H2FeC2H2FeH5CHFeH2C2H2C2H2CSH4CH3CHC2H5CHSH3CHFeH3CH3CH5C2HFeS2H2C2SCH3CHCH2NH4CH3NHFeS2FeS2FeSFeHS2HCH2CNC2H3SH2FeSFeSHCHC2H2CHCH2SH2C2H3SH2CH3CH2C3HSH2C2H4CHC6H4CH4CHCH3CH7NCH2CFeH3C6H11NHC3H2C2H2NC2H2CH11C2HCHFeCHCH6CHCH2C2H2NCH3C3H2CH4CH2CH3CH2CH2C2H2C2HCHC2H4CH3C2H3C2H6CHCH4NH2CHC4H2CH4C2H5CH2C2H4C2H2CHCHCHCH2C2H2C3H6CHCH5CH2SH4CHFeS2FeS2FeSFeS3HS2HFeSHFeS2FeS2FeSFeS3H2SHFeS2H2C2S2FeSHFeSHFeSFeS3FeS2FeS2FeSFeS3FeS2FeSFeSFeS3H2C6H4C5H8CH4C6H4C6H4C6H4C2HC2H4CHC3H2CH6CHCH2C6H4C6H4C6H4C7H6C2HCFeCHC5H2C2HNC7H15CHCSC2H2C3H5CH2FeH3CH3C2H5C2HCHC3H9CH2NC12H29CH2C2HCH2C2SH2CH8SCH3C2H2CFeCH3C3H7CN2C4H2CHSFeH2CH3FeHSHC2H2CHCH5CHC2H3CHC2HC2H2CHC2H7NC10H23CH3NC4SC2H8C2H7SH2CH5CH3CH9CNH2NH4CHNH3CH2C2HCH2NC2HCH2CH2NH4C3H7CH4CHCH2CH2CH7C4SH2CH2CHCH3CH3C2H2CHFeHCH3C2HCHCH2NCHCH6C3HCH2CHCFeHC3H2SH5CH4CHFeCH4CH3CH5C2H8SHNH2FeH3CHC3H2SH2CH2C2H3C2H2SHFeSCFeS2FeSFeS3FeS2FeS2FeHFeS3FeS2FeSFeSFeS3FeCSHFeSHSHFeS2FeSFeCFeS2FeS2FeHFeS3FeS2FeS2FeSFeS3H5CH10CH2C6H4C6H4C7H4C6H4C6H4CH2C2H2CSC6H2C6H4C6H3C6H4CHC7H2C2HC2H3CHSC2H2CH3CH2CH6C2H4NC9H15CH4NC4HC2H3C2H9CH7C2HCH11CFeC2NH4SH3C3NHC4HC3H2C2H5SHC2HCH8C2H5CH3NCH2C4HC2SH3NCH5CHCH4C4H2NC12H27FeH4CH2CH2C2H2CSH3CSH17CH10CHC3HC3H2CH2CH5CHCNH2CHCH5CSHCH6SH2SH2CH7C2H2CHC2HCH6NC9HC2H19C2H7C2HCH3CHC2H2CSH5NC2H4CH2CH5CH7C2HCHNHCHC2H10CH4CHNH2CFeHCHSNSC2H2CHC2H2CHSC2HC3HCHSH4SFeS2HSHFeSFeS2HCH4C2HCNFeCH4SHC7H3CFeCH2CH2FeNHCH3CH2CHSHCH3FeCH2C2FeH2CHSH2CHCH5CH5CHC2H5C3H5C2H5CH3CHSH2SC3H2C2HNC10HCH24CH6C3SH5C2H3CHC2H5NCH3C2HCH2C2HCH3CHC4H5CH2FeHCH4C3H2C2HCH7CHC2HC2SH9CHCH6NCH3CHCH2CSCHCHCSH2CH4SH2NH2FeS2HCHS3HFeSFeS2HSFeSFeS2FeS2FeS2FeSFeS3FeSFeHS2FeS2FeSHFeSFeCSHFeHSH2SHSFeSH2CH2CFeSCSFeS2FeS2FeSFeS3FeS2FeS2FeSFeS3H3C6H4CHC7H4CHSHC4H2SC6H4C6H4C6H5SHCHCHCHC3H3C6H2C3H2CH4C6H4C6H4C2HC3H5C3H3CHCHC2HCH2SCH2C6H4C6H4C2H6CH5NH2C2HCH2CH6C4SH4CH3C2FeHCSH4CH4CNC5NC4FeCH11CH9CHCH4CH3FeH6C4H2CH3NC7H19CH2CHCHC3H6CHFeH5FeH5CH2CH6SHC3H3SNC11H20C2H2C2H6C3H9CHCH3CSHCHSH4NH5C2H2NSNH2CHCH4CH2CHCH3CHCHCHCH6C8HCH3C2H2SCH3C2H3CH2CHCH4C2H6NC2HCSFeCSH4CHCH4C6HCH2NCHCH2C2H3FeCHCH12CH2CH4CHCHC3HSCH4CHC2H6CHCHFeNH2NHCH2C2FeCHCH2C2HNH7C3HCH2CH3CHSCHC2H6C2H6SH5CHCH2CH2C6H3CH3CH3C2H4CH8C2H3CSH4CH4FeCH2C2H2CHFeCH2C2NCHSNCH2C2SHC3H9CHCH6CH3C4HCH3S2H3CH3C2H3CH3CH2CH3CHC4H3NH3C2H3CHC2HSCS2H3CNCH4NCH2NFeHCHCHFeH2C3FeH2CSHSCH2CSH3CH2CHCHCH2SH2CSH3SH2NCH2CH5CH3CH3CH2CH2CH2CHCH2CH5C3H4CH4SHCH2CHSH2CH3C4HCHC2H3NH6SH3CH4C4H5CH4CHCHCH2S2HCH4C3H5CHCHFeCH3CH2CH3C3H4CH5CH2C3SH5CHFeSHC2H2NH4CSHCHCH3CHC3H3SH2CFeNC2H4SCHSH2CHCH2CH7C3SH2C7HSCHNCHCHC2HCHCSH4CHCHFeHC2H2CH4CHFeH6CH2FeH3FeSH2CH6SH3CHS2H4CH6C2HCH2C2H3CHCH5SHFeC2HCHCHCH5CH4CH3CH5CH2CHCH7SCH3CH2CH5NH3CSH2S2FeS2FeS2FeSFeS3FeSHFeS2FeSFeS3FeC2FeS2FeSCHSCFeS2CHSFeSFeS2FeS2FeSFeS3HSHCHFe2S2FeSHSFeSFeS2Fe2HS2HCHSHCH5C3H3C7H4C6H3C5H5C6H4C6H7NH2C6H4C6H4C6H7C5SH2C6H4CHC6H6SFeH3C4H2C2H2C5H3C5H5C2H3NC10H25CH4NC4HC3H2C2H15CH5C3H4NC12H30CSHC2H2NH4NC11SH29CHC2SC3HCHCH7CH4CH4CHC2H2C2H3NC9H19CH2CNC4HC3SCH16SH5CH3NHC3H7C3H5CHCH5CH2SHSHNC9HC2H19SC2H6SCH5CHC3SCH2CHC2SHSHCFeCH2CH8FeCH4CSC2H2CHC4FeHCHC2H3C2HFeHC2H2C2H2CH2CH2CHCHCH5C2HCH4C3SHC2HC4H7FeHFeSHCH2NH2CH4SHC2H2CSN2HCH2NCNHCHCHCHCH2CH2CHCFeHCHC2H4CHCH2CHCHC3H2SCHCHC2H2CH2CH2CH11SFeHCHCHSHC3H2CH3CH2CH4SH4C3H2SCHCH3CHCH2CHSHC2H3CHCH7SC2H2CH2CH6CHC2H3FeHNHCH2C3H2CHC3H3CHCHFeCHCHCH3CH5SH8CH4C3H7CH5CH3CSHCH2CSC3H4CH4FeS2FeS2Fe2S3FeS2FeSHFeSFeS3FeSH2SCFeSFeSH2FeS2FeSHFeSFeS3FeS2HCHFeS2FeS2FeSFeS3C2H2SHCHFeCHCFeS2FeHSHFeSCSFeS2FeSFeSFeS4C6H4C6H6C2FeHC2SHC7H4C4HCH2NHC3HC2HCH2C8H4C7H3C6H4C6H4CHCH2C6H4C6H4C6H9CH6CH2CFeHNC10H22C2H5CNC11H16CHCH7C5NC2HCHC2HCHCH7SH3CH6CH5CH2NHC3HCHSCH5SHSH2CH3CHSH2CHSHC2HNH2NH2CH2CH2CHCHCH7NH3C4HC2H2FeH4CH4C2HC2H12CNC7H4CH2CH5C3H3C2HS2HCHSH5NC12H28NC12H27C2H2CH5C2H2CHCHC2HCHCHC2H2C4HC2NC2H3CFeHCH6CH2CH2C3H3C2HSH3SHC3HC2SCH2CH2CHC2HC2SH3CH12NSHFeHC2HCH4SH3CHC2H3C2SH6CH6CHC4H18CH11CHCH4SH2CHCHCHSHC2H2CSHCH2SHCH4C2H2CHSCHCH9NH3NHCHCH3C2H2C2H2FeH3CHCH6CSC3HCHCH2CHC3HCH2NH5CHCH9CH2CH3C2H3CHCH7CH4C2H6SC2HC2H7C2FeHCH3C3H4C2H3CSH4CHCH2CH2CHCH6CH4C2HSCHCHCHC2HNH3CH3CSH8CH2C3H2CH4CH2CH2C3H3FeS2FeS2FeSFeS3FeHCSH3CHCSHFeSHFeS2FeSFeS2FeS2FeH2CFeSHS2HSH2SFe2SFeSH2FeSFeHSHFeSFeSCHFeS2FeS2Fe2S3FeS2FeS2FeSFeS3H2C2FeSHFeC7H4C6H4C6H4CH4CH3CHC9H4C6H6C4HCHCHFeCSH2C6H4C6H4CH2CH2CH4C6H4C6H4CH4CH2CHC6H3C4H10NC11H23NH2C3HC6HCSH7SH3CH2CH2CH2CHC2HNC10H25C2NH6NC4HC3H16CHNHCHC2H2C2HCH8CH11SH2CH2CH2CHNC12H28CH8CH4C2HC4HCHC4HCH4CH4SCHCH7FeCH2C2H4CH2C3HCH2CH4CH5NCH10SCSH4CH2C2HSCH2CHCH2C2H3C2H7C2HCH2FeH5NSCNH3FeC2H2CH5SHC3H7CHCH2FeCH2SH2CNCHCH2C3HCH3C2HCFeC2H3C2H8CH2C2HCH2CH2C3H7SH2CH2CHCH3CHSH5CSC2HNC4HCH3NHSHC3H2NCH4CH5CHSH3CH7C3H2C2H2CHFeH2S2H3C5SHFeC2NC2HC2H3CHSHCHCH5SH6NHCFeH5CSH2FeH4FeH3SC4HCHC2HCH5SHCHCHCSH2C3H2SH6SCH3SCSH2CHCNHCH4
_chemical_formula_sum              "Fe384 H6144 S768 C3456 N192"
_cell_length_a       79.7138
_cell_length_b       79.8265
_cell_length_c       79.9467
_cell_angle_alpha    74.2379
_cell_angle_beta     74.2708
_cell_angle_gamma    74.2144

_space_group_name_H-M_alt    "P 1"
_space_group_IT_number       1

loop_
  _space_group_symop_operation_xyz
  'x, y, z'

loop_
  _atom_site_type_symbol
  _atom_site_label
  _atom_site_symmetry_multiplicity
  _atom_site_fract_x
  _atom_site_fract_y
  _atom_site_fract_z
  _atom_site_occupancy
  Fe  Fe1       1.0  0.08720  0.01844  0.31375  1.0000
  H   H1        1.0  0.10167  0.02261  0.40127  1.0000
  S   S1        1.0  0.06431  0.04225  0.31280  1.0000
  S   S2        1.0  0.00413  0.08019  0.43620  1.0000
  C   C1        1.0  0.03458  0.10109  0.38573  1.0000
  H   H2        1.0  0.04535  0.21769  0.18917  1.0000
  H   H3        1.0  0.02290  0.28590  0.17504  1.0000
  H   H4        1.0  0.05479  0.00844  0.26893  1.0000
  H   H5        1.0  0.08539  0.02469  0.35046  1.0000
  S   S3        1.0  0.11372  0.01825  0.31864  1.0000
  H   H6        1.0  0.01617  0.12118  0.33027  1.0000
  H   H7        1.0  0.16294  0.33928  0.99758  1.0000
  H   H8        1.0  0.17051  0.47829  0.04865  1.0000
  C   C2        1.0  0.04033  0.42740  0.03226  1.0000
  Fe  Fe2       1.0  0.04153  0.29322  0.08657  1.0000
  S   S4        1.0  0.06582  0.30444  0.08159  1.0000
  S   S5        1.0  0.04448  0.26361  0.09025  1.0000
  Fe  Fe3       1.0  0.01659  0.32922  0.08611  1.0000
  S   S6        1.0  0.03859  0.34358  0.08097  1.0000
  H   H9        1.0  0.00420  0.20954  0.13916  1.0000
  Fe  Fe4       1.0  0.05296  0.32602  0.06153  1.0000
  S   S7        1.0  0.06995  0.33813  0.03595  1.0000
  Fe  Fe5       1.0  0.04941  0.32095  0.10139  1.0000
  S   S8        1.0  0.05940  0.32273  0.12446  1.0000
  S   S9        1.0  0.02979  0.31356  0.06485  1.0000
  S   S10       1.0  0.02626  0.30796  0.10809  1.0000
  Fe  Fe6       1.0  0.01956  0.41896  0.13719  1.0000
  S   S11       1.0  0.03061  0.43546  0.11106  1.0000
  S   S12       1.0  0.03502  0.39437  0.15241  1.0000
  C   C3        1.0  0.09045  0.37401  0.16072  1.0000
  C   C4        1.0  0.03033  0.11354  0.39851  1.0000
  C   C5        1.0  0.01569  0.26122  0.05410  1.0000
  H   H10       1.0  0.10000  0.37137  0.14823  1.0000
  C   C6        1.0  0.03898  0.44482  0.03756  1.0000
  H   H11       1.0  0.07705  0.37282  0.16021  1.0000
  H   H12       1.0  0.02101  0.24790  0.05068  1.0000
  H   H13       1.0  0.11226  0.31045  0.03156  1.0000
  C   C7        1.0  0.01816  0.23932  0.14664  1.0000
  H   H14       1.0  0.12734  0.31830  0.03950  1.0000
  C   C8        1.0  0.01237  0.02363  0.25841  1.0000
  C   C9        1.0  0.09841  0.42948  0.14924  1.0000
  H   H15       1.0  0.06155  0.02419  0.38431  1.0000
  H   H16       1.0  0.04299  0.42386  0.19819  1.0000
  H   H17       1.0  0.05517  0.04747  0.26648  1.0000
  C   C10       1.0  0.05159  0.48027  0.16086  1.0000
  C   C11       1.0  0.00730  0.29887  0.15522  1.0000
  H   H18       1.0  0.03029  0.45591  0.02998  1.0000
  C   C12       1.0  0.13822  0.00376  0.35963  1.0000
  H   H19       1.0  0.01270  0.31119  0.15038  1.0000
  H   H20       1.0  0.03562  0.17986  0.49040  1.0000
  C   C13       1.0  0.05325  0.32669  0.01639  1.0000
  H   H21       1.0  0.04299  0.42981  0.15854  1.0000
  H   H22       1.0  0.04811  0.31809  0.02858  1.0000
  C   C14       1.0  0.16094  0.48631  0.04009  1.0000
  H   H23       1.0  0.07389  0.42327  0.17777  1.0000
  S   S13       1.0  0.07894  0.49137  0.16683  1.0000
  H   H24       1.0  0.13524  0.00926  0.34658  1.0000
  H   H25       1.0  0.09354  0.40454  0.13535  1.0000
  H   H26       1.0  0.04356  0.06705  0.42227  1.0000
  C   C15       1.0  0.05157  0.34286  0.13190  1.0000
  C   C16       1.0  0.05465  0.34325  0.14817  1.0000
  C   C17       1.0  0.04910  0.35905  0.15444  1.0000
  C   C18       1.0  0.04075  0.37473  0.14431  1.0000
  C   C19       1.0  0.03743  0.37445  0.12807  1.0000
  C   C20       1.0  0.04271  0.35844  0.12193  1.0000
  H   H27       1.0  0.06140  0.33129  0.15596  1.0000
  H   H28       1.0  0.05146  0.35914  0.16711  1.0000
  H   H29       1.0  0.03090  0.38654  0.12021  1.0000
  H   H30       1.0  0.04023  0.35828  0.10937  1.0000
  H   H31       1.0  0.05827  0.38178  0.06689  1.0000
  C   C21       1.0  0.03307  0.22914  0.13722  1.0000
  C   C22       1.0  0.04080  0.23634  0.11960  1.0000
  C   C23       1.0  0.03401  0.25394  0.11163  1.0000
  C   C24       1.0  0.05086  0.05766  0.43231  1.0000
  H   H32       1.0  0.00365  0.29589  0.14405  1.0000
  H   H33       1.0  0.03864  0.21570  0.14354  1.0000
  H   H34       1.0  0.05236  0.22848  0.11236  1.0000
  H   H35       1.0  0.06244  0.02987  0.43973  1.0000
  C   C25       1.0  0.11439  0.00050  0.43055  1.0000
  H   H36       1.0  0.03590  0.37494  0.04439  1.0000
  H   H37       1.0  0.01724  0.11261  0.40774  1.0000
  C   C26       1.0  0.04426  0.03481  0.31995  1.0000
  C   C27       1.0  0.02808  0.04674  0.32409  1.0000
  C   C28       1.0  0.01224  0.04050  0.33138  1.0000
  C   C29       1.0  0.01254  0.02235  0.33423  1.0000
  C   C30       1.0  0.02864  0.01054  0.32955  1.0000
  C   C31       1.0  0.04437  0.01683  0.32207  1.0000
  H   H38       1.0  0.02782  0.06076  0.32184  1.0000
  H   H39       1.0  0.07401  0.03026  0.25997  1.0000
  C   C32       1.0  0.02096  0.28320  0.16295  1.0000
  H   H40       1.0  0.05646  0.00778  0.31749  1.0000
  C   C33       1.0  0.07330  0.43833  0.13346  1.0000
  H   H41       1.0  0.09690  0.11243  0.48549  1.0000
  C   C34       1.0  0.03703  0.42983  0.18628  1.0000
  S   S14       1.0  0.09865  0.00346  0.29182  1.0000
  H   H42       1.0  0.15939  0.01778  0.35465  1.0000
  H   H43       1.0  0.15354  0.06758  0.46272  1.0000
  C   C35       1.0  0.03881  0.27987  0.14913  1.0000
  C   C36       1.0  0.06016  0.08834  0.31941  1.0000
  C   C37       1.0  0.11712  0.45104  0.14845  1.0000
  C   C38       1.0  0.09380  0.12720  0.48361  1.0000
  S   S15       1.0  0.14993  0.00219  0.27760  1.0000
  C   C39       1.0  0.07754  0.45230  0.10044  1.0000
  H   H44       1.0  0.08052  0.39417  0.17610  1.0000
  C   C40       1.0  0.01895  0.04406  0.37706  1.0000
  H   H45       1.0  0.15568  0.99754  0.47280  1.0000
  C   C41       1.0  0.13591  0.31636  0.01159  1.0000
  H   H46       1.0  0.04636  0.29752  0.17182  1.0000
  C   C42       1.0  0.12483  0.13175  0.47753  1.0000
  H   H47       1.0  0.00363  0.35876  0.99897  1.0000
  C   C43       1.0  0.08574  0.43805  0.11482  1.0000
  H   H48       1.0  0.08125  0.11430  0.46127  1.0000
  C   C44       1.0  0.09227  0.13545  0.46398  1.0000
  C   C45       1.0  0.13390  0.11307  0.47339  1.0000
  C   C46       1.0  0.01439  0.32546  0.18259  1.0000
  C   C47       1.0  0.15181  0.00863  0.36421  1.0000
  H   H49       1.0  0.01249  0.03570  0.37276  1.0000
  C   C48       1.0  0.07804  0.12905  0.45929  1.0000
  C   C49       1.0  0.15090  0.11389  0.45889  1.0000
  H   H50       1.0  0.08034  0.35624  0.00026  1.0000
  H   H51       1.0  0.02622  0.39724  0.03565  1.0000
  H   H52       1.0  0.12402  0.14169  0.46479  1.0000
  H   H53       1.0  0.02900  0.99651  0.33159  1.0000
  H   H54       1.0  0.07295  0.39886  0.01650  1.0000
  H   H55       1.0  0.99992  0.04972  0.33489  1.0000
  H   H56       1.0  0.02436  0.42539  0.18872  1.0000
  C   C50       1.0  0.02955  0.02678  0.27813  1.0000
  H   H57       1.0  0.03531  0.27540  0.13881  1.0000
  H   H58       1.0  0.10506  0.13163  0.45466  1.0000
  H   H59       1.0  0.08842  0.15019  0.46159  1.0000
  H   H60       1.0  0.00482  0.24777  0.24691  1.0000
  H   H61       1.0  0.12503  0.10755  0.46880  1.0000
  H   H62       1.0  0.09489  0.36376  0.17209  1.0000
  N   N1        1.0  0.07453  0.01930  0.40616  1.0000
  C   C51       1.0  0.08965  0.39256  0.16316  1.0000
  H   H63       1.0  0.03357  0.03871  0.37436  1.0000
  H   H64       1.0  0.08007  0.28142  0.18721  1.0000
  H   H65       1.0  0.07733  0.13491  0.44515  1.0000
  C   C52       1.0  0.04140  0.47748  0.15029  1.0000
  H   H66       1.0  0.06472  0.13333  0.46767  1.0000
  H   H67       1.0  0.15741  0.10038  0.45633  1.0000
  H   H68       1.0  0.14775  0.12280  0.44629  1.0000
  H   H69       1.0  0.04071  0.10960  0.40655  1.0000
  C   C53       1.0  0.04975  0.42389  0.16984  1.0000
  H   H70       1.0  0.08788  0.42496  0.11137  1.0000
  Fe  Fe7       1.0  0.01008  0.12528  0.46963  1.0000
  H   H71       1.0  0.13066  0.34398  0.01219  1.0000
  H   H72       1.0  0.04218  0.05822  0.44571  1.0000
  H   H73       1.0  0.10766  0.36500  0.05886  1.0000
  H   H74       1.0  0.09911  0.16103  0.47798  1.0000
  H   H75       1.0  0.05237  0.44796  0.03460  1.0000
  H   H76       1.0  0.18138  0.46231  0.00648  1.0000
  C   C54       1.0  0.01104  0.25660  0.13833  1.0000
  H   H77       1.0  0.08582  0.39255  0.05053  1.0000
  H   H78       1.0  0.02571  0.15935  0.47842  1.0000
  H   H79       1.0  0.01381  0.04332  0.39156  1.0000
  H   H80       1.0  0.02444  0.04145  0.27462  1.0000
  H   H81       1.0  0.03967  0.31895  0.00064  1.0000
  H   H82       1.0  0.01347  0.31128  0.18630  1.0000
  H   H83       1.0  0.00240  0.13024  0.34908  1.0000
  H   H84       1.0  0.09206  0.02241  0.43279  1.0000
  H   H85       1.0  0.02170  0.12038  0.36608  1.0000
  Fe  Fe8       1.0  0.12489  0.00069  0.29869  1.0000
  H   H86       1.0  0.12707  0.44699  0.13673  1.0000
  H   H87       1.0  0.14924  0.47992  0.04490  1.0000
  H   H88       1.0  0.03031  0.35853  0.02349  1.0000
  H   H89       1.0  0.12034  0.39208  0.00020  1.0000
  C   C55       1.0  0.00633  0.10103  0.35322  1.0000
  C   C56       1.0  0.09947  0.15243  0.49144  1.0000
  C   C57       1.0  0.06209  0.39129  0.02161  1.0000
  H   H90       1.0  0.06070  0.00529  0.43123  1.0000
  C   C58       1.0  0.05534  0.03867  0.42935  1.0000
  H   H91       1.0  0.16051  0.11884  0.46313  1.0000
  C   C59       1.0  0.01474  0.06325  0.36666  1.0000
  C   C60       1.0  0.02314  0.39157  0.06380  1.0000
  H   H92       1.0  0.08737  0.36594  0.07578  1.0000
  H   H93       1.0  0.06257  0.36614  0.05340  1.0000
  C   C61       1.0  0.06364  0.37986  0.05302  1.0000
  H   H94       1.0  0.05182  0.40920  0.17233  1.0000
  H   H95       1.0  0.00000  0.06765  0.36859  1.0000
  H   H96       1.0  0.01417  0.07644  0.38665  1.0000
  H   H97       1.0  0.06320  0.06204  0.43150  1.0000
  H   H98       1.0  0.09988  0.00053  0.40410  1.0000
  C   C62       1.0  0.03456  0.38898  0.04522  1.0000
  C   C63       1.0  0.99971  0.02053  0.29099  1.0000
  H   H99       1.0  0.06424  0.45044  0.10041  1.0000
  C   C64       1.0  0.05041  0.39648  0.00750  1.0000
  H   H100      1.0  0.06885  0.37710  0.02148  1.0000
  H   H101      1.0  0.03220  0.08880  0.32628  1.0000
  N   N2        1.0  0.02235  0.09444  0.36173  1.0000
  H   H102      1.0  0.00300  0.01612  0.30436  1.0000
  H   H103      1.0  0.09058  0.37804  0.03530  1.0000
  S   S16       1.0  0.01784  0.12431  0.44036  1.0000
  H   H104      1.0  0.03611  0.06890  0.37492  1.0000
  N   N3        1.0  0.08072  0.42612  0.14904  1.0000
  H   H105      1.0  0.02427  0.32776  0.16984  1.0000
  H   H106      1.0  0.13513  0.05068  0.48809  1.0000
  H   H107      1.0  0.03305  0.44391  0.05197  1.0000
  H   H108      1.0  0.03056  0.47061  0.15643  1.0000
  H   H109      1.0  0.02013  0.06321  0.35246  1.0000
  C   C65       1.0  0.12654  0.30993  0.03080  1.0000
  Fe  Fe9       1.0  0.01703  0.45884  0.12406  1.0000
  H   H110      1.0  0.10907  0.42462  0.13831  1.0000
  C   C66       1.0  0.08383  0.37988  0.04896  1.0000
  C   C67       1.0  0.04335  0.08480  0.33330  1.0000
  H   H111      1.0  0.12135  0.44282  0.16085  1.0000
  H   H112      1.0  0.04646  0.42920  0.01785  1.0000
  C   C68       1.0  0.03966  0.09506  0.34821  1.0000
  C   C69       1.0  0.04803  0.25215  0.17082  1.0000
  H   H113      1.0  0.02029  0.26806  0.25218  1.0000
  N   N4        1.0  0.05282  0.39331  0.04043  1.0000
  C   C70       1.0  0.09331  0.36467  0.06178  1.0000
  H   H114      1.0  0.06010  0.99850  0.36982  1.0000
  H   H115      1.0  0.04595  0.23008  0.20483  1.0000
  H   H116      1.0  0.13784  0.10364  0.48542  1.0000
  H   H117      1.0  0.10387  0.18759  0.48463  1.0000
  H   H118      1.0  0.04572  0.07025  0.33892  1.0000
  H   H119      1.0  0.03481  0.08741  0.39394  1.0000
  H   H120      1.0  0.99969  0.26460  0.14537  1.0000
  H   H121      1.0  0.09224  0.35158  0.06023  1.0000
  H   H122      1.0  0.06436  0.44414  0.16589  1.0000
  H   H123      1.0  0.04771  0.02700  0.25184  1.0000
  C   C71       1.0  0.04841  0.02281  0.26609  1.0000
  H   H124      1.0  0.02988  0.38352  0.07472  1.0000
  H   H125      1.0  0.08182  0.00791  0.38274  1.0000
  H   H126      1.0  0.15834  0.48840  0.01300  1.0000
  H   H127      1.0  0.00717  0.26696  0.27454  1.0000
  C   C72       1.0  0.01302  0.25950  0.26368  1.0000
  H   H128      1.0  0.11265  0.33768  0.00827  1.0000
  C   C73       1.0  0.08335  0.40714  0.14749  1.0000
  C   C74       1.0  0.06458  0.33736  0.01631  1.0000
  H   H129      1.0  0.15020  0.31488  0.01145  1.0000
  C   C75       1.0  0.02238  0.07581  0.37303  1.0000
  H   H130      1.0  0.07203  0.08363  0.32555  1.0000
  H   H131      1.0  0.05118  0.08945  0.35486  1.0000
  H   H132      1.0  0.01677  0.27158  0.04160  1.0000
  H   H133      1.0  0.06274  0.02828  0.28292  1.0000
  H   H134      1.0  0.07701  0.04536  0.40732  1.0000
  N   N5        1.0  0.01634  0.01704  0.27680  1.0000
  H   H135      1.0  0.06924  0.45228  0.13522  1.0000
  H   H136      1.0  0.04065  0.10913  0.34191  1.0000
  H   H137      1.0  0.05874  0.10276  0.31323  1.0000
  H   H138      1.0  0.05705  0.04556  0.40140  1.0000
  H   H139      1.0  0.11507  0.49409  0.09795  1.0000
  H   H140      1.0  0.03097  0.02417  0.29209  1.0000
  H   H141      1.0  0.06241  0.08099  0.30875  1.0000
  H   H142      1.0  0.04346  0.38558  0.00930  1.0000
  H   H143      1.0  0.10613  0.36812  0.00161  1.0000
  H   H144      1.0  0.06082  0.43505  0.13283  1.0000
  C   C76       1.0  0.05207  0.41161  0.04286  1.0000
  C   C77       1.0  0.01906  0.26393  0.12098  1.0000
  H   H145      1.0  0.08924  0.45389  0.15990  1.0000
  N   N6        1.0  0.05450  0.26661  0.15573  1.0000
  H   H146      1.0  0.12394  0.00858  0.42146  1.0000
  Fe  Fe10      1.0  0.00415  0.43820  0.10446  1.0000
  C   C78       1.0  0.06601  0.25775  0.14075  1.0000
  C   C79       1.0  0.06578  0.27594  0.16094  1.0000
  C   C80       1.0  0.05656  0.28577  0.17631  1.0000
  C   C81       1.0  0.06257  0.23690  0.17838  1.0000
  C   C82       1.0  0.07141  0.27026  0.12249  1.0000
  H   H147      1.0  0.10322  0.39299  0.16389  1.0000
  H   H148      1.0  0.00611  0.09212  0.34484  1.0000
  C   C83       1.0  0.06995  0.29270  0.18174  1.0000
  H   H149      1.0  0.00276  0.35661  0.14306  1.0000
  C   C84       1.0  0.08386  0.25948  0.10905  1.0000
  H   H150      1.0  0.04755  0.41218  0.05721  1.0000
  H   H151      1.0  0.07602  0.46580  0.10271  1.0000
  H   H152      1.0  0.04250  0.29292  0.14234  1.0000
  H   H153      1.0  0.10283  0.42160  0.16167  1.0000
  H   H154      1.0  0.05913  0.24845  0.13838  1.0000
  H   H155      1.0  0.07871  0.24948  0.14439  1.0000
  H   H156      1.0  0.07816  0.26651  0.16419  1.0000
  H   H157      1.0  0.07052  0.28630  0.14950  1.0000
  H   H158      1.0  0.11671  0.46521  0.14794  1.0000
  H   H159      1.0  0.01049  0.38690  0.01487  1.0000
  H   H160      1.0  0.07092  0.22938  0.16811  1.0000
  H   H161      1.0  0.07126  0.24216  0.18350  1.0000
  H   H162      1.0  0.07849  0.28000  0.12352  1.0000
  H   H163      1.0  0.05955  0.27777  0.11689  1.0000
  C   C85       1.0  0.04520  0.48373  0.13184  1.0000
  C   C86       1.0  0.00433  0.12003  0.34131  1.0000
  H   H164      1.0  0.04007  0.00361  0.38626  1.0000
  H   H165      1.0  0.00198  0.40889  0.18071  1.0000
  C   C87       1.0  0.01574  0.35936  0.02780  1.0000
  S   S17       1.0  0.03295  0.48055  0.11781  1.0000
  H   H166      1.0  0.07683  0.30151  0.17013  1.0000
  H   H167      1.0  0.06286  0.30052  0.19213  1.0000
  H   H168      1.0  0.09889  0.44066  0.11416  1.0000
  H   H169      1.0  0.05024  0.27700  0.18828  1.0000
  C   C88       1.0  0.06772  0.42967  0.16601  1.0000
  H   H170      1.0  0.09640  0.25224  0.11359  1.0000
  H   H171      1.0  0.07724  0.24975  0.10715  1.0000
  H   H172      1.0  0.08734  0.26853  0.09599  1.0000
  C   C89       1.0  0.12745  0.33611  0.00434  1.0000
  C   C90       1.0  0.09330  0.01286  0.40921  1.0000
  H   H173      1.0  0.02402  0.26306  0.06233  1.0000
  H   H174      1.0  0.17284  0.05790  0.47239  1.0000
  H   H175      1.0  0.09488  0.45810  0.13598  1.0000
  C   C91       1.0  0.07532  0.02083  0.38672  1.0000
  H   H176      1.0  0.13452  0.13521  0.48303  1.0000
  C   C92       1.0  0.08575  0.03450  0.37322  1.0000
  H   H177      1.0  0.08633  0.45143  0.08716  1.0000
  H   H178      1.0  0.02421  0.01885  0.24838  1.0000
  H   H179      1.0  0.07088  0.40477  0.14561  1.0000
  H   H180      1.0  0.00455  0.24861  0.08826  1.0000
  C   C93       1.0  0.08215  0.03755  0.35468  1.0000
  C   C94       1.0  0.05406  0.22352  0.19374  1.0000
  H   H181      1.0  0.03957  0.24588  0.16640  1.0000
  H   H182      1.0  0.03951  0.00977  0.36280  1.0000
  H   H183      1.0  0.01364  0.27739  0.11486  1.0000
  Fe  Fe11      1.0  0.99942  0.10529  0.44682  1.0000
  C   C95       1.0  0.00597  0.37476  0.01545  1.0000
  C   C96       1.0  0.09862  0.44912  0.14828  1.0000
  C   C97       1.0  0.06076  0.03289  0.26906  1.0000
  H   H184      1.0  0.13828  0.49143  0.09787  1.0000
  H   H185      1.0  0.01903  0.32829  0.19324  1.0000
  C   C98       1.0  0.06642  0.03765  0.41027  1.0000
  C   C99       1.0  0.06574  0.48918  0.15312  1.0000
  H   H186      1.0  0.10033  0.02933  0.37230  1.0000
  H   H187      1.0  0.08204  0.04763  0.37694  1.0000
  H   H188      1.0  0.06464  0.21254  0.19880  1.0000
  H   H189      1.0  0.03390  0.44458  0.18426  1.0000
  N   N7        1.0  0.10684  0.13317  0.49016  1.0000
  H   H190      1.0  0.13302  0.29592  0.03585  1.0000
  H   H191      1.0  0.19432  0.01353  0.44113  1.0000
  H   H192      1.0  0.01280  0.34650  0.02789  1.0000
  H   H193      1.0  0.01498  0.27125  0.16712  1.0000
  H   H194      1.0  0.00817  0.36028  0.16882  1.0000
  H   H195      1.0  0.04012  0.40884  0.00853  1.0000
  H   H196      1.0  0.13349  0.48470  0.07082  1.0000
  C   C100      1.0  0.04853  0.32713  0.00054  1.0000
  H   H197      1.0  0.06793  0.04391  0.35451  1.0000
  H   H198      1.0  0.09060  0.04639  0.34492  1.0000
  H   H199      1.0  0.06565  0.41449  0.03889  1.0000
  C   C101      1.0  0.02062  0.10672  0.37384  1.0000
  H   H200      1.0  0.02658  0.42540  0.03463  1.0000
  H   H201      1.0  0.04853  0.47544  0.17513  1.0000
  H   H202      1.0  0.02991  0.12758  0.39116  1.0000
  H   H203      1.0  0.04929  0.01124  0.41368  1.0000
  S   S18       1.0  0.02876  0.12050  0.48881  1.0000
  H   H204      1.0  0.13521  0.30728  0.00368  1.0000
  H   H205      1.0  0.04814  0.10171  0.37749  1.0000
  H   H206      1.0  0.17989  0.49063  0.01393  1.0000
  H   H207      1.0  0.03922  0.25766  0.18227  1.0000
  C   C102      1.0  0.16891  0.48354  0.02080  1.0000
  H   H208      1.0  0.02023  0.40572  0.06453  1.0000
  H   H209      1.0  0.16565  0.45612  0.02675  1.0000
  H   H210      1.0  0.00713  0.10824  0.38273  1.0000
  S   S19       1.0  0.00741  0.44206  0.15068  1.0000
  H   H211      1.0  0.00388  0.22037  0.10751  1.0000
  C   C103      1.0  0.05926  0.49273  0.12412  1.0000
  H   H212      1.0  0.18747  0.45831  0.02758  1.0000
  C   C104      1.0  0.15804  0.06191  0.47548  1.0000
  C   C105      1.0  0.07147  0.34814  0.00035  1.0000
  H   H213      1.0  0.15398  0.03620  0.47686  1.0000
  H   H214      1.0  0.01009  0.03843  0.25444  1.0000
  C   C106      1.0  0.00936  0.37062  0.99676  1.0000
  H   H215      1.0  0.00642  0.01879  0.22723  1.0000
  C   C107      1.0  0.17629  0.46382  0.02050  1.0000
  H   H216      1.0  0.04251  0.03465  0.43135  1.0000
  C   C108      1.0  0.14980  0.04589  0.48565  1.0000
  C   C109      1.0  0.00529  0.38624  0.06739  1.0000
  C   C110      1.0  0.06285  0.00627  0.41674  1.0000
  H   H217      1.0  0.01140  0.36156  0.04158  1.0000
  H   H218      1.0  0.00748  0.37172  0.06839  1.0000
  H   H219      1.0  0.13339  0.01966  0.48734  1.0000
  H   H220      1.0  0.11564  0.99896  0.44441  1.0000
  H   H221      1.0  0.02272  0.24728  0.26831  1.0000
  H   H222      1.0  0.15387  0.07238  0.48339  1.0000
  C   C111      1.0  0.03162  0.15427  0.48999  1.0000
  S   S20       1.0  0.00916  0.23072  0.16900  1.0000
  H   H223      1.0  0.19024  0.01488  0.25665  1.0000
  C   C112      1.0  0.04546  0.99949  0.37331  1.0000
  H   H224      1.0  0.08008  0.13060  0.49173  1.0000
  C   C113      1.0  0.09527  0.00952  0.42865  1.0000
  H   H225      1.0  0.08655  0.00076  0.43794  1.0000
  H   H226      1.0  0.19391  0.49198  0.03646  1.0000
  C   C114      1.0  0.02375  0.99718  0.27959  1.0000
  C   C115      1.0  0.15587  0.00122  0.38103  1.0000
  H   H227      1.0  0.99931  0.38036  0.13977  1.0000
  S   S21       1.0  0.17371  0.00571  0.38672  1.0000
  S   S22       1.0  0.00077  0.43545  0.07823  1.0000
  C   C116      1.0  0.06957  0.49531  0.13465  1.0000
  C   C117      1.0  0.19791  0.01588  0.45229  1.0000
  C   C118      1.0  0.19790  0.00282  0.46801  1.0000
  H   H228      1.0  0.99926  0.23865  0.11826  1.0000
  H   H229      1.0  0.99955  0.37112  0.11258  1.0000
  H   H230      1.0  0.04890  0.09147  0.58234  1.0000
  S   S23       1.0  0.07679  0.47020  0.83507  1.0000
  H   H231      1.0  0.13956  0.19053  0.57707  1.0000
  H   H232      1.0  0.10669  0.04521  0.70408  1.0000
  H   H233      1.0  0.03661  0.43397  0.86663  1.0000
  H   H234      1.0  0.04985  0.00421  0.57958  1.0000
  H   H235      1.0  0.05789  0.24225  0.58349  1.0000
  Fe  Fe12      1.0  0.09574  0.05506  0.60980  1.0000
  S   S24       1.0  0.10237  0.06755  0.62848  1.0000
  S   S25       1.0  0.10275  0.06521  0.58016  1.0000
  S   S26       1.0  0.08446  0.03764  0.66062  1.0000
  Fe  Fe13      1.0  0.07515  0.06494  0.64478  1.0000
  S   S27       1.0  0.05631  0.08570  0.65906  1.0000
  Fe  Fe14      1.0  0.11151  0.03954  0.64278  1.0000
  S   S28       1.0  0.13868  0.03126  0.65079  1.0000
  S   S29       1.0  0.06737  0.05556  0.62454  1.0000
  Fe  Fe15      1.0  0.14265  0.23842  0.65184  1.0000
  S   S30       1.0  0.13095  0.21578  0.65230  1.0000
  C   C119      1.0  0.18294  0.26984  0.89047  1.0000
  Fe  Fe16      1.0  0.11301  0.25184  0.68104  1.0000
  S   S31       1.0  0.09824  0.23039  0.68407  1.0000
  S   S32       1.0  0.10574  0.27408  0.69630  1.0000
  Fe  Fe17      1.0  0.12516  0.21209  0.68185  1.0000
  S   S33       1.0  0.13010  0.18380  0.69697  1.0000
  Fe  Fe18      1.0  0.10471  0.23520  0.65408  1.0000
  S   S34       1.0  0.08375  0.23111  0.64187  1.0000
  S   S35       1.0  0.13933  0.23286  0.68146  1.0000
  S   S36       1.0  0.11685  0.25866  0.65109  1.0000
  Fe  Fe19      1.0  0.09003  0.14804  0.56765  1.0000
  S   S37       1.0  0.06416  0.14430  0.56460  1.0000
  S   S38       1.0  0.11417  0.12631  0.57167  1.0000
  Fe  Fe20      1.0  0.07721  0.18706  0.56779  1.0000
  S   S39       1.0  0.04987  0.18774  0.56414  1.0000
  S   S40       1.0  0.09017  0.20827  0.56999  1.0000
  Fe  Fe21      1.0  0.05176  0.16191  0.58421  1.0000
  S   S41       1.0  0.02879  0.15661  0.60672  1.0000
  Fe  Fe22      1.0  0.06344  0.17003  0.54444  1.0000
  C   C120      1.0  0.12168  0.45922  0.89527  1.0000
  S   S42       1.0  0.07754  0.16274  0.58960  1.0000
  S   S43       1.0  0.09064  0.17237  0.54572  1.0000
  H   H236      1.0  0.09819  0.33052  0.74359  1.0000
  H   H237      1.0  0.02318  0.40839  0.95364  1.0000
  S   S44       1.0  0.18356  0.07111  0.50136  1.0000
  H   H238      1.0  0.05030  0.03124  0.61490  1.0000
  Fe  Fe23      1.0  0.14230  0.29500  0.77021  1.0000
  S   S45       1.0  0.12248  0.32103  0.76898  1.0000
  S   S46       1.0  0.14204  0.27162  0.75911  1.0000
  Fe  Fe24      1.0  0.16390  0.30637  0.78998  1.0000
  S   S47       1.0  0.14602  0.33355  0.78982  1.0000
  H   H239      1.0  0.01036  0.48837  0.93523  1.0000
  Fe  Fe25      1.0  0.12374  0.31896  0.79723  1.0000
  S   S48       1.0  0.09785  0.32601  0.81691  1.0000
  Fe  Fe26      1.0  0.14630  0.33339  0.76181  1.0000
  S   S49       1.0  0.14681  0.35688  0.73881  1.0000
  S   S50       1.0  0.14163  0.29162  0.79937  1.0000
  S   S51       1.0  0.16617  0.30750  0.76108  1.0000
  Fe  Fe27      1.0  0.05343  0.39462  0.91879  1.0000
  S   S52       1.0  0.08213  0.39382  0.90543  1.0000
  S   S53       1.0  0.03043  0.41796  0.91524  1.0000
  Fe  Fe28      1.0  0.06130  0.35814  0.94171  1.0000
  S   S54       1.0  0.09057  0.35380  0.93002  1.0000
  S   S55       1.0  0.04898  0.33889  0.96491  1.0000
  Fe  Fe29      1.0  0.08783  0.38168  0.93243  1.0000
  S   S56       1.0  0.11038  0.38610  0.94125  1.0000
  Fe  Fe30      1.0  0.08303  0.36602  0.90358  1.0000
  S   S57       1.0  0.10322  0.35773  0.87964  1.0000
  S   S58       1.0  0.05910  0.38520  0.94616  1.0000
  S   S59       1.0  0.05360  0.36768  0.91502  1.0000
  C   C121      1.0  0.01797  0.00902  0.61808  1.0000
  S   S60       1.0  0.10871  0.46187  0.95228  1.0000
  C   C122      1.0  0.17886  0.27570  0.71052  1.0000
  C   C123      1.0  0.10960  0.40785  0.94253  1.0000
  C   C124      1.0  0.09332  0.41953  0.94696  1.0000
  C   C125      1.0  0.09309  0.43613  0.94998  1.0000
  C   C126      1.0  0.10913  0.44120  0.94819  1.0000
  C   C127      1.0  0.12539  0.42970  0.94320  1.0000
  C   C128      1.0  0.12560  0.41301  0.94048  1.0000
  H   H240      1.0  0.08094  0.41555  0.94858  1.0000
  H   H241      1.0  0.08049  0.44491  0.95389  1.0000
  H   H242      1.0  0.13781  0.43347  0.94180  1.0000
  H   H243      1.0  0.13820  0.40395  0.93707  1.0000
  C   C129      1.0  0.09919  0.33437  0.83475  1.0000
  C   C130      1.0  0.08374  0.33916  0.84751  1.0000
  C   C131      1.0  0.08463  0.34613  0.86162  1.0000
  C   C132      1.0  0.10099  0.34846  0.86288  1.0000
  C   C133      1.0  0.11631  0.34385  0.85002  1.0000
  C   C134      1.0  0.11548  0.33663  0.83617  1.0000
  H   H244      1.0  0.07107  0.33744  0.84652  1.0000
  H   H245      1.0  0.07273  0.34973  0.87144  1.0000
  H   H246      1.0  0.12892  0.34590  0.85079  1.0000
  H   H247      1.0  0.12747  0.33293  0.82655  1.0000
  C   C135      1.0  0.17608  0.00703  0.52854  1.0000
  C   C136      1.0  0.16753  0.31109  0.83037  1.0000
  C   C137      1.0  0.16454  0.31673  0.84627  1.0000
  H   H248      1.0  0.03255  0.22265  0.57729  1.0000
  H   H249      1.0  0.06466  0.25952  0.74410  1.0000
  C   C138      1.0  0.18279  0.17520  0.62456  1.0000
  H   H250      1.0  0.15639  0.30981  0.82589  1.0000
  H   H251      1.0  0.15110  0.31971  0.85400  1.0000
  H   H252      1.0  0.17925  0.46842  0.73292  1.0000
  C   C139      1.0  0.15635  0.03718  0.50320  1.0000
  C   C140      1.0  0.11942  0.32136  0.97640  1.0000
  H   H253      1.0  0.17670  0.11306  0.54963  1.0000
  C   C141      1.0  0.17068  0.36923  0.74939  1.0000
  C   C142      1.0  0.16037  0.37164  0.73692  1.0000
  C   C143      1.0  0.16094  0.38606  0.72235  1.0000
  H   H254      1.0  0.04582  0.44690  0.84553  1.0000
  H   H255      1.0  0.05343  0.10904  0.56332  1.0000
  H   H256      1.0  0.17033  0.35802  0.76060  1.0000
  H   H257      1.0  0.15301  0.38797  0.71266  1.0000
  C   C144      1.0  0.04801  0.09680  0.56818  1.0000
  C   C145      1.0  0.03795  0.43777  0.90530  1.0000
  C   C146      1.0  0.02775  0.45379  0.90992  1.0000
  C   C147      1.0  0.03379  0.46966  0.90214  1.0000
  C   C148      1.0  0.04974  0.46956  0.88936  1.0000
  C   C149      1.0  0.05973  0.45367  0.88447  1.0000
  C   C150      1.0  0.05392  0.43773  0.89257  1.0000
  H   H258      1.0  0.01523  0.45390  0.91953  1.0000
  H   H259      1.0  0.02589  0.48206  0.90560  1.0000
  H   H260      1.0  0.09380  0.13131  0.61941  1.0000
  H   H261      1.0  0.06146  0.42554  0.88847  1.0000
  H   H262      1.0  0.10277  0.29676  0.76213  1.0000
  H   H263      1.0  0.15089  0.46623  0.78651  1.0000
  H   H264      1.0  0.04405  0.11572  0.51889  1.0000
  H   H265      1.0  0.12158  0.39959  0.97657  1.0000
  H   H266      1.0  0.06093  0.38773  0.77799  1.0000
  H   H267      1.0  0.07249  0.35671  0.97225  1.0000
  H   H268      1.0  0.07728  0.40699  0.78365  1.0000
  H   H269      1.0  0.04035  0.12125  0.71865  1.0000
  Fe  Fe31      1.0  0.19594  0.06175  0.52518  1.0000
  C   C151      1.0  0.11381  0.39306  0.98924  1.0000
  C   C152      1.0  0.11698  0.27335  0.71291  1.0000
  C   C153      1.0  0.11661  0.28928  0.71749  1.0000
  C   C154      1.0  0.12479  0.28909  0.73115  1.0000
  C   C155      1.0  0.13297  0.27287  0.74073  1.0000
  C   C156      1.0  0.13356  0.25698  0.73596  1.0000
  C   C157      1.0  0.12574  0.25721  0.72204  1.0000
  H   H270      1.0  0.10996  0.30184  0.71041  1.0000
  H   H271      1.0  0.12452  0.30146  0.73442  1.0000
  H   H272      1.0  0.13990  0.24437  0.74324  1.0000
  H   H273      1.0  0.12604  0.24485  0.71873  1.0000
  C   C158      1.0  0.08880  0.22221  0.62260  1.0000
  C   C159      1.0  0.08006  0.20911  0.62260  1.0000
  C   C160      1.0  0.08138  0.20382  0.60676  1.0000
  C   C161      1.0  0.09082  0.21217  0.59061  1.0000
  C   C162      1.0  0.10017  0.22473  0.59072  1.0000
  C   C163      1.0  0.09935  0.22958  0.60666  1.0000
  H   H274      1.0  0.07191  0.20336  0.63489  1.0000
  H   H275      1.0  0.07457  0.19381  0.60689  1.0000
  H   H276      1.0  0.10756  0.23124  0.57831  1.0000
  H   H277      1.0  0.10595  0.23987  0.60641  1.0000
  C   C164      1.0  0.04843  0.10498  0.64422  1.0000
  C   C165      1.0  0.05733  0.10836  0.62640  1.0000
  C   C166      1.0  0.05126  0.12422  0.61482  1.0000
  C   C167      1.0  0.03605  0.13648  0.62095  1.0000
  C   C168      1.0  0.02697  0.13292  0.63870  1.0000
  C   C169      1.0  0.03331  0.11729  0.65039  1.0000
  H   H278      1.0  0.06908  0.09892  0.62159  1.0000
  H   H279      1.0  0.05845  0.12688  0.60120  1.0000
  H   H280      1.0  0.01523  0.14236  0.64349  1.0000
  H   H281      1.0  0.02639  0.11463  0.66418  1.0000
  H   H282      1.0  0.05532  0.07032  0.56222  1.0000
  C   C170      1.0  0.17308  0.04781  0.66946  1.0000
  C   C171      1.0  0.16513  0.03753  0.66320  1.0000
  C   C172      1.0  0.14865  0.04473  0.65802  1.0000
  C   C173      1.0  0.14042  0.06240  0.65884  1.0000
  C   C174      1.0  0.14816  0.07251  0.66542  1.0000
  H   H283      1.0  0.14856  0.00596  0.54168  1.0000
  C   C175      1.0  0.00658  0.14952  0.57006  1.0000
  H   H284      1.0  0.07653  0.34070  0.73862  1.0000
  C   C176      1.0  0.07845  0.39313  0.79158  1.0000
  C   C177      1.0  0.04520  0.00810  0.63518  1.0000
  C   C178      1.0  0.17357  0.14708  0.68099  1.0000
  C   C179      1.0  0.15648  0.15508  0.68928  1.0000
  C   C180      1.0  0.15164  0.17361  0.68739  1.0000
  C   C181      1.0  0.16390  0.18409  0.67735  1.0000
  H   H285      1.0  0.17628  0.23455  0.67248  1.0000
  C   C182      1.0  0.01195  0.41481  0.96309  1.0000
  H   H286      1.0  0.14698  0.14697  0.69697  1.0000
  H   H287      1.0  0.16024  0.19839  0.67572  1.0000
  H   H288      1.0  0.02169  0.35611  0.94208  1.0000
  H   H289      1.0  0.14916  0.21002  0.56840  1.0000
  C   C183      1.0  0.15512  0.04197  0.57581  1.0000
  C   C184      1.0  0.13687  0.04731  0.58271  1.0000
  C   C185      1.0  0.12585  0.05946  0.57192  1.0000
  C   C186      1.0  0.13329  0.06657  0.55428  1.0000
  C   C187      1.0  0.15167  0.06154  0.54749  1.0000
  C   C188      1.0  0.01903  0.09166  0.62371  1.0000
  H   H290      1.0  0.13139  0.04188  0.59636  1.0000
  H   H291      1.0  0.12490  0.07606  0.54588  1.0000
  H   H292      1.0  0.07512  0.36806  0.78822  1.0000
  C   C189      1.0  0.15366  0.12458  0.51881  1.0000
  C   C190      1.0  0.15212  0.10897  0.53171  1.0000
  C   C191      1.0  0.14078  0.10971  0.54839  1.0000
  C   C192      1.0  0.13057  0.12605  0.55202  1.0000
  C   C193      1.0  0.13278  0.14179  0.53945  1.0000
  C   C194      1.0  0.14431  0.14106  0.52281  1.0000
  H   H293      1.0  0.12844  0.44767  0.90424  1.0000
  H   H294      1.0  0.13927  0.09757  0.55821  1.0000
  H   H295      1.0  0.12567  0.15450  0.54253  1.0000
  H   H296      1.0  0.02394  0.08781  0.57064  1.0000
  C   C195      1.0  0.01399  0.09424  0.60592  1.0000
  C   C196      1.0  0.08363  0.33151  0.74890  1.0000
  C   C197      1.0  0.12803  0.11543  0.69622  1.0000
  S   S61       1.0  0.06308  0.00602  0.64540  1.0000
  C   C198      1.0  0.17344  0.41916  0.80849  1.0000
  H   H297      1.0  0.15436  0.22833  0.61615  1.0000
  C   C199      1.0  0.07451  0.38209  0.78073  1.0000
  H   H298      1.0  0.13639  0.26776  0.85967  1.0000
  H   H299      1.0  0.04999  0.09890  0.72938  1.0000
  C   C200      1.0  0.00791  0.37943  0.96543  1.0000
  S   S62       1.0  0.10628  0.02693  0.62304  1.0000
  H   H300      1.0  0.07948  0.33724  0.76098  1.0000
  H   H301      1.0  0.16285  0.24601  0.70155  1.0000
  H   H302      1.0  0.14861  0.18606  0.61194  1.0000
  H   H303      1.0  0.03677  0.23166  0.61088  1.0000
  H   H304      1.0  0.18490  0.24536  0.70288  1.0000
  H   H305      1.0  0.00344  0.20533  0.57400  1.0000
  H   H306      1.0  0.18581  0.16828  0.76366  1.0000
  H   H307      1.0  0.08430  0.38225  0.76781  1.0000
  H   H308      1.0  0.12578  0.03805  0.54547  1.0000
  H   H309      1.0  0.00698  0.35090  0.97403  1.0000
  H   H310      1.0  0.02616  0.03234  0.60018  1.0000
  H   H311      1.0  0.17595  0.28482  0.91125  1.0000
  C   C201      1.0  0.08204  0.27482  0.76059  1.0000
  C   C202      1.0  0.10980  0.16042  0.50015  1.0000
  H   H312      1.0  0.08129  0.11913  0.51951  1.0000
  C   C203      1.0  0.11269  0.37455  0.98821  1.0000
  S   S63       1.0  0.17247  0.07817  0.68088  1.0000
  H   H313      1.0  0.16403  0.37336  0.78426  1.0000
  H   H314      1.0  0.17473  0.37447  0.82350  1.0000
  H   H315      1.0  0.15466  0.34007  0.96184  1.0000
  H   H316      1.0  0.07919  0.10313  0.71025  1.0000
  C   C204      1.0  0.15183  0.44617  0.82573  1.0000
  H   H317      1.0  0.19139  0.48745  0.75499  1.0000
  H   H318      1.0  0.00145  0.11013  0.54714  1.0000
  H   H319      1.0  0.08673  0.14624  0.63462  1.0000
  S   S64       1.0  0.00120  0.01002  0.60685  1.0000
  H   H320      1.0  0.11379  0.10723  0.50697  1.0000
  N   N8        1.0  0.14312  0.38477  0.88009  1.0000
  C   C205      1.0  0.14991  0.37242  0.86723  1.0000
  C   C206      1.0  0.13587  0.37394  0.89796  1.0000
  C   C207      1.0  0.12804  0.39916  0.87380  1.0000
  C   C208      1.0  0.11963  0.41365  0.88497  1.0000
  C   C209      1.0  0.14889  0.35656  0.90477  1.0000
  C   C210      1.0  0.14354  0.34991  0.92479  1.0000
  C   C211      1.0  0.10408  0.42711  0.87799  1.0000
  H   H321      1.0  0.13961  0.36504  0.86792  1.0000
  C   C212      1.0  0.12791  0.02842  0.52152  1.0000
  H   H322      1.0  0.13132  0.38196  0.90825  1.0000
  H   H323      1.0  0.12364  0.36996  0.89761  1.0000
  H   H324      1.0  0.11726  0.39303  0.87317  1.0000
  H   H325      1.0  0.13258  0.40651  0.86004  1.0000
  H   H326      1.0  0.12957  0.42138  0.88418  1.0000
  H   H327      1.0  0.11460  0.40772  0.89909  1.0000
  H   H328      1.0  0.16123  0.29609  0.72450  1.0000
  H   H329      1.0  0.15043  0.48679  0.88280  1.0000
  C   C213      1.0  0.12066  0.34085  0.97453  1.0000
  H   H330      1.0  0.10396  0.37635  0.97891  1.0000
  H   H331      1.0  0.14461  0.35967  0.93185  1.0000
  C   C214      1.0  0.10239  0.18041  0.49877  1.0000
  H   H332      1.0  0.10913  0.43655  0.86587  1.0000
  H   H333      1.0  0.09517  0.42052  0.87476  1.0000
  H   H334      1.0  0.09613  0.43476  0.88828  1.0000
  N   N9        1.0  0.02077  0.21210  0.61597  1.0000
  C   C215      1.0  0.19224  0.26988  0.67112  1.0000
  C   C216      1.0  0.03577  0.19780  0.62251  1.0000
  C   C217      1.0  0.02846  0.22766  0.60406  1.0000
  C   C218      1.0  0.04043  0.22450  0.58589  1.0000
  C   C219      1.0  0.03023  0.18257  0.63821  1.0000
  C   C220      1.0  0.04654  0.16800  0.64196  1.0000
  C   C221      1.0  0.04897  0.24040  0.57590  1.0000
  H   H335      1.0  0.05320  0.16234  0.62998  1.0000
  C   C222      1.0  0.19622  0.31399  0.84258  1.0000
  H   H336      1.0  0.04436  0.19137  0.61146  1.0000
  H   H337      1.0  0.04472  0.20367  0.62666  1.0000
  H   H338      1.0  0.03299  0.13349  0.56550  1.0000
  H   H339      1.0  0.05131  0.21255  0.58769  1.0000
  H   H340      1.0  0.02289  0.39718  0.98450  1.0000
  H   H341      1.0  0.18407  0.01730  0.52150  1.0000
  H   H342      1.0  0.00614  0.19319  0.61517  1.0000
  H   H343      1.0  0.04235  0.15710  0.65306  1.0000
  H   H344      1.0  0.14060  0.36603  0.98842  1.0000
  H   H345      1.0  0.02251  0.19785  0.59584  1.0000
  C   C223      1.0  0.10974  0.11117  0.69910  1.0000
  H   H346      1.0  0.19175  0.39471  0.83311  1.0000
  C   C224      1.0  0.16764  0.27936  0.69627  1.0000
  H   H347      1.0  0.18566  0.25582  0.84260  1.0000
  H   H348      1.0  0.07391  0.23666  0.75334  1.0000
  C   C225      1.0  0.01222  0.20425  0.60608  1.0000
  H   H349      1.0  0.17796  0.25828  0.89971  1.0000
  H   H350      1.0  0.15389  0.27812  0.70362  1.0000
  H   H351      1.0  0.16617  0.29360  0.68950  1.0000
  H   H352      1.0  0.06565  0.25518  0.77602  1.0000
  H   H353      1.0  0.14751  0.26839  0.68127  1.0000
  H   H354      1.0  0.08934  0.24589  0.77080  1.0000
  H   H355      1.0  0.14876  0.34591  0.89832  1.0000
  C   C226      1.0  0.04517  0.15958  0.51175  1.0000
  S   S65       1.0  0.10648  0.47606  0.85371  1.0000
  H   H356      1.0  0.12877  0.28981  0.66135  1.0000
  H   H357      1.0  0.08717  0.30725  0.77827  1.0000
  C   C227      1.0  0.18566  0.05464  0.59742  1.0000
  C   C228      1.0  0.10919  0.12143  0.50802  1.0000
  H   H358      1.0  0.19584  0.16749  0.78177  1.0000
  H   H359      1.0  0.10678  0.34802  0.97883  1.0000
  C   C229      1.0  0.15790  0.49169  0.78024  1.0000
  C   C230      1.0  0.18178  0.99820  0.54624  1.0000
  C   C231      1.0  0.15477  0.45535  0.75863  1.0000
  H   H360      1.0  0.05715  0.23794  0.56279  1.0000
  C   C232      1.0  0.14960  0.09485  0.61146  1.0000
  C   C233      1.0  0.16772  0.43742  0.76395  1.0000
  C   C234      1.0  0.10092  0.48992  0.89384  1.0000
  H   H361      1.0  0.12591  0.48487  0.77250  1.0000
  C   C235      1.0  0.15864  0.42169  0.76859  1.0000
  H   H362      1.0  0.03859  0.25278  0.57361  1.0000
  H   H363      1.0  0.15887  0.40499  0.86961  1.0000
  H   H364      1.0  0.00382  0.39018  0.95426  1.0000
  S   S66       1.0  0.17407  0.32557  0.87237  1.0000
  H   H365      1.0  0.15229  0.45551  0.74549  1.0000
  H   H366      1.0  0.14180  0.45486  0.76831  1.0000
  C   C236      1.0  0.02215  0.46145  0.86101  1.0000
  H   H367      1.0  0.03054  0.46591  0.86713  1.0000
  H   H368      1.0  0.17620  0.48392  0.79832  1.0000
  H   H369      1.0  0.02078  0.13420  0.54989  1.0000
  H   H370      1.0  0.17291  0.43739  0.77544  1.0000
  H   H371      1.0  0.17922  0.43523  0.75271  1.0000
  N   N10       1.0  0.14781  0.02225  0.51528  1.0000
  H   H372      1.0  0.09538  0.27406  0.75142  1.0000
  H   H373      1.0  0.00234  0.17836  0.56203  1.0000
  H   H374      1.0  0.12452  0.34694  0.96016  1.0000
  C   C237      1.0  0.00935  0.40163  0.98140  1.0000
  C   C238      1.0  0.05741  0.48362  0.94081  1.0000
  H   H375      1.0  0.14707  0.42302  0.77996  1.0000
  H   H376      1.0  0.15408  0.42089  0.75692  1.0000
  H   H377      1.0  0.16829  0.40911  0.77236  1.0000
  N   N11       1.0  0.13643  0.16539  0.63099  1.0000
  C   C239      1.0  0.12621  0.16529  0.61762  1.0000
  C   C240      1.0  0.12443  0.17772  0.64284  1.0000
  H   H378      1.0  0.18510  0.33088  0.72672  1.0000
  C   C241      1.0  0.10614  0.17294  0.65285  1.0000
  C   C242      1.0  0.13622  0.15406  0.60345  1.0000
  C   C243      1.0  0.12491  0.15617  0.59007  1.0000
  C   C244      1.0  0.09747  0.18251  0.66821  1.0000
  H   H379      1.0  0.11398  0.16001  0.62441  1.0000
  H   H380      1.0  0.12148  0.17924  0.61052  1.0000
  H   H381      1.0  0.12163  0.19168  0.63498  1.0000
  H   H382      1.0  0.13122  0.17813  0.65317  1.0000
  H   H383      1.0  0.13067  0.13944  0.64424  1.0000
  H   H384      1.0  0.10750  0.15846  0.65845  1.0000
  H   H385      1.0  0.09688  0.17703  0.64361  1.0000
  H   H386      1.0  0.14881  0.15813  0.59578  1.0000
  H   H387      1.0  0.13907  0.13971  0.60983  1.0000
  H   H388      1.0  0.11984  0.17041  0.58431  1.0000
  H   H389      1.0  0.13306  0.14959  0.57902  1.0000
  H   H390      1.0  0.11342  0.14970  0.59660  1.0000
  H   H391      1.0  0.10536  0.17745  0.67875  1.0000
  H   H392      1.0  0.09659  0.19708  0.66353  1.0000
  H   H393      1.0  0.08378  0.18016  0.67408  1.0000
  N   N12       1.0  0.10272  0.39393  0.80747  1.0000
  C   C245      1.0  0.09011  0.39124  0.82537  1.0000
  C   C246      1.0  0.09749  0.38574  0.79519  1.0000
  C   C247      1.0  0.12113  0.38366  0.80999  1.0000
  C   C248      1.0  0.10350  0.41330  0.79948  1.0000
  C   C249      1.0  0.08629  0.42758  0.80402  1.0000
  C   C250      1.0  0.09557  0.39572  0.84058  1.0000
  C   C251      1.0  0.13562  0.38235  0.79268  1.0000
  C   C252      1.0  0.08866  0.44623  0.79359  1.0000
  C   C253      1.0  0.07977  0.39799  0.85625  1.0000
  C   C254      1.0  0.15417  0.37502  0.79673  1.0000
  H   H394      1.0  0.08871  0.37708  0.82983  1.0000
  H   H395      1.0  0.07645  0.39910  0.82459  1.0000
  H   H396      1.0  0.10650  0.38753  0.78180  1.0000
  H   H397      1.0  0.09912  0.37103  0.80045  1.0000
  H   H398      1.0  0.12069  0.36979  0.81752  1.0000
  H   H399      1.0  0.12613  0.38968  0.81823  1.0000
  H   H400      1.0  0.11402  0.41696  0.80372  1.0000
  H   H401      1.0  0.10771  0.41545  0.78473  1.0000
  H   H402      1.0  0.08311  0.42793  0.81833  1.0000
  H   H403      1.0  0.07458  0.42496  0.80108  1.0000
  H   H404      1.0  0.10629  0.38476  0.84543  1.0000
  H   H405      1.0  0.10081  0.40806  0.83605  1.0000
  H   H406      1.0  0.13551  0.39554  0.78347  1.0000
  H   H407      1.0  0.13342  0.37311  0.78571  1.0000
  H   H408      1.0  0.09987  0.44970  0.79677  1.0000
  H   H409      1.0  0.09128  0.44704  0.77905  1.0000
  H   H410      1.0  0.07632  0.45624  0.79728  1.0000
  H   H411      1.0  0.07380  0.38603  0.86089  1.0000
  H   H412      1.0  0.08442  0.39962  0.86742  1.0000
  H   H413      1.0  0.06944  0.40998  0.85248  1.0000
  H   H414      1.0  0.15778  0.38448  0.80228  1.0000
  H   H415      1.0  0.15486  0.36186  0.80616  1.0000
  H   H416      1.0  0.07230  0.28340  0.75243  1.0000
  H   H417      1.0  0.15752  0.19054  0.63539  1.0000
  H   H418      1.0  0.12569  0.00279  0.50560  1.0000
  H   H419      1.0  0.06807  0.39273  0.80402  1.0000
  Fe  Fe32      1.0  0.13613  0.46795  0.94503  1.0000
  H   H420      1.0  0.17817  0.00790  0.55498  1.0000
  H   H421      1.0  0.09569  0.32850  0.96519  1.0000
  C   C255      1.0  0.06654  0.48993  0.92149  1.0000
  H   H422      1.0  0.08385  0.30816  0.74059  1.0000
  H   H423      1.0  0.08848  0.25084  0.73887  1.0000
  H   H424      1.0  0.12426  0.09015  0.62810  1.0000
  S   S67       1.0  0.19593  0.41067  0.72889  1.0000
  H   H425      1.0  0.02885  0.42825  0.96992  1.0000
  C   C256      1.0  0.15820  0.39277  0.88036  1.0000
  H   H426      1.0  0.17454  0.16989  0.52791  1.0000
  H   H427      1.0  0.09668  0.05554  0.52382  1.0000
  C   C257      1.0  0.15256  0.17315  0.62121  1.0000
  H   H428      1.0  0.17710  0.18646  0.56663  1.0000
  H   H429      1.0  0.16207  0.16450  0.61250  1.0000
  H   H430      1.0  0.12789  0.06805  0.65473  1.0000
  H   H431      1.0  0.19564  0.34875  0.72485  1.0000
  H   H432      1.0  0.15058  0.18314  0.54648  1.0000
  H   H433      1.0  0.07243  0.47795  0.91570  1.0000
  C   C258      1.0  0.07617  0.25045  0.74950  1.0000
  Fe  Fe33      1.0  0.07821  0.02822  0.63920  1.0000
  H   H434      1.0  0.13113  0.11428  0.70927  1.0000
  C   C259      1.0  0.07912  0.31319  0.75310  1.0000
  C   C260      1.0  0.06685  0.34853  0.98452  1.0000
  H   H435      1.0  0.06441  0.31484  0.75695  1.0000
  H   H436      1.0  0.18886  0.45918  0.75199  1.0000
  C   C261      1.0  0.16459  0.06540  0.67066  1.0000
  H   H437      1.0  0.15729  0.06698  0.53387  1.0000
  H   H438      1.0  0.18345  0.31285  0.98678  1.0000
  H   H439      1.0  0.19799  0.23455  0.67466  1.0000
  H   H440      1.0  0.07183  0.13339  0.63329  1.0000
  H   H441      1.0  0.18507  0.29943  0.66208  1.0000
  H   H442      1.0  0.10022  0.40158  0.99169  1.0000
  C   C262      1.0  0.08822  0.29996  0.76791  1.0000
  C   C263      1.0  0.07812  0.25587  0.76570  1.0000
  C   C264      1.0  0.08590  0.13322  0.63278  1.0000
  H   H443      1.0  0.09373  0.10531  0.64347  1.0000
  H   H444      1.0  0.02796  0.47685  0.83404  1.0000
  H   H445      1.0  0.12427  0.26037  0.80138  1.0000
  C   C265      1.0  0.18490  0.30649  0.82070  1.0000
  C   C266      1.0  0.18107  0.17609  0.66944  1.0000
  C   C267      1.0  0.18424  0.23361  0.68217  1.0000
  N   N13       1.0  0.08143  0.28298  0.77582  1.0000
  H   H446      1.0  0.10728  0.26612  0.77819  1.0000
  H   H447      1.0  0.08948  0.49240  0.92982  1.0000
  H   H448      1.0  0.12082  0.47767  0.91065  1.0000
  H   H449      1.0  0.17980  0.15079  0.54450  1.0000
  H   H450      1.0  0.14123  0.08578  0.66683  1.0000
  H   H451      1.0  0.16988  0.41313  0.90790  1.0000
  H   H452      1.0  0.05274  0.28879  0.77802  1.0000
  C   C268      1.0  0.09300  0.11802  0.64711  1.0000
  H   H453      1.0  0.02911  0.10412  0.55129  1.0000
  C   C269      1.0  0.03319  0.44440  0.85493  1.0000
  N   N14       1.0  0.00186  0.38564  0.98279  1.0000
  C   C270      1.0  0.15584  0.01572  0.53161  1.0000
  C   C271      1.0  0.09399  0.26998  0.78692  1.0000
  H   H454      1.0  0.08123  0.08438  0.67769  1.0000
  H   H455      1.0  0.10316  0.08643  0.66744  1.0000
  H   H456      1.0  0.10672  0.11898  0.64669  1.0000
  H   H457      1.0  0.08666  0.05345  0.69534  1.0000
  H   H458      1.0  0.03000  0.11456  0.59413  1.0000
  H   H459      1.0  0.07051  0.12456  0.69854  1.0000
  C   C272      1.0  0.05530  0.33808  0.98458  1.0000
  C   C273      1.0  0.17897  0.09133  0.57255  1.0000
  C   C274      1.0  0.06251  0.28606  0.78663  1.0000
  C   C275      1.0  0.02851  0.10063  0.56587  1.0000
  S   S68       1.0  0.05286  0.17467  0.51926  1.0000
  H   H460      1.0  0.12315  0.47918  0.75337  1.0000
  Fe  Fe34      1.0  0.07732  0.48632  0.85385  1.0000
  C   C276      1.0  0.01376  0.22623  0.64329  1.0000
  H   H461      1.0  0.08916  0.25742  0.79316  1.0000
  H   H462      1.0  0.05492  0.31467  0.78691  1.0000
  C   C277      1.0  0.10044  0.05518  0.69358  1.0000
  C   C278      1.0  0.09583  0.10869  0.54009  1.0000
  H   H463      1.0  0.01124  0.16708  0.54378  1.0000
  C   C279      1.0  0.17611  0.24829  0.69333  1.0000
  H   H464      1.0  0.08777  0.13575  0.52640  1.0000
  H   H465      1.0  0.01171  0.10296  0.63027  1.0000
  C   C280      1.0  0.04195  0.12977  0.51280  1.0000
  C   C281      1.0  0.14114  0.14698  0.64241  1.0000
  H   H466      1.0  0.06010  0.27367  0.79658  1.0000
  H   H467      1.0  0.10155  0.28888  0.79792  1.0000
  H   H468      1.0  0.12107  0.03345  0.51021  1.0000
  Fe  Fe35      1.0  0.15884  0.49188  0.91726  1.0000
  C   C282      1.0  0.04721  0.14147  0.51987  1.0000
  C   C283      1.0  0.06173  0.39917  0.98856  1.0000
  C   C284      1.0  0.18796  0.27982  0.90157  1.0000
  H   H469      1.0  0.13790  0.48812  0.85691  1.0000
  H   H470      1.0  0.10983  0.18570  0.50535  1.0000
  C   C285      1.0  0.14975  0.27096  0.85375  1.0000
  H   H471      1.0  0.16097  0.20198  0.53921  1.0000
  H   H472      1.0  0.11406  0.07465  0.69431  1.0000
  S   S69       1.0  0.18265  0.35862  0.93478  1.0000
  C   C286      1.0  0.05656  0.30168  0.79654  1.0000
  C   C287      1.0  0.09706  0.27610  0.80244  1.0000
  C   C288      1.0  0.09284  0.08814  0.67970  1.0000
  H   H473      1.0  0.06841  0.11460  0.66508  1.0000
  H   H474      1.0  0.16811  0.21312  0.59091  1.0000
  C   C289      1.0  0.19430  0.41269  0.93151  1.0000
  N   N15       1.0  0.01545  0.11500  0.57463  1.0000
  C   C290      1.0  0.15512  0.41983  0.81476  1.0000
  H   H475      1.0  0.16280  0.39211  0.84616  1.0000
  C   C291      1.0  0.11138  0.26229  0.81119  1.0000
  H   H476      1.0  0.06631  0.30167  0.80408  1.0000
  C   C292      1.0  0.08045  0.11866  0.66569  1.0000
  H   H477      1.0  0.10828  0.05248  0.68045  1.0000
  H   H478      1.0  0.09503  0.03831  0.54405  1.0000
  N   N16       1.0  0.00701  0.49424  0.84880  1.0000
  H   H479      1.0  0.05905  0.08975  0.70035  1.0000
  S   S70       1.0  0.05645  0.48957  0.87868  1.0000
  H   H480      1.0  0.08468  0.27738  0.81290  1.0000
  H   H481      1.0  0.10728  0.24930  0.81672  1.0000
  H   H482      1.0  0.02817  0.30163  0.80252  1.0000
  H   H483      1.0  0.11635  0.10692  0.67227  1.0000
  H   H484      1.0  0.13273  0.31246  0.97377  1.0000
  H   H485      1.0  0.13147  0.20789  0.55960  1.0000
  C   C293      1.0  0.03730  0.16588  0.49681  1.0000
  H   H486      1.0  0.17985  0.05567  0.58590  1.0000
  H   H487      1.0  0.15506  0.04772  0.51041  1.0000
  C   C294      1.0  0.15726  0.19131  0.55076  1.0000
  C   C295      1.0  0.03863  0.30102  0.80959  1.0000
  H   H488      1.0  0.11342  0.26697  0.82222  1.0000
  C   C296      1.0  0.05643  0.10413  0.70036  1.0000
  C   C297      1.0  0.03409  0.13607  0.49783  1.0000
  H   H489      1.0  0.03452  0.31259  0.81609  1.0000
  H   H490      1.0  0.03973  0.28862  0.82010  1.0000
  C   C298      1.0  0.10014  0.07399  0.69502  1.0000
  H   H491      1.0  0.11251  0.45459  0.89018  1.0000
  H   H492      1.0  0.02082  0.17632  0.63531  1.0000
  H   H493      1.0  0.09191  0.07579  0.70825  1.0000
  H   H494      1.0  0.07181  0.45370  0.87428  1.0000
  H   H495      1.0  0.12762  0.05497  0.52512  1.0000
  C   C299      1.0  0.07405  0.11017  0.69806  1.0000
  C   C300      1.0  0.10457  0.11354  0.68109  1.0000
  H   H496      1.0  0.02543  0.16700  0.55801  1.0000
  H   H497      1.0  0.15932  0.09627  0.52866  1.0000
  N   N17       1.0  0.08810  0.10728  0.68149  1.0000
  H   H498      1.0  0.07590  0.13283  0.66706  1.0000
  C   C301      1.0  0.19536  0.18982  0.53211  1.0000
  H   H499      1.0  0.12824  0.12922  0.68836  1.0000
  H   H500      1.0  0.16839  0.29138  0.64913  1.0000
  H   H501      1.0  0.17501  0.26459  0.72158  1.0000
  H   H502      1.0  0.11020  0.09745  0.70716  1.0000
  H   H503      1.0  0.04918  0.11185  0.68969  1.0000
  H   H504      1.0  0.02939  0.00159  0.57600  1.0000
  H   H505      1.0  0.16860  0.16773  0.56760  1.0000
  H   H506      1.0  0.10309  0.12807  0.67512  1.0000
  S   S71       1.0  0.15623  0.45751  0.96242  1.0000
  C   C302      1.0  0.17834  0.40815  0.94194  1.0000
  H   H507      1.0  0.02554  0.43929  0.84841  1.0000
  H   H508      1.0  0.18360  0.14845  0.50686  1.0000
  H   H509      1.0  0.16872  0.41740  0.94938  1.0000
  H   H510      1.0  0.02208  0.08281  0.59992  1.0000
  H   H511      1.0  0.06843  0.41045  0.98585  1.0000
  C   C303      1.0  0.16863  0.22607  0.61111  1.0000
  N   N18       1.0  0.13293  0.34352  0.98460  1.0000
  C   C304      1.0  0.18223  0.39557  0.73247  1.0000
  C   C305      1.0  0.17936  0.47079  0.74602  1.0000
  S   S72       1.0  0.18090  0.48341  0.93217  1.0000
  S   S73       1.0  0.15569  0.46430  0.91944  1.0000
  C   C306      1.0  0.17363  0.17924  0.55829  1.0000
  H   H512      1.0  0.18004  0.30329  0.70821  1.0000
  H   H513      1.0  0.02278  0.37606  0.96180  1.0000
  S   S74       1.0  0.16984  0.24296  0.63637  1.0000
  C   C307      1.0  0.10157  0.04954  0.53634  1.0000
  H   H514      1.0  0.09987  0.12049  0.70698  1.0000
  H   H515      1.0  0.13859  0.10585  0.68922  1.0000
  H   H516      1.0  0.14922  0.41004  0.81281  1.0000
  C   C308      1.0  0.17561  0.29195  0.71852  1.0000
  C   C309      1.0  0.14357  0.20043  0.56487  1.0000
  H   H517      1.0  0.17960  0.99662  0.52067  1.0000
  C   C310      1.0  0.04380  0.10695  0.71802  1.0000
  C   C311      1.0  0.12185  0.04319  0.53241  1.0000
  H   H518      1.0  0.03129  0.10266  0.71927  1.0000
  H   H519      1.0  0.13198  0.46424  0.88398  1.0000
  H   H520      1.0  0.16878  0.35321  0.97602  1.0000
  C   C312      1.0  0.11123  0.47371  0.90556  1.0000
  H   H521      1.0  0.17407  0.46490  0.77994  1.0000
  C   C313      1.0  0.15872  0.07570  0.60846  1.0000
  H   H522      1.0  0.15436  0.02689  0.53810  1.0000
  C   C314      1.0  0.16264  0.04934  0.55831  1.0000
  H   H523      1.0  0.16334  0.03219  0.58416  1.0000
  H   H524      1.0  0.04804  0.00420  0.55761  1.0000
  H   H525      1.0  0.02406  0.36616  0.99210  1.0000
  H   H526      1.0  0.17227  0.40899  0.70872  1.0000
  H   H527      1.0  0.15359  0.10520  0.59970  1.0000
  C   C315      1.0  0.15790  0.39749  0.89809  1.0000
  C   C316      1.0  0.16300  0.17680  0.63318  1.0000
  S   S75       1.0  0.11233  0.48497  0.81007  1.0000
  H   H528      1.0  0.16164  0.38522  0.90806  1.0000
  C   C317      1.0  0.01608  0.47591  0.84526  1.0000
  H   H529      1.0  0.15307  0.48362  0.80914  1.0000
  C   C318      1.0  0.01690  0.11243  0.59363  1.0000
  H   H530      1.0  0.00440  0.23595  0.66776  1.0000
  C   C319      1.0  0.16210  0.49074  0.79804  1.0000
  C   C320      1.0  0.18263  0.26085  0.85505  1.0000
  C   C321      1.0  0.14426  0.43350  0.82304  1.0000
  H   H531      1.0  0.02346  0.49407  0.86653  1.0000
  H   H532      1.0  0.00540  0.43915  0.97313  1.0000
  C   C322      1.0  0.13147  0.36336  0.98159  1.0000
  C   C323      1.0  0.15190  0.33540  0.97661  1.0000
  H   H533      1.0  0.18797  0.19431  0.52113  1.0000
  C   C324      1.0  0.12938  0.09808  0.61491  1.0000
  H   H534      1.0  0.12354  0.11239  0.61482  1.0000
  S   S76       1.0  0.12121  0.43476  0.82944  1.0000
  S   S77       1.0  0.16698  0.12335  0.49765  1.0000
  H   H535      1.0  0.15368  0.06612  0.62061  1.0000
  Fe  Fe36      1.0  0.15925  0.48600  0.95658  1.0000
  H   H536      1.0  0.01845  0.99761  0.51931  1.0000
  H   H537      1.0  0.15356  0.26972  0.83963  1.0000
  S   S78       1.0  0.18571  0.04311  0.55025  1.0000
  H   H538      1.0  0.06075  0.08804  0.54326  1.0000
  C   C325      1.0  0.19813  0.33429  0.72516  1.0000
  S   S79       1.0  0.19255  0.31762  0.91394  1.0000
  H   H539      1.0  0.18057  0.23641  0.88718  1.0000
  H   H540      1.0  0.18079  0.36081  0.84363  1.0000
  H   H541      1.0  0.14875  0.28496  0.85430  1.0000
  C   C326      1.0  0.16116  0.47282  0.77642  1.0000
  H   H542      1.0  0.16820  0.42154  0.88505  1.0000
  H   H543      1.0  0.14352  0.45664  0.83238  1.0000
  H   H544      1.0  0.18943  0.20967  0.91009  1.0000
  H   H545      1.0  0.10872  0.15396  0.51443  1.0000
  H   H546      1.0  0.01769  0.23967  0.60145  1.0000
  H   H547      1.0  0.08417  0.11057  0.55122  1.0000
  H   H548      1.0  0.05616  0.17343  0.64563  1.0000
  C   C327      1.0  0.17024  0.44537  0.81964  1.0000
  Fe  Fe37      1.0  0.17606  0.45583  0.93643  1.0000
  C   C328      1.0  0.15169  0.00685  0.50612  1.0000
  H   H549      1.0  0.18228  0.27542  0.85055  1.0000
  Fe  Fe38      1.0  0.10642  0.46233  0.83268  1.0000
  H   H550      1.0  0.09778  0.05982  0.54445  1.0000
  C   C329      1.0  0.17642  0.21758  0.59675  1.0000
  H   H551      1.0  0.18325  0.28856  0.72916  1.0000
  C   C330      1.0  0.02845  0.02197  0.61176  1.0000
  C   C331      1.0  0.04208  0.02144  0.62017  1.0000
  H   H552      1.0  0.19093  0.02168  0.59042  1.0000
  C   C332      1.0  0.16337  0.25834  0.86425  1.0000
  H   H553      1.0  0.16439  0.09264  0.57496  1.0000
  S   S80       1.0  0.18862  0.29820  0.80146  1.0000
  C   C333      1.0  0.18447  0.32654  0.97914  1.0000
  N   N19       1.0  0.17888  0.07169  0.60416  1.0000
  H   H554      1.0  0.16247  0.24449  0.86503  1.0000
  C   C334      1.0  0.06012  0.08296  0.55775  1.0000
  C   C335      1.0  0.04417  0.99820  0.57198  1.0000
  H   H555      1.0  0.13866  0.30495  0.64246  1.0000
  C   C336      1.0  0.18515  0.21497  0.69411  1.0000
  H   H556      1.0  0.15932  0.26072  0.87792  1.0000
  H   H557      1.0  0.17132  0.38365  0.87704  1.0000
  H   H558      1.0  0.18847  0.34029  0.79200  1.0000
  H   H559      1.0  0.16272  0.35848  0.90163  1.0000
  C   C337      1.0  0.16102  0.11617  0.64731  1.0000
  H   H560      1.0  0.15310  0.09709  0.62304  1.0000
  H   H561      1.0  0.00706  0.47025  0.84099  1.0000
  H   H562      1.0  0.19201  0.22572  0.86937  1.0000
  C   C338      1.0  0.12814  0.48862  0.75781  1.0000
  H   H563      1.0  0.14114  0.14785  0.65612  1.0000
  H   H564      1.0  0.02375  0.18758  0.65058  1.0000
  C   C339      1.0  0.16930  0.36762  0.83717  1.0000
  H   H565      1.0  0.17705  0.15737  0.78601  1.0000
  C   C340      1.0  0.09228  0.12234  0.52320  1.0000
  H   H566      1.0  0.19051  0.18429  0.66175  1.0000
  C   C341      1.0  0.18590  0.15760  0.67119  1.0000
  H   H567      1.0  0.16189  0.13429  0.62196  1.0000
  H   H568      1.0  0.05013  0.49510  0.94705  1.0000
  H   H569      1.0  0.19736  0.32544  0.75322  1.0000
  H   H570      1.0  0.15281  0.30030  0.66749  1.0000
  C   C342      1.0  0.15953  0.13506  0.63604  1.0000
  C   C343      1.0  0.99923  0.23013  0.65954  1.0000
  C   C344      1.0  0.00688  0.21849  0.63120  1.0000
  H   H571      1.0  0.17206  0.27913  0.88423  1.0000
  H   H572      1.0  0.17867  0.06088  0.63217  1.0000
  H   H573      1.0  0.17608  0.45526  0.82159  1.0000
  C   C345      1.0  0.16666  0.33964  0.98310  1.0000
  C   C346      1.0  0.19543  0.44532  0.88094  1.0000
  Fe  Fe39      1.0  0.18765  0.09794  0.50072  1.0000
  H   H574      1.0  0.14464  0.40465  0.90409  1.0000
  C   C347      1.0  0.14118  0.29148  0.65118  1.0000
  H   H575      1.0  0.14455  0.28142  0.64286  1.0000
  H   H576      1.0  0.01922  0.44036  0.95104  1.0000
  C   C348      1.0  0.18298  0.10913  0.56130  1.0000
  H   H577      1.0  0.19762  0.10797  0.55652  1.0000
  C   C349      1.0  0.18098  0.43221  0.81047  1.0000
  H   H578      1.0  0.10751  0.11024  0.54401  1.0000
  N   N20       1.0  0.17440  0.26743  0.68303  1.0000
  C   C350      1.0  0.18822  0.48676  0.74254  1.0000
  C   C351      1.0  0.16040  0.27086  0.67227  1.0000
  H   H579      1.0  0.19335  0.27184  0.70495  1.0000
  H   H580      1.0  0.17052  0.14023  0.63748  1.0000
  H   H581      1.0  0.14446  0.38685  0.84114  1.0000
  C   C352      1.0  0.17929  0.23196  0.61864  1.0000
  H   H582      1.0  0.12212  0.01687  0.52996  1.0000
  C   C353      1.0  0.18150  0.03750  0.61103  1.0000
  C   C354      1.0  0.15656  0.28952  0.66003  1.0000
  H   H583      1.0  0.16281  0.38780  0.95140  1.0000
  H   H584      1.0  0.12512  0.09459  0.60436  1.0000
  H   H585      1.0  0.16082  0.11617  0.66127  1.0000
  H   H586      1.0  0.01779  0.23896  0.63587  1.0000
  H   H587      1.0  0.00100  0.40939  0.99155  1.0000
  H   H588      1.0  0.15257  0.33702  0.92901  1.0000
  H   H589      1.0  0.16417  0.26146  0.66329  1.0000
  H   H590      1.0  0.05306  0.13646  0.53146  1.0000
  C   C355      1.0  0.00692  0.35914  0.94630  1.0000
  H   H591      1.0  0.16183  0.16757  0.64639  1.0000
  H   H592      1.0  0.14987  0.11051  0.64710  1.0000
  H   H593      1.0  0.00685  0.12276  0.60009  1.0000
  C   C356      1.0  0.18732  0.37938  0.93332  1.0000
  H   H594      1.0  0.04778  0.47564  0.94128  1.0000
  C   C357      1.0  0.01174  0.16649  0.55769  1.0000
  H   H595      1.0  0.17711  0.13284  0.68210  1.0000
  H   H596      1.0  0.17375  0.10753  0.64201  1.0000
  C   C358      1.0  0.18539  0.16197  0.53496  1.0000
  H   H597      1.0  0.10184  0.46758  0.91704  1.0000
  H   H598      1.0  0.00147  0.22961  0.58875  1.0000
  H   H599      1.0  0.19176  0.12996  0.52362  1.0000
  H   H600      1.0  0.18859  0.32652  0.96470  1.0000
  H   H601      1.0  0.10794  0.30595  0.96563  1.0000
  C   C359      1.0  0.17183  0.39795  0.72012  1.0000
  H   H602      1.0  0.09825  0.09496  0.53804  1.0000
  H   H603      1.0  0.15348  0.07333  0.59790  1.0000
  H   H604      1.0  0.11994  0.12438  0.51250  1.0000
  H   H605      1.0  0.12966  0.34797  0.92844  1.0000
  H   H606      1.0  0.07378  0.08009  0.56017  1.0000
  H   H607      1.0  0.18059  0.08308  0.62518  1.0000
  C   C360      1.0  0.14825  0.48768  0.74915  1.0000
  H   H608      1.0  0.19151  0.20112  0.53908  1.0000
  H   H609      1.0  0.18161  0.40870  0.80190  1.0000
  H   H610      1.0  0.18473  0.18164  0.61023  1.0000
  C   C361      1.0  0.17110  0.40920  0.89527  1.0000
  H   H611      1.0  0.09112  0.48517  0.88964  1.0000
  N   N21       1.0  0.16088  0.47199  0.75777  1.0000
  H   H612      1.0  0.01573  0.07914  0.63268  1.0000
  H   H613      1.0  0.16705  0.03763  0.61356  1.0000
  C   C362      1.0  0.17881  0.31827  0.85239  1.0000
  H   H614      1.0  0.03360  0.09054  0.62165  1.0000
  H   H615      1.0  0.06743  0.47515  0.94861  1.0000
  C   C363      1.0  0.15618  0.38118  0.84746  1.0000
  H   H616      1.0  0.18937  0.37968  0.75686  1.0000
  H   H617      1.0  0.18999  0.43533  0.89230  1.0000
  H   H618      1.0  0.18497  0.40176  0.89119  1.0000
  H   H619      1.0  0.14586  0.15322  0.51302  1.0000
  H   H620      1.0  0.02544  0.21698  0.64815  1.0000
  H   H621      1.0  0.00687  0.14991  0.58374  1.0000
  H   H622      1.0  0.07196  0.38695  0.98646  1.0000
  C   C364      1.0  0.00125  0.36304  0.96496  1.0000
  C   C365      1.0  0.18154  0.38130  0.74721  1.0000
  H   H623      1.0  0.00205  0.34737  0.94630  1.0000
  H   H624      1.0  0.17158  0.21314  0.70157  1.0000
  H   H625      1.0  0.18541  0.04188  0.67402  1.0000
  H   H626      1.0  0.19813  0.27092  0.90903  1.0000
  H   H627      1.0  0.15407  0.32073  0.97879  1.0000
  H   H628      1.0  0.11659  0.32383  0.94943  1.0000
  C   C366      1.0  0.18946  0.15999  0.77630  1.0000
  H   H629      1.0  0.16252  0.35742  0.83652  1.0000
  C   C367      1.0  0.01663  0.43165  0.96449  1.0000
  H   H630      1.0  0.13592  0.36912  0.96714  1.0000
  H   H631      1.0  0.18896  0.18177  0.63118  1.0000
  H   H632      1.0  0.17162  0.02383  0.66271  1.0000
  C   C368      1.0  0.19346  0.23440  0.87750  1.0000
  H   H633      1.0  0.18974  0.16098  0.62595  1.0000
  C   C369      1.0  0.10928  0.31993  0.96334  1.0000
  S   S81       1.0  0.19730  0.08899  0.52606  1.0000
  C   C370      1.0  0.17501  0.39140  0.94306  1.0000
  H   H634      1.0  0.16145  0.36205  0.87116  1.0000
  H   H635      1.0  0.18831  0.14594  0.57652  1.0000
  C   C371      1.0  0.13771  0.00657  0.49592  1.0000
  C   C372      1.0  0.01969  0.13275  0.56435  1.0000
  C   C373      1.0  0.19493  0.21459  0.59015  1.0000
  Fe  Fe40      1.0  0.08264  0.49401  0.81388  1.0000
  N   N22       1.0  0.19004  0.17321  0.54474  1.0000
  C   C374      1.0  0.18512  0.07020  0.62082  1.0000
  H   H636      1.0  0.01037  0.45788  0.87120  1.0000
  H   H637      1.0  0.08532  0.15442  0.49887  1.0000
  H   H638      1.0  0.99972  0.09360  0.60872  1.0000
  H   H639      1.0  0.19350  0.36185  0.78821  1.0000
  H   H640      1.0  0.05315  0.40226  0.97880  1.0000
  H   H641      1.0  0.19081  0.20480  0.68580  1.0000
  H   H642      1.0  0.17722  0.11976  0.56903  1.0000
  H   H643      1.0  0.18414  0.45619  0.87715  1.0000
  H   H644      1.0  0.19470  0.13519  0.76844  1.0000
  H   H645      1.0  0.19392  0.26550  0.65852  1.0000
  H   H646      1.0  0.14994  0.48745  0.73489  1.0000
  H   H647      1.0  0.18745  0.00892  0.61301  1.0000
  C   C375      1.0  0.18602  0.08632  0.58995  1.0000
  H   H648      1.0  0.00129  0.37070  0.93654  1.0000
  H   H649      1.0  0.18351  0.09849  0.59530  1.0000
  H   H650      1.0  0.17097  0.03227  0.49908  1.0000
  H   H651      1.0  0.08488  0.00188  0.60888  1.0000
  C   C376      1.0  0.19522  0.14151  0.51308  1.0000
  H   H652      1.0  0.00238  0.00396  0.50536  1.0000
  C   C377      1.0  0.19625  0.28883  0.66629  1.0000
  H   H653      1.0  0.19378  0.21273  0.70367  1.0000
  H   H654      1.0  0.00001  0.20765  0.63957  1.0000
  H   H655      1.0  0.00185  0.47923  0.88626  1.0000
  H   H656      1.0  0.19340  0.29141  0.89286  1.0000
  H   H657      1.0  0.19277  0.10893  0.75154  1.0000
  Fe  Fe41      1.0  0.19538  0.32818  0.88453  1.0000
  H   H658      1.0  0.08808  0.18308  0.50544  1.0000
  H   H659      1.0  0.11204  0.31633  0.99001  1.0000
  H   H660      1.0  0.16493  0.00603  0.49673  1.0000
  H   H661      1.0  0.19482  0.40574  0.85799  1.0000
  H   H662      1.0  0.18495  0.03612  0.62392  1.0000
  H   H663      1.0  0.19615  0.43302  0.85988  1.0000
  N   N23       1.0  0.19711  0.25186  0.86554  1.0000
  H   H664      1.0  0.18542  0.08087  0.56469  1.0000
  H   H665      1.0  0.19495  0.33058  0.98296  1.0000
  C   C378      1.0  0.19226  0.02079  0.60412  1.0000
  H   H666      1.0  0.11057  0.49379  0.88138  1.0000
  H   H667      1.0  0.00000  0.41889  0.95723  1.0000
  C   C379      1.0  0.19776  0.22928  0.61181  1.0000
  H   H668      1.0  0.19659  0.11364  0.72765  1.0000
  H   H669      1.0  0.12409  0.15875  0.49356  1.0000
  S   S82       1.0  0.08512  0.95787  0.31019  1.0000
  H   H670      1.0  0.12421  0.74607  0.09155  1.0000
  H   H671      1.0  0.19370  0.55125  0.07418  1.0000
  H   H672      1.0  0.19171  0.74964  0.36627  1.0000
  H   H673      1.0  0.04860  0.94415  0.46734  1.0000
  Fe  Fe42      1.0  0.08233  0.88771  0.39001  1.0000
  S   S83       1.0  0.11011  0.89095  0.37597  1.0000
  S   S84       1.0  0.05892  0.90965  0.38446  1.0000
  Fe  Fe43      1.0  0.09398  0.85061  0.41022  1.0000
  S   S85       1.0  0.12258  0.85076  0.39778  1.0000
  S   S86       1.0  0.09010  0.82475  0.42929  1.0000
  Fe  Fe44      1.0  0.11662  0.87821  0.40280  1.0000
  S   S87       1.0  0.13857  0.88215  0.41331  1.0000
  Fe  Fe45      1.0  0.11378  0.86323  0.37211  1.0000
  S   S88       1.0  0.13244  0.85481  0.34752  1.0000
  S   S89       1.0  0.08844  0.87721  0.41725  1.0000
  S   S90       1.0  0.08541  0.86097  0.38403  1.0000
  Fe  Fe46      1.0  0.14562  0.79674  0.28095  1.0000
  S   S91       1.0  0.16323  0.76938  0.28016  1.0000
  S   S92       1.0  0.12294  0.80320  0.30418  1.0000
  Fe  Fe47      1.0  0.16595  0.81351  0.24526  1.0000
  H   H674      1.0  0.09222  0.62381  0.99982  1.0000
  S   S93       1.0  0.16800  0.83924  0.22559  1.0000
  Fe  Fe48      1.0  0.16153  0.77561  0.25121  1.0000
  S   S94       1.0  0.16455  0.75636  0.23354  1.0000
  H   H675      1.0  0.12450  0.51344  0.09268  1.0000
  S   S95       1.0  0.12548  0.50747  0.16013  1.0000
  S   S96       1.0  0.14181  0.80167  0.25286  1.0000
  S   S97       1.0  0.16817  0.81087  0.27307  1.0000
  C   C380      1.0  0.14372  0.72772  0.06790  1.0000
  H   H676      1.0  0.14556  0.51548  0.01797  1.0000
  S   S98       1.0  0.13623  0.94695  0.44600  1.0000
  H   H677      1.0  0.12230  0.54675  0.10128  1.0000
  H   H678      1.0  0.06117  0.90101  0.44981  1.0000
  S   S99       1.0  0.17841  0.62660  0.21627  1.0000
  H   H679      1.0  0.17291  0.73090  0.33251  1.0000
  H   H680      1.0  0.15634  0.66581  0.03249  1.0000
  Fe  Fe49      1.0  0.11786  0.53386  0.16866  1.0000
  S   S100      1.0  0.12543  0.54495  0.18846  1.0000
  Fe  Fe50      1.0  0.09407  0.55105  0.14161  1.0000
  S   S101      1.0  0.10037  0.52685  0.13013  1.0000
  S   S102      1.0  0.07348  0.57515  0.13279  1.0000
  Fe  Fe51      1.0  0.12837  0.52442  0.13244  1.0000
  S   S103      1.0  0.15199  0.51866  0.11035  1.0000
  S   S104      1.0  0.08863  0.53635  0.16990  1.0000
  S   S105      1.0  0.12256  0.55024  0.14097  1.0000
  Fe  Fe52      1.0  0.06171  0.66613  0.03340  1.0000
  S   S106      1.0  0.06362  0.69470  0.02940  1.0000
  S   S107      1.0  0.04324  0.65463  0.02411  1.0000
  Fe  Fe53      1.0  0.09050  0.65257  0.05573  1.0000
  S   S108      1.0  0.09499  0.67964  0.05324  1.0000
  S   S109      1.0  0.10904  0.63032  0.07006  1.0000
  Fe  Fe54      1.0  0.06531  0.68795  0.05831  1.0000
  S   S110      1.0  0.04975  0.70545  0.07773  1.0000
  Fe  Fe55      1.0  0.09329  0.68392  0.02490  1.0000
  S   S111      1.0  0.00369  0.90563  0.48184  1.0000
  S   S112      1.0  0.06068  0.66040  0.06291  1.0000
  S   S113      1.0  0.09134  0.65600  0.02677  1.0000
  Fe  Fe56      1.0  0.10017  0.72430  0.14455  1.0000
  S   S114      1.0  0.10442  0.74885  0.15007  1.0000
  S   S115      1.0  0.07387  0.72389  0.13906  1.0000
  Fe  Fe57      1.0  0.13658  0.70332  0.14979  1.0000
  S   S116      1.0  0.14470  0.72583  0.15532  1.0000
  S   S117      1.0  0.15437  0.67669  0.14717  1.0000
  Fe  Fe58      1.0  0.11710  0.73075  0.17227  1.0000
  S   S118      1.0  0.11045  0.73805  0.19928  1.0000
  Fe  Fe59      1.0  0.13160  0.74239  0.13290  1.0000
  S   S119      1.0  0.14185  0.76509  0.11300  1.0000
  S   S120      1.0  0.11004  0.70660  0.16864  1.0000
  S   S121      1.0  0.12632  0.71946  0.12549  1.0000
  H   H681      1.0  0.02524  0.58548  0.08624  1.0000
  S   S122      1.0  0.14298  0.57674  0.04025  1.0000
  C   C381      1.0  0.15947  0.75823  0.09607  1.0000
  C   C382      1.0  0.16403  0.77078  0.08054  1.0000
  C   C383      1.0  0.02121  0.98202  0.38072  1.0000
  H   H682      1.0  0.15716  0.78461  0.07946  1.0000
  C   C384      1.0  0.06664  0.82768  0.48765  1.0000
  H   H683      1.0  0.10548  0.60256  0.99698  1.0000
  C   C385      1.0  0.06145  0.66350  0.13291  1.0000
  H   H684      1.0  0.09969  0.88009  0.44755  1.0000
  H   H685      1.0  0.08074  0.80034  0.49323  1.0000
  S   S123      1.0  0.16190  0.98439  0.43749  1.0000
  H   H686      1.0  0.00552  0.66424  0.04751  1.0000
  H   H687      1.0  0.12743  0.65981  0.01856  1.0000
  C   C386      1.0  0.05788  0.70995  0.09421  1.0000
  C   C387      1.0  0.07602  0.70566  0.09493  1.0000
  C   C388      1.0  0.08152  0.71016  0.10831  1.0000
  C   C389      1.0  0.06874  0.71851  0.12121  1.0000
  C   C390      1.0  0.05073  0.72242  0.12048  1.0000
  C   C391      1.0  0.04538  0.71836  0.10704  1.0000
  H   H688      1.0  0.08571  0.69893  0.08520  1.0000
  H   H689      1.0  0.09546  0.70691  0.10887  1.0000
  H   H690      1.0  0.04077  0.72882  0.13035  1.0000
  H   H691      1.0  0.03137  0.72172  0.10664  1.0000
  C   C392      1.0  0.08305  0.59024  0.11489  1.0000
  C   C393      1.0  0.10137  0.58653  0.10797  1.0000
  C   C394      1.0  0.10920  0.59895  0.09427  1.0000
  C   C395      1.0  0.09868  0.61499  0.08707  1.0000
  C   C396      1.0  0.08025  0.61863  0.09377  1.0000
  C   C397      1.0  0.07242  0.60628  0.10775  1.0000
  H   H692      1.0  0.10958  0.57409  0.11313  1.0000
  H   H693      1.0  0.12340  0.59595  0.08914  1.0000
  H   H694      1.0  0.07205  0.63103  0.08844  1.0000
  H   H695      1.0  0.05821  0.60923  0.11317  1.0000
  C   C398      1.0  0.14985  0.53550  0.09130  1.0000
  C   C399      1.0  0.16437  0.53664  0.07688  1.0000
  C   C400      1.0  0.16253  0.54974  0.06137  1.0000
  C   C401      1.0  0.14607  0.56137  0.06005  1.0000
  C   C402      1.0  0.13160  0.56027  0.07452  1.0000
  C   C403      1.0  0.13355  0.54750  0.09020  1.0000
  H   H696      1.0  0.17695  0.52725  0.07764  1.0000
  H   H697      1.0  0.17367  0.55040  0.05025  1.0000
  C   C404      1.0  0.14709  0.54509  0.19040  1.0000
  C   C405      1.0  0.14888  0.55709  0.19953  1.0000
  C   C406      1.0  0.16566  0.55708  0.20222  1.0000
  C   C407      1.0  0.18083  0.54477  0.19613  1.0000
  C   C408      1.0  0.17905  0.53280  0.18695  1.0000
  C   C409      1.0  0.16233  0.53313  0.18385  1.0000
  H   H698      1.0  0.13716  0.56628  0.20479  1.0000
  H   H699      1.0  0.16680  0.56629  0.20939  1.0000
  H   H700      1.0  0.16601  0.55325  0.11021  1.0000
  H   H701      1.0  0.16114  0.52371  0.17696  1.0000
  C   C410      1.0  0.17174  0.64094  0.19722  1.0000
  C   C411      1.0  0.18326  0.64107  0.18060  1.0000
  C   C412      1.0  0.17786  0.65241  0.16538  1.0000
  C   C413      1.0  0.16105  0.66383  0.16671  1.0000
  C   C414      1.0  0.14959  0.66405  0.18338  1.0000
  C   C415      1.0  0.15487  0.65241  0.19861  1.0000
  Fe  Fe60      1.0  0.11019  0.99273  0.33830  1.0000
  C   C416      1.0  0.13644  0.86527  0.47615  1.0000
  H   H702      1.0  0.13646  0.67270  0.18446  1.0000
  H   H703      1.0  0.14574  0.65194  0.21141  1.0000
  C   C417      1.0  0.14841  0.75423  0.22323  1.0000
  C   C418      1.0  0.15374  0.75156  0.20572  1.0000
  C   C419      1.0  0.14199  0.74741  0.19784  1.0000
  C   C420      1.0  0.12487  0.74561  0.20757  1.0000
  C   C421      1.0  0.11935  0.74892  0.22484  1.0000
  C   C422      1.0  0.13104  0.75326  0.23264  1.0000
  H   H704      1.0  0.16712  0.75243  0.19830  1.0000
  H   H705      1.0  0.14634  0.74498  0.18451  1.0000
  H   H706      1.0  0.10612  0.74759  0.23244  1.0000
  H   H707      1.0  0.12682  0.75513  0.24619  1.0000
  H   H708      1.0  0.18531  0.71413  0.15456  1.0000
  H   H709      1.0  0.11923  0.70870  0.23143  1.0000
  H   H710      1.0  0.09615  0.60294  0.16270  1.0000
  C   C423      1.0  0.14462  0.97165  0.27224  1.0000
  C   C424      1.0  0.17641  0.65292  0.04820  1.0000
  H   H711      1.0  0.15876  0.82598  0.16544  1.0000
  C   C425      1.0  0.15623  0.69600  0.08258  1.0000
  S   S124      1.0  0.08296  0.99424  0.33501  1.0000
  H   H712      1.0  0.17463  0.80298  0.33084  1.0000
  H   H713      1.0  0.17956  0.78732  0.30657  1.0000
  C   C426      1.0  0.08076  0.82623  0.45161  1.0000
  C   C427      1.0  0.08444  0.81119  0.46503  1.0000
  H   H714      1.0  0.06551  0.65892  0.17183  1.0000
  C   C428      1.0  0.06981  0.84201  0.45623  1.0000
  H   H715      1.0  0.09280  0.79894  0.46154  1.0000
  C   C429      1.0  0.10118  0.76274  0.08185  1.0000
  H   H716      1.0  0.06659  0.85357  0.44593  1.0000
  C   C430      1.0  0.13725  0.90040  0.42231  1.0000
  C   C431      1.0  0.12152  0.91327  0.42526  1.0000
  C   C432      1.0  0.12114  0.92743  0.43282  1.0000
  C   C433      1.0  0.13665  0.92906  0.43684  1.0000
  C   C434      1.0  0.15235  0.91619  0.43381  1.0000
  C   C435      1.0  0.15251  0.90174  0.42693  1.0000
  H   H717      1.0  0.10978  0.91240  0.42155  1.0000
  H   H718      1.0  0.10898  0.93740  0.43509  1.0000
  H   H719      1.0  0.12996  0.60773  0.00741  1.0000
  H   H720      1.0  0.16455  0.89159  0.42507  1.0000
  C   C436      1.0  0.12913  0.84048  0.33595  1.0000
  C   C437      1.0  0.14399  0.83204  0.32491  1.0000
  C   C438      1.0  0.14212  0.82072  0.31516  1.0000
  C   C439      1.0  0.12534  0.81783  0.31612  1.0000
  C   C440      1.0  0.11038  0.82626  0.32725  1.0000
  C   C441      1.0  0.11227  0.83760  0.33713  1.0000
  H   H721      1.0  0.15710  0.83409  0.32407  1.0000
  H   H722      1.0  0.15380  0.81384  0.30733  1.0000
  H   H723      1.0  0.09732  0.82410  0.32812  1.0000
  H   H724      1.0  0.10071  0.84433  0.34540  1.0000
  H   H725      1.0  0.19324  0.52907  0.13214  1.0000
  H   H726      1.0  0.01463  0.99323  0.37124  1.0000
  H   H727      1.0  0.13445  0.85600  0.48924  1.0000
  C   C442      1.0  0.18003  0.54676  0.11113  1.0000
  H   H728      1.0  0.19189  0.71960  0.31817  1.0000
  H   H729      1.0  0.04222  0.52516  0.16063  1.0000
  C   C443      1.0  0.09200  0.86746  0.49289  1.0000
  C   C444      1.0  0.19444  0.83462  0.42603  1.0000
  H   H730      1.0  0.17550  0.84691  0.35795  1.0000
  H   H731      1.0  0.16936  0.96379  0.31271  1.0000
  C   C445      1.0  0.07812  0.94440  0.33086  1.0000
  C   C446      1.0  0.06712  0.93288  0.33228  1.0000
  C   C447      1.0  0.06098  0.92240  0.34884  1.0000
  C   C448      1.0  0.06619  0.92314  0.36392  1.0000
  C   C449      1.0  0.07740  0.93447  0.36251  1.0000
  C   C450      1.0  0.08326  0.94522  0.34598  1.0000
  H   H732      1.0  0.06331  0.93208  0.32056  1.0000
  H   H733      1.0  0.05247  0.91349  0.34992  1.0000
  H   H734      1.0  0.08156  0.93494  0.37415  1.0000
  H   H735      1.0  0.09197  0.95392  0.34491  1.0000
  C   C451      1.0  0.14995  0.95632  0.26511  1.0000
  H   H736      1.0  0.14145  0.94680  0.26903  1.0000
  H   H737      1.0  0.01711  0.94174  0.47757  1.0000
  H   H738      1.0  0.12365  0.92442  0.31648  1.0000
  H   H739      1.0  0.10402  0.54260  0.07431  1.0000
  H   H740      1.0  0.17385  0.56973  0.16034  1.0000
  C   C452      1.0  0.18550  0.70717  0.21153  1.0000
  H   H741      1.0  0.12163  0.66312  0.09096  1.0000
  C   C453      1.0  0.04299  0.60293  0.08193  1.0000
  H   H742      1.0  0.13576  0.70364  0.06762  1.0000
  C   C454      1.0  0.08289  0.66906  0.14634  1.0000
  C   C455      1.0  0.03475  0.64475  0.99754  1.0000
  H   H743      1.0  0.09465  0.76526  0.07053  1.0000
  H   H744      1.0  0.10721  0.71686  0.06963  1.0000
  H   H745      1.0  0.16722  0.71207  0.18615  1.0000
  H   H746      1.0  0.15331  0.72586  0.05522  1.0000
  N   N24       1.0  0.17488  0.69477  0.21009  1.0000
  C   C456      1.0  0.05606  0.65380  0.12148  1.0000
  H   H747      1.0  0.08318  0.68250  0.13759  1.0000
  H   H748      1.0  0.19537  0.59797  0.08875  1.0000
  C   C457      1.0  0.08690  0.76170  0.09906  1.0000
  H   H749      1.0  0.03337  0.57948  0.11450  1.0000
  C   C458      1.0  0.19339  0.78744  0.19473  1.0000
  H   H750      1.0  0.12899  0.70933  0.08922  1.0000
  C   C459      1.0  0.11301  0.65538  0.11979  1.0000
  H   H751      1.0  0.01576  0.55892  0.11592  1.0000
  S   S125      1.0  0.17341  0.93306  0.24577  1.0000
  H   H752      1.0  0.11731  0.75399  0.43273  1.0000
  H   H753      1.0  0.07705  0.77459  0.09878  1.0000
  C   C460      1.0  0.11837  0.73972  0.05225  1.0000
  H   H754      1.0  0.09161  0.73778  0.06884  1.0000
  N   N25       1.0  0.12799  0.74287  0.06466  1.0000
  C   C461      1.0  0.15257  0.77744  0.02861  1.0000
  H   H755      1.0  0.16513  0.73065  0.10963  1.0000
  H   H756      1.0  0.15059  0.97968  0.49162  1.0000
  C   C462      1.0  0.12380  0.76474  0.43255  1.0000
  C   C463      1.0  0.10668  0.60959  0.02832  1.0000
  H   H757      1.0  0.13611  0.83607  0.17216  1.0000
  H   H758      1.0  0.05338  0.93435  0.41181  1.0000
  H   H759      1.0  0.08221  0.54863  0.10127  1.0000
  H   H760      1.0  0.19648  0.67853  0.17993  1.0000
  H   H761      1.0  0.09300  0.75884  0.11077  1.0000
  H   H762      1.0  0.13932  0.65187  0.10263  1.0000
  C   C464      1.0  0.12135  0.79959  0.21739  1.0000
  H   H763      1.0  0.09274  0.64792  0.11166  1.0000
  C   C465      1.0  0.10449  0.80601  0.23062  1.0000
  H   H764      1.0  0.15140  0.77758  0.32932  1.0000
  H   H765      1.0  0.10969  0.73405  0.08923  1.0000
  H   H766      1.0  0.11765  0.82509  0.19879  1.0000
  H   H767      1.0  0.07970  0.75110  0.10054  1.0000
  C   C466      1.0  0.11608  0.74553  0.08240  1.0000
  H   H768      1.0  0.09280  0.61746  0.03116  1.0000
  H   H769      1.0  0.13126  0.79094  0.22519  1.0000
  H   H770      1.0  0.11781  0.79129  0.21031  1.0000
  H   H771      1.0  0.05745  0.60229  0.08016  1.0000
  S   S126      1.0  0.18551  0.78809  0.24191  1.0000
  C   C467      1.0  0.07539  0.67996  0.17520  1.0000
  H   H772      1.0  0.10720  0.81430  0.23832  1.0000
  H   H773      1.0  0.09368  0.81391  0.22355  1.0000
  H   H774      1.0  0.09986  0.79431  0.24010  1.0000
  N   N26       1.0  0.16424  0.60713  0.15212  1.0000
  C   C468      1.0  0.18240  0.59523  0.14756  1.0000
  C   C469      1.0  0.16525  0.62602  0.14235  1.0000
  C   C470      1.0  0.16016  0.60674  0.17182  1.0000
  C   C471      1.0  0.14937  0.60143  0.14815  1.0000
  C   C472      1.0  0.15418  0.59216  0.13228  1.0000
  H   H775      1.0  0.14041  0.78563  0.02381  1.0000
  C   C473      1.0  0.14277  0.61951  0.17903  1.0000
  C   C474      1.0  0.17051  0.62950  0.12178  1.0000
  C   C475      1.0  0.02649  0.94911  0.39216  1.0000
  C   C476      1.0  0.13752  0.59209  0.12634  1.0000
  C   C477      1.0  0.14505  0.99301  0.48402  1.0000
  C   C478      1.0  0.13798  0.61498  0.19937  1.0000
  H   H776      1.0  0.13882  0.73293  0.00936  1.0000
  H   H777      1.0  0.18272  0.60506  0.06423  1.0000
  H   H778      1.0  0.15227  0.63540  0.14560  1.0000
  H   H779      1.0  0.17507  0.63040  0.14686  1.0000
  H   H780      1.0  0.17133  0.60988  0.17546  1.0000
  H   H781      1.0  0.15894  0.59313  0.17967  1.0000
  H   H782      1.0  0.14350  0.59184  0.15986  1.0000
  H   H783      1.0  0.13813  0.61309  0.14602  1.0000
  H   H784      1.0  0.16094  0.57808  0.13640  1.0000
  H   H785      1.0  0.16311  0.59860  0.12064  1.0000
  H   H786      1.0  0.05647  0.97407  0.44017  1.0000
  H   H787      1.0  0.18633  0.69487  0.23979  1.0000
  H   H788      1.0  0.13129  0.61875  0.17417  1.0000
  H   H789      1.0  0.14455  0.63345  0.17483  1.0000
  C   C479      1.0  0.18896  0.69936  0.15830  1.0000
  H   H790      1.0  0.15983  0.62765  0.11645  1.0000
  H   H791      1.0  0.16386  0.77635  0.01694  1.0000
  H   H792      1.0  0.11424  0.88804  0.47928  1.0000
  H   H793      1.0  0.00391  0.53508  0.09849  1.0000
  H   H794      1.0  0.12742  0.58716  0.13794  1.0000
  H   H795      1.0  0.13172  0.60570  0.11955  1.0000
  H   H796      1.0  0.14098  0.58314  0.11687  1.0000
  C   C480      1.0  0.17481  0.97266  0.31741  1.0000
  H   H797      1.0  0.16234  0.77279  0.34757  1.0000
  H   H798      1.0  0.18861  0.72118  0.08431  1.0000
  H   H799      1.0  0.12633  0.62509  0.20425  1.0000
  H   H800      1.0  0.13449  0.60167  0.20427  1.0000
  H   H801      1.0  0.14933  0.61490  0.20496  1.0000
  H   H802      1.0  0.03415  0.65602  0.10920  1.0000
  H   H803      1.0  0.13460  0.93644  0.39270  1.0000
  C   C481      1.0  0.03562  0.55056  0.14219  1.0000
  H   H804      1.0  0.16234  0.86590  0.17830  1.0000
  C   C482      1.0  0.14823  0.82831  0.17738  1.0000
  C   C483      1.0  0.13967  0.70906  0.07705  1.0000
  H   H805      1.0  0.16230  0.80741  0.20719  1.0000
  C   C484      1.0  0.16742  0.66955  0.03577  1.0000
  H   H806      1.0  0.03883  0.61077  0.06938  1.0000
  H   H807      1.0  0.12792  0.53599  0.04818  1.0000
  H   H808      1.0  0.16990  0.98665  0.31087  1.0000
  H   H809      1.0  0.11167  0.55697  0.02626  1.0000
  H   H810      1.0  0.17219  0.71665  0.23614  1.0000
  N   N27       1.0  0.14456  0.81097  0.18958  1.0000
  H   H811      1.0  0.15224  0.97406  0.33987  1.0000
  H   H812      1.0  0.16268  0.75085  0.04173  1.0000
  H   H813      1.0  0.08163  0.62293  0.12898  1.0000
  H   H814      1.0  0.12551  0.97492  0.39829  1.0000
  H   H815      1.0  0.15725  0.78763  0.20642  1.0000
  H   H816      1.0  0.03628  0.92139  0.41998  1.0000
  H   H817      1.0  0.14753  0.51905  0.06402  1.0000
  H   H818      1.0  0.02811  0.94436  0.33555  1.0000
  H   H819      1.0  0.09467  0.59316  0.14554  1.0000
  H   H820      1.0  0.05963  0.67793  0.12625  1.0000
  H   H821      1.0  0.10701  0.77437  0.08036  1.0000
  H   H822      1.0  0.15019  0.78814  0.13835  1.0000
  H   H823      1.0  0.16739  0.69464  0.07083  1.0000
  H   H824      1.0  0.15305  0.68273  0.08900  1.0000
  C   C485      1.0  0.08860  0.60443  0.15238  1.0000
  H   H825      1.0  0.10634  0.59537  0.03020  1.0000
  H   H826      1.0  0.17851  0.66679  0.21066  1.0000
  Fe  Fe61      1.0  0.09653  0.97915  0.31357  1.0000
  H   H827      1.0  0.08083  0.90823  0.43540  1.0000
  C   C486      1.0  0.01370  0.94659  0.34193  1.0000
  C   C487      1.0  0.04941  0.54495  0.12575  1.0000
  C   C488      1.0  0.10290  0.72974  0.06081  1.0000
  H   H828      1.0  0.08757  0.67109  0.17946  1.0000
  H   H829      1.0  0.04469  0.96281  0.30983  1.0000
  C   C489      1.0  0.12882  0.99150  0.37192  1.0000
  C   C490      1.0  0.06881  0.67172  0.16368  1.0000
  H   H830      1.0  0.16091  0.67982  0.04391  1.0000
  N   N28       1.0  0.11952  0.79198  0.38447  1.0000
  C   C491      1.0  0.13051  0.77809  0.37397  1.0000
  C   C492      1.0  0.11480  0.78309  0.40387  1.0000
  C   C493      1.0  0.10227  0.79958  0.37798  1.0000
  C   C494      1.0  0.12874  0.80696  0.38218  1.0000
  C   C495      1.0  0.14949  0.80216  0.37891  1.0000
  C   C496      1.0  0.13396  0.78475  0.35344  1.0000
  C   C497      1.0  0.08781  0.81248  0.38858  1.0000
  C   C498      1.0  0.13049  0.77418  0.41343  1.0000
  H   H831      1.0  0.02590  0.52530  0.12730  1.0000
  C   C499      1.0  0.15671  0.81669  0.38188  1.0000
  H   H832      1.0  0.02950  0.63455  0.00808  1.0000
  C   C500      1.0  0.07262  0.82204  0.37886  1.0000
  H   H833      1.0  0.12381  0.76668  0.37721  1.0000
  H   H834      1.0  0.14357  0.77210  0.37776  1.0000
  H   H835      1.0  0.10615  0.79298  0.41179  1.0000
  H   H836      1.0  0.10688  0.77297  0.40552  1.0000
  H   H837      1.0  0.09606  0.78865  0.37792  1.0000
  H   H838      1.0  0.10494  0.80706  0.36394  1.0000
  H   H839      1.0  0.12546  0.81796  0.37076  1.0000
  H   H840      1.0  0.12345  0.81332  0.39391  1.0000
  H   H841      1.0  0.15536  0.80074  0.36496  1.0000
  H   H842      1.0  0.15464  0.78956  0.38768  1.0000
  H   H843      1.0  0.12205  0.78512  0.34852  1.0000
  H   H844      1.0  0.13647  0.79840  0.34947  1.0000
  H   H845      1.0  0.09365  0.82263  0.39071  1.0000
  H   H846      1.0  0.08174  0.80506  0.40174  1.0000
  H   H847      1.0  0.14044  0.76412  0.40662  1.0000
  H   H848      1.0  0.13703  0.78447  0.41425  1.0000
  N   N29       1.0  0.01552  0.96509  0.38192  1.0000
  H   H849      1.0  0.01287  0.94939  0.42002  1.0000
  C   C501      1.0  0.14942  0.50547  0.06179  1.0000
  H   H850      1.0  0.15198  0.81806  0.39593  1.0000
  H   H851      1.0  0.17151  0.81335  0.37882  1.0000
  H   H852      1.0  0.15227  0.82953  0.37296  1.0000
  H   H853      1.0  0.13691  0.92135  0.36843  1.0000
  H   H854      1.0  0.02025  0.96181  0.48129  1.0000
  H   H855      1.0  0.03459  0.99384  0.26808  1.0000
  H   H856      1.0  0.07762  0.83037  0.36581  1.0000
  H   H857      1.0  0.06623  0.81225  0.37675  1.0000
  H   H858      1.0  0.06239  0.83089  0.38698  1.0000
  C   C502      1.0  0.07760  0.81198  0.48296  1.0000
  S   S127      1.0  0.19539  0.56774  0.02213  1.0000
  H   H859      1.0  0.12503  0.63931  0.09966  1.0000
  H   H860      1.0  0.07839  0.69308  0.16775  1.0000
  H   H861      1.0  0.11691  0.64408  0.13064  1.0000
  H   H862      1.0  0.11242  0.75260  0.04413  1.0000
  H   H863      1.0  0.17814  0.83610  0.39950  1.0000
  H   H864      1.0  0.09123  0.63619  0.15723  1.0000
  C   C503      1.0  0.16868  0.83617  0.41254  1.0000
  H   H865      1.0  0.05122  0.96715  0.28601  1.0000
  Fe  Fe62      1.0  0.18555  0.78407  0.27069  1.0000
  H   H866      1.0  0.11486  0.68776  0.23135  1.0000
  H   H867      1.0  0.18854  0.75539  0.32766  1.0000
  Fe  Fe63      1.0  0.09659  0.51182  0.15837  1.0000
  C   C504      1.0  0.17088  0.51472  0.03451  1.0000
  H   H868      1.0  0.16521  0.68972  0.18941  1.0000
  C   C505      1.0  0.09567  0.72613  0.04656  1.0000
  N   N30       1.0  0.08005  0.65665  0.13652  1.0000
  H   H869      1.0  0.18590  0.59413  0.13349  1.0000
  H   H870      1.0  0.03536  0.60995  0.09282  1.0000
  H   H871      1.0  0.09241  0.90596  0.46254  1.0000
  H   H872      1.0  0.18219  0.90895  0.32780  1.0000
  H   H873      1.0  0.19723  0.70492  0.99897  1.0000
  C   C506      1.0  0.17709  0.96570  0.24787  1.0000
  Fe  Fe64      1.0  0.16781  0.58400  0.02167  1.0000
  H   H874      1.0  0.04057  0.94653  0.38470  1.0000
  H   H875      1.0  0.06902  0.63625  0.15732  1.0000
  H   H876      1.0  0.02179  0.93682  0.39342  1.0000
  H   H877      1.0  0.11886  0.56935  0.07360  1.0000
  H   H878      1.0  0.12222  0.88426  0.45749  1.0000
  C   C507      1.0  0.19059  0.79122  0.30885  1.0000
  C   C508      1.0  0.02289  0.94709  0.48570  1.0000
  H   H879      1.0  0.19463  0.93051  0.27262  1.0000
  C   C509      1.0  0.07197  0.90782  0.44878  1.0000
  H   H880      1.0  0.06216  0.54778  0.12612  1.0000
  H   H881      1.0  0.18049  0.72098  0.20448  1.0000
  C   C510      1.0  0.17550  0.58110  0.08403  1.0000
  H   H882      1.0  0.05211  0.53021  0.12796  1.0000
  H   H883      1.0  0.08302  0.98090  0.41732  1.0000
  H   H884      1.0  0.12100  0.54247  0.01070  1.0000
  C   C511      1.0  0.17470  0.59503  0.06622  1.0000
  C   C512      1.0  0.01105  0.94705  0.36147  1.0000
  C   C513      1.0  0.14714  0.64947  0.99736  1.0000
  H   H885      1.0  0.05636  0.68092  0.16032  1.0000
  C   C514      1.0  0.04380  0.57329  0.10425  1.0000
  C   C515      1.0  0.15553  0.60509  0.06564  1.0000
  H   H886      1.0  0.08693  0.54060  0.06455  1.0000
  H   H887      1.0  0.14588  0.86522  0.16699  1.0000
  H   H888      1.0  0.18426  0.85705  0.37028  1.0000
  H   H889      1.0  0.05645  0.57572  0.10550  1.0000
  H   H890      1.0  0.16797  0.58806  0.09496  1.0000
  H   H891      1.0  0.16767  0.57144  0.08415  1.0000
  C   C516      1.0  0.19869  0.95723  0.28579  1.0000
  C   C517      1.0  0.09169  0.87884  0.46142  1.0000
  C   C518      1.0  0.14069  0.51511  0.03243  1.0000
  N   N31       1.0  0.10346  0.86814  0.47436  1.0000
  C   C519      1.0  0.17295  0.64863  0.11387  1.0000
  H   H892      1.0  0.15995  0.49712  0.06907  1.0000
  H   H893      1.0  0.17966  0.58835  0.05480  1.0000
  H   H894      1.0  0.16058  0.70061  0.09235  1.0000
  Fe  Fe65      1.0  0.17945  0.98407  0.41037  1.0000
  H   H895      1.0  0.16675  0.83371  0.19036  1.0000
  H   H896      1.0  0.09269  0.52444  0.08411  1.0000
  H   H897      1.0  0.02989  0.96116  0.29709  1.0000
  C   C520      1.0  0.04133  0.53957  0.15940  1.0000
  H   H898      1.0  0.06201  0.96123  0.42331  1.0000
  H   H899      1.0  0.17979  0.87234  0.21214  1.0000
  H   H900      1.0  0.11975  0.81936  0.45689  1.0000
  N   N32       1.0  0.17954  0.67709  0.01889  1.0000
  C   C521      1.0  0.16638  0.95311  0.25325  1.0000
  C   C522      1.0  0.13432  0.66286  0.00482  1.0000
  H   H901      1.0  0.14935  0.61139  0.07729  1.0000
  H   H902      1.0  0.15525  0.61575  0.05341  1.0000
  H   H903      1.0  0.14743  0.59590  0.06538  1.0000
  H   H904      1.0  0.06487  0.68205  0.18726  1.0000
  C   C523      1.0  0.03954  0.93418  0.41961  1.0000
  C   C524      1.0  0.15807  0.85743  0.17195  1.0000
  C   C525      1.0  0.17516  0.84436  0.42412  1.0000
  H   H905      1.0  0.04768  0.57778  0.07490  1.0000
  H   H906      1.0  0.14494  0.70266  0.02696  1.0000
  N   N33       1.0  0.04462  0.55356  0.10789  1.0000
  C   C526      1.0  0.16705  0.97092  0.33737  1.0000
  C   C527      1.0  0.05871  0.54499  0.09400  1.0000
  H   H907      1.0  0.16895  0.85397  0.16058  1.0000
  H   H908      1.0  0.01986  0.98897  0.30873  1.0000
  C   C528      1.0  0.11862  0.87726  0.47164  1.0000
  H   H909      1.0  0.17908  0.74095  0.30929  1.0000
  H   H910      1.0  0.01821  0.93400  0.36809  1.0000
  H   H911      1.0  0.16403  0.71251  0.02236  1.0000
  C   C529      1.0  0.03953  0.58416  0.08603  1.0000
  C   C530      1.0  0.19185  0.56066  0.10600  1.0000
  C   C531      1.0  0.11686  0.54284  0.02505  1.0000
  C   C532      1.0  0.14921  0.87644  0.47628  1.0000
  H   H912      1.0  0.17733  0.78497  0.17843  1.0000
  C   C533      1.0  0.18509  0.70822  0.23075  1.0000
  C   C534      1.0  0.18560  0.74748  0.06736  1.0000
  H   H913      1.0  0.05389  0.85477  0.47773  1.0000
  H   H914      1.0  0.19528  0.93516  0.30917  1.0000
  C   C535      1.0  0.17810  0.79533  0.18489  1.0000
  H   H915      1.0  0.05450  0.54153  0.15966  1.0000
  H   H916      1.0  0.04345  0.98016  0.42319  1.0000
  H   H917      1.0  0.18547  0.69276  0.03402  1.0000
  H   H918      1.0  0.08109  0.87180  0.46223  1.0000
  C   C536      1.0  0.17690  0.76536  0.06611  1.0000
  C   C537      1.0  0.17865  0.91278  0.34092  1.0000
  H   H919      1.0  0.11907  0.84102  0.47963  1.0000
  C   C538      1.0  0.02673  0.55081  0.10757  1.0000
  S   S128      1.0  0.17834  0.95641  0.41017  1.0000
  H   H920      1.0  0.18157  0.64134  0.04167  1.0000
  H   H921      1.0  0.12974  0.50772  0.03649  1.0000
  H   H922      1.0  0.11802  0.98699  0.42757  1.0000
  H   H923      1.0  0.18064  0.80884  0.49135  1.0000
  C   C539      1.0  0.18249  0.67535  0.21717  1.0000
  C   C540      1.0  0.15560  0.98395  0.26734  1.0000
  H   H924      1.0  0.14029  0.82503  0.45688  1.0000
  H   H925      1.0  0.17659  0.67117  0.23158  1.0000
  N   N34       1.0  0.15326  0.87609  0.27624  1.0000
  C   C541      1.0  0.14913  0.89268  0.26215  1.0000
  C   C542      1.0  0.14402  0.87960  0.29459  1.0000
  C   C543      1.0  0.17320  0.87167  0.27499  1.0000
  C   C544      1.0  0.14831  0.86026  0.27339  1.0000
  C   C545      1.0  0.12868  0.86256  0.27238  1.0000
  C   C546      1.0  0.15840  0.89136  0.24268  1.0000
  C   C547      1.0  0.18029  0.85598  0.28954  1.0000
  C   C548      1.0  0.12545  0.89264  0.29639  1.0000
  C   C549      1.0  0.11561  0.89139  0.31582  1.0000
  C   C550      1.0  0.12615  0.84679  0.26667  1.0000
  C   C551      1.0  0.15028  0.90717  0.22941  1.0000
  H   H926      1.0  0.10338  0.62165  0.13188  1.0000
  H   H927      1.0  0.15292  0.90401  0.26486  1.0000
  H   H928      1.0  0.13463  0.89710  0.26255  1.0000
  H   H929      1.0  0.14259  0.86685  0.30431  1.0000
  H   H930      1.0  0.15236  0.88547  0.29966  1.0000
  H   H931      1.0  0.17767  0.88365  0.27532  1.0000
  H   H932      1.0  0.17550  0.93452  0.29038  1.0000
  H   H933      1.0  0.15720  0.85577  0.26133  1.0000
  H   H934      1.0  0.15072  0.84858  0.28445  1.0000
  H   H935      1.0  0.12421  0.87471  0.26266  1.0000
  H   H936      1.0  0.11993  0.86299  0.28574  1.0000
  H   H937      1.0  0.17279  0.89135  0.24034  1.0000
  H   H938      1.0  0.15700  0.87916  0.23961  1.0000
  H   H939      1.0  0.17789  0.84324  0.28861  1.0000
  H   H940      1.0  0.17385  0.85832  0.30311  1.0000
  H   H941      1.0  0.12723  0.90656  0.29077  1.0000
  H   H942      1.0  0.11662  0.89015  0.28922  1.0000
  H   H943      1.0  0.12428  0.89243  0.32411  1.0000
  H   H944      1.0  0.10355  0.90236  0.31684  1.0000
  H   H945      1.0  0.11126  0.87853  0.32114  1.0000
  H   H946      1.0  0.11185  0.84834  0.26680  1.0000
  H   H947      1.0  0.13402  0.84606  0.25302  1.0000
  H   H948      1.0  0.13038  0.83415  0.27598  1.0000
  H   H949      1.0  0.08061  0.50184  0.12843  1.0000
  H   H950      1.0  0.13622  0.90693  0.23018  1.0000
  H   H951      1.0  0.15068  0.91996  0.23210  1.0000
  H   H952      1.0  0.03453  0.56478  0.14196  1.0000
  C   C552      1.0  0.09329  0.65773  0.11893  1.0000
  H   H953      1.0  0.07456  0.60354  0.15887  1.0000
  C   C553      1.0  0.09099  0.53871  0.07729  1.0000
  H   H954      1.0  0.05402  0.54785  0.08140  1.0000
  S   S129      1.0  0.17538  0.60993  0.01826  1.0000
  H   H955      1.0  0.16044  0.81935  0.48299  1.0000
  H   H956      1.0  0.16550  0.84380  0.43704  1.0000
  H   H957      1.0  0.14789  0.95165  0.37760  1.0000
  C   C554      1.0  0.18508  0.57604  0.15899  1.0000
  C   C555      1.0  0.14842  0.93843  0.38686  1.0000
  C   C556      1.0  0.14823  0.80103  0.15977  1.0000
  H   H958      1.0  0.14803  0.88988  0.37166  1.0000
  H   H959      1.0  0.16048  0.91086  0.38694  1.0000
  C   C557      1.0  0.13269  0.53478  0.03411  1.0000
  C   C558      1.0  0.15948  0.92368  0.37709  1.0000
  C   C559      1.0  0.19477  0.90285  0.34982  1.0000
  H   H960      1.0  0.02223  0.54854  0.14285  1.0000
  H   H961      1.0  0.15462  0.93840  0.39773  1.0000
  H   H962      1.0  0.16723  0.52804  0.03789  1.0000
  H   H963      1.0  0.01334  0.99011  0.28005  1.0000
  C   C560      1.0  0.03093  0.98830  0.29685  1.0000
  H   H964      1.0  0.14388  0.84495  0.19692  1.0000
  H   H965      1.0  0.06584  0.92174  0.45020  1.0000
  S   S130      1.0  0.12364  0.97511  0.31890  1.0000
  H   H966      1.0  0.13867  0.69525  0.20611  1.0000
  H   H967      1.0  0.15581  0.78424  0.03737  1.0000
  C   C561      1.0  0.08929  0.62209  0.13889  1.0000
  H   H968      1.0  0.06553  0.65353  0.10848  1.0000
  H   H969      1.0  0.19511  0.79738  0.20118  1.0000
  C   C562      1.0  0.16135  0.89108  0.36296  1.0000
  C   C563      1.0  0.15082  0.92318  0.36219  1.0000
  C   C564      1.0  0.17236  0.85768  0.36533  1.0000
  H   H970      1.0  0.17005  0.88862  0.37251  1.0000
  H   H971      1.0  0.13656  0.90653  0.34499  1.0000
  H   H972      1.0  0.17283  0.92686  0.37146  1.0000
  C   C565      1.0  0.16778  0.69131  0.00778  1.0000
  H   H973      1.0  0.14321  0.88469  0.48648  1.0000
  H   H974      1.0  0.14282  0.54305  0.02761  1.0000
  H   H975      1.0  0.15647  0.87494  0.34732  1.0000
  N   N35       1.0  0.16044  0.90943  0.35110  1.0000
  C   C566      1.0  0.14924  0.91099  0.33795  1.0000
  C   C567      1.0  0.16749  0.87558  0.35294  1.0000
  H   H976      1.0  0.14958  0.93685  0.35373  1.0000
  H   H977      1.0  0.13361  0.93832  0.33466  1.0000
  C   C568      1.0  0.17377  0.69791  0.19086  1.0000
  C   C569      1.0  0.12484  0.69413  0.23315  1.0000
  H   H978      1.0  0.01651  0.98622  0.39369  1.0000
  H   H979      1.0  0.07618  0.56434  0.08199  1.0000
  H   H980      1.0  0.11408  0.77440  0.44015  1.0000
  C   C570      1.0  0.14990  0.77263  0.34394  1.0000
  H   H981      1.0  0.14591  0.92072  0.30238  1.0000
  C   C571      1.0  0.11649  0.61657  0.00943  1.0000
  H   H982      1.0  0.11499  0.66769  0.12226  1.0000
  H   H983      1.0  0.03441  0.52289  0.10460  1.0000
  H   H984      1.0  0.15084  0.71441  0.21700  1.0000
  H   H985      1.0  0.19293  0.60124  0.14897  1.0000
  C   C572      1.0  0.08203  0.63809  0.14823  1.0000
  C   C573      1.0  0.12548  0.65220  0.10217  1.0000
  H   H986      1.0  0.12974  0.78793  0.15490  1.0000
  H   H987      1.0  0.17605  0.84235  0.46044  1.0000
  C   C574      1.0  0.14409  0.92983  0.32638  1.0000
  H   H988      1.0  0.15630  0.90200  0.32855  1.0000
  C   C575      1.0  0.14217  0.69038  0.21940  1.0000
  C   C576      1.0  0.16018  0.80040  0.19788  1.0000
  H   H989      1.0  0.18947  0.96363  0.23821  1.0000
  C   C577      1.0  0.06972  0.98680  0.41398  1.0000
  H   H990      1.0  0.08967  0.67089  0.10996  1.0000
  H   H991      1.0  0.05518  0.64000  0.12877  1.0000
  H   H992      1.0  0.11375  0.61064  0.03809  1.0000
  H   H993      1.0  0.08414  0.71965  0.05298  1.0000
  H   H994      1.0  0.12805  0.73228  0.04243  1.0000
  C   C578      1.0  0.13625  0.92929  0.31115  1.0000
  C   C579      1.0  0.02629  0.94995  0.41139  1.0000
  H   H995      1.0  0.19286  0.92062  0.41161  1.0000
  C   C580      1.0  0.03770  0.66320  0.11743  1.0000
  H   H996      1.0  0.17979  0.99099  0.25042  1.0000
  H   H997      1.0  0.16432  0.91727  0.43700  1.0000
  H   H998      1.0  0.17487  0.85861  0.41759  1.0000
  H   H999      1.0  0.00837  0.93548  0.34096  1.0000
  H   H1000     1.0  0.10609  0.71716  0.03869  1.0000
  H   H1001     1.0  0.15032  0.77318  0.15972  1.0000
  H   H1002     1.0  0.10820  0.85146  0.44365  1.0000
  C   C581      1.0  0.01830  0.96252  0.36326  1.0000
  C   C582      1.0  0.15616  0.69985  0.22078  1.0000
  H   H1003     1.0  0.03781  0.67709  0.10983  1.0000
  H   H1004     1.0  0.15137  0.64479  0.06236  1.0000
  Fe  Fe66      1.0  0.16244  0.95594  0.43801  1.0000
  C   C583      1.0  0.18178  0.73503  0.08324  1.0000
  H   H1005     1.0  0.15623  0.69708  0.23518  1.0000
  H   H1006     1.0  0.12472  0.80411  0.18005  1.0000
  C   C584      1.0  0.11859  0.84787  0.45162  1.0000
  H   H1007     1.0  0.14732  0.67579  0.22176  1.0000
  H   H1008     1.0  0.12718  0.68866  0.24686  1.0000
  H   H1009     1.0  0.09616  0.66422  0.15002  1.0000
  H   H1010     1.0  0.18762  0.65560  0.05205  1.0000
  H   H1011     1.0  0.17379  0.51762  0.01971  1.0000
  H   H1012     1.0  0.17684  0.65085  0.09914  1.0000
  C   C585      1.0  0.15616  0.70708  0.01642  1.0000
  H   H1013     1.0  0.09096  0.73877  0.03744  1.0000
  H   H1014     1.0  0.14322  0.85713  0.46600  1.0000
  H   H1015     1.0  0.18597  0.57639  0.17246  1.0000
  H   H1016     1.0  0.17150  0.95719  0.34482  1.0000
  H   H1017     1.0  0.02986  0.96230  0.41173  1.0000
  C   C586      1.0  0.15427  0.84061  0.18563  1.0000
  H   H1018     1.0  0.17837  0.92729  0.33776  1.0000
  H   H1019     1.0  0.16099  0.85559  0.37670  1.0000
  C   C587      1.0  0.08243  0.89823  0.46339  1.0000
  C   C588      1.0  0.06257  0.84267  0.47426  1.0000
  H   H1020     1.0  0.03144  0.54389  0.17103  1.0000
  H   H1021     1.0  0.09824  0.84268  0.47515  1.0000
  H   H1022     1.0  0.19078  0.77537  0.20502  1.0000
  C   C589      1.0  0.10970  0.84942  0.47112  1.0000
  H   H1023     1.0  0.18010  0.77503  0.05396  1.0000
  H   H1024     1.0  0.03279  0.95984  0.35701  1.0000
  H   H1025     1.0  0.17907  0.87738  0.34174  1.0000
  H   H1026     1.0  0.18045  0.65254  0.01150  1.0000
  H   H1027     1.0  0.12417  0.77108  0.05267  1.0000
  H   H1028     1.0  0.19067  0.52320  0.18222  1.0000
  C   C590      1.0  0.04305  0.93982  0.48173  1.0000
  H   H1029     1.0  0.03890  0.93490  0.43345  1.0000
  Fe  Fe67      1.0  0.18746  0.97371  0.44726  1.0000
  H   H1030     1.0  0.16735  0.82231  0.41920  1.0000
  C   C591      1.0  0.16307  0.64755  0.06535  1.0000
  H   H1031     1.0  0.16957  0.63538  0.07384  1.0000
  H   H1032     1.0  0.12798  0.85692  0.44543  1.0000
  H   H1033     1.0  0.14785  0.75879  0.34740  1.0000
  H   H1034     1.0  0.19631  0.63241  0.17945  1.0000
  H   H1035     1.0  0.18166  0.80700  0.17459  1.0000
  H   H1036     1.0  0.14867  0.98406  0.40649  1.0000
  C   C592      1.0  0.13518  0.75958  0.05598  1.0000
  H   H1037     1.0  0.14279  0.81421  0.15182  1.0000
  H   H1038     1.0  0.15839  0.65839  0.07283  1.0000
  C   C593      1.0  0.12887  0.81556  0.20443  1.0000
  H   H1039     1.0  0.16035  0.65830  0.11755  1.0000
  C   C594      1.0  0.02442  0.53122  0.11338  1.0000
  H   H1040     1.0  0.00110  0.65796  0.01996  1.0000
  C   C595      1.0  0.05707  0.97490  0.42593  1.0000
  C   C596      1.0  0.13932  0.80003  0.17977  1.0000
  H   H1041     1.0  0.18051  0.86805  0.26201  1.0000
  H   H1042     1.0  0.05123  0.66275  0.14556  1.0000
  H   H1043     1.0  0.14608  0.75277  0.02947  1.0000
  C   C597      1.0  0.16849  0.74036  0.09755  1.0000
  H   H1044     1.0  0.15854  0.68520  0.00430  1.0000
  H   H1045     1.0  0.15800  0.90641  0.21570  1.0000
  H   H1046     1.0  0.14084  0.76322  0.06545  1.0000
  H   H1047     1.0  0.15579  0.93612  0.32069  1.0000
  H   H1048     1.0  0.19215  0.91405  0.29311  1.0000
  H   H1049     1.0  0.11801  0.63011  0.00873  1.0000
  H   H1050     1.0  0.13521  0.75870  0.43926  1.0000
  H   H1051     1.0  0.13245  0.82243  0.21294  1.0000
  H   H1052     1.0  0.06117  0.53022  0.09843  1.0000
  C   C598      1.0  0.14971  0.75883  0.03858  1.0000
  H   H1053     1.0  0.17838  0.69375  0.15661  1.0000
  H   H1054     1.0  0.04914  0.97145  0.38393  1.0000
  H   H1055     1.0  0.15122  0.73108  0.07600  1.0000
  H   H1056     1.0  0.02735  0.66343  0.12992  1.0000
  S   S131      1.0  0.11203  0.98470  0.36688  1.0000
  H   H1057     1.0  0.18668  0.65232  0.15245  1.0000
  H   H1058     1.0  0.13199  0.97391  0.28151  1.0000
  C   C599      1.0  0.18943  0.86286  0.21923  1.0000
  H   H1059     1.0  0.10598  0.53547  0.03147  1.0000
  H   H1060     1.0  0.13298  0.94293  0.30301  1.0000
  H   H1061     1.0  0.14160  0.78575  0.18671  1.0000
  C   C600      1.0  0.07712  0.55023  0.08923  1.0000
  C   C601      1.0  0.13269  0.98446  0.38876  1.0000
  H   H1062     1.0  0.14939  0.63610  0.00519  1.0000
  C   C602      1.0  0.17159  0.98121  0.25473  1.0000
  C   C603      1.0  0.12870  0.82886  0.45043  1.0000
  H   H1063     1.0  0.17103  0.52663  0.13383  1.0000
  H   H1064     1.0  0.06243  0.49743  0.10985  1.0000
  C   C604      1.0  0.18921  0.66208  0.00929  1.0000
  C   C605      1.0  0.14435  0.78669  0.15284  1.0000
  H   H1065     1.0  0.16287  0.79936  0.15714  1.0000
  C   C606      1.0  0.19256  0.68446  0.02400  1.0000
  C   C607      1.0  0.18438  0.73276  0.32114  1.0000
  H   H1066     1.0  0.07261  0.89851  0.47617  1.0000
  H   H1067     1.0  0.18329  0.62065  0.11700  1.0000
  H   H1068     1.0  0.13360  0.82799  0.43624  1.0000
  H   H1069     1.0  0.15548  0.84418  0.41021  1.0000
  H   H1070     1.0  0.01235  0.97500  0.35462  1.0000
  H   H1071     1.0  0.18527  0.53697  0.10244  1.0000
  C   C608      1.0  0.18782  0.80003  0.32260  1.0000
  C   C609      1.0  0.14603  0.98944  0.39334  1.0000
  H   H1072     1.0  0.02413  0.55585  0.09389  1.0000
  H   H1073     1.0  0.19339  0.72739  0.35237  1.0000
  H   H1074     1.0  0.04606  0.92501  0.48534  1.0000
  C   C610      1.0  0.10615  0.61667  0.99550  1.0000
  C   C611      1.0  0.17318  0.80929  0.48128  1.0000
  H   H1075     1.0  0.18362  0.65125  0.11873  1.0000
  C   C612      1.0  0.18885  0.83235  0.45866  1.0000
  C   C613      1.0  0.13201  0.49873  0.07150  1.0000
  H   H1076     1.0  0.07067  0.98608  0.40009  1.0000
  S   S132      1.0  0.19316  0.98186  0.47006  1.0000
  H   H1077     1.0  0.18561  0.89844  0.40010  1.0000
  H   H1078     1.0  0.17000  0.79601  0.48363  1.0000
  H   H1079     1.0  0.13427  0.99178  0.47836  1.0000
  H   H1080     1.0  0.04683  0.97818  0.36115  1.0000
  C   C614      1.0  0.19155  0.69323  0.17746  1.0000
  H   H1081     1.0  0.14050  0.71760  0.99582  1.0000
  H   H1082     1.0  0.15238  0.88535  0.46307  1.0000
  C   C615      1.0  0.18692  0.84554  0.22699  1.0000
  C   C616      1.0  0.03965  0.96865  0.29738  1.0000
  C   C617      1.0  0.04155  0.98146  0.37449  1.0000
  H   H1083     1.0  0.18452  0.96293  0.28482  1.0000
  H   H1084     1.0  0.04965  0.94488  0.48936  1.0000
  C   C618      1.0  0.18437  0.81377  0.46248  1.0000
  H   H1085     1.0  0.19513  0.83225  0.46955  1.0000
  H   H1086     1.0  0.17125  0.98038  0.34253  1.0000
  S   S133      1.0  0.18644  0.94496  0.45046  1.0000
  H   H1087     1.0  0.16184  0.86758  0.47944  1.0000
  H   H1088     1.0  0.17648  0.81338  0.45315  1.0000
  C   C619      1.0  0.18858  0.50492  0.04062  1.0000
  H   H1089     1.0  0.19222  0.90429  0.36368  1.0000
  H   H1090     1.0  0.19482  0.89131  0.44324  1.0000
  H   H1091     1.0  0.12055  0.50703  0.06562  1.0000
  H   H1092     1.0  0.18613  0.56974  0.11543  1.0000
  H   H1093     1.0  0.18604  0.99155  0.28389  1.0000
  H   H1094     1.0  0.00656  0.95929  0.33466  1.0000
  C   C620      1.0  0.19000  0.92857  0.28727  1.0000
  H   H1095     1.0  0.18641  0.86543  0.43742  1.0000
  C   C621      1.0  0.14809  0.72238  0.00269  1.0000
  H   H1096     1.0  0.18939  0.76833  0.38803  1.0000
  H   H1097     1.0  0.19777  0.88840  0.35010  1.0000
  C   C622      1.0  0.12724  0.49947  0.09117  1.0000
  C   C623      1.0  0.04280  0.65638  0.00161  1.0000
  C   C624      1.0  0.00592  0.53004  0.11234  1.0000
  C   C625      1.0  0.19552  0.96758  0.31361  1.0000
  H   H1098     1.0  0.19604  0.82009  0.42714  1.0000
  H   H1099     1.0  0.19791  0.81978  0.24176  1.0000
  C   C626      1.0  0.17964  0.53645  0.13037  1.0000
  H   H1100     1.0  0.00464  0.51590  0.11664  1.0000
  S   S134      1.0  0.11358  0.69662  0.00340  1.0000
  N   N36       1.0  0.15548  0.50539  0.04220  1.0000
  H   H1101     1.0  0.18664  0.50246  0.05528  1.0000
  H   H1102     1.0  0.17406  0.54558  0.13978  1.0000
  C   C627      1.0  0.19657  0.74226  0.32522  1.0000
  N   N37       1.0  0.19392  0.57161  0.08721  1.0000
  H   H1103     1.0  0.18823  0.78560  0.36807  1.0000
  C   C628      1.0  0.13045  0.68009  0.99453  1.0000
  H   H1104     1.0  0.04118  0.99470  0.29792  1.0000
  H   H1105     1.0  0.17557  0.69702  0.99474  1.0000
  H   H1106     1.0  0.19666  0.86131  0.46473  1.0000
  H   H1107     1.0  0.19692  0.76533  0.34641  1.0000
  C   C629      1.0  0.19729  0.77623  0.37648  1.0000
  S   S135      1.0  0.19740  0.81680  0.34267  1.0000
  H   H1108     1.0  0.19847  0.83087  0.19495  1.0000
  H   H1109     1.0  0.19860  0.71824  0.24492  1.0000
  H   H1110     1.0  0.19674  0.80322  0.46121  1.0000
  H   H1111     1.0  0.15962  0.67361  0.95572  1.0000
  C   C630      1.0  0.07453  0.62081  0.95704  1.0000
  C   C631      1.0  0.01003  0.68728  0.77978  1.0000
  H   H1112     1.0  0.03272  0.94440  0.62300  1.0000
  H   H1113     1.0  0.02311  0.68974  0.77148  1.0000
  H   H1114     1.0  0.02521  0.53061  0.96167  1.0000
  H   H1115     1.0  0.17528  0.98679  0.55321  1.0000
  C   C632      1.0  0.02926  0.65831  0.85142  1.0000
  H   H1116     1.0  0.15140  0.50048  0.74876  1.0000
  S   S136      1.0  0.03705  0.85886  0.54342  1.0000
  H   H1117     1.0  0.08645  0.65242  0.98890  1.0000
  Fe  Fe68      1.0  0.03798  0.88667  0.52801  1.0000
  S   S137      1.0  0.05277  0.90569  0.53049  1.0000
  Fe  Fe69      1.0  0.03937  0.85297  0.51685  1.0000
  S   S138      1.0  0.05887  0.82817  0.51036  1.0000
  H   H1118     1.0  0.03827  0.52464  0.85959  1.0000
  S   S139      1.0  0.00976  0.85879  0.51849  1.0000
  N   N38       1.0  0.18305  0.54960  0.91813  1.0000
  C   C633      1.0  0.11498  0.54001  0.90954  1.0000
  C   C634      1.0  0.00873  0.76301  0.61079  1.0000
  S   S140      1.0  0.02187  0.92184  0.60715  1.0000
  H   H1119     1.0  0.07598  0.63302  0.97727  1.0000
  H   H1120     1.0  0.08007  0.86887  0.52851  1.0000
  H   H1121     1.0  0.06619  0.94308  0.57497  1.0000
  H   H1122     1.0  0.01868  0.54117  0.86602  1.0000
  H   H1123     1.0  0.02880  0.94718  0.65388  1.0000
  H   H1124     1.0  0.06692  0.94888  0.63066  1.0000
  H   H1125     1.0  0.11391  0.50507  0.91357  1.0000
  S   S141      1.0  0.03940  0.66116  0.94372  1.0000
  H   H1126     1.0  0.12123  0.64612  0.98167  1.0000
  H   H1127     1.0  0.14371  0.49858  0.78080  1.0000
  H   H1128     1.0  0.14120  0.61795  0.97903  1.0000
  H   H1129     1.0  0.08814  0.65694  0.96508  1.0000
  S   S142      1.0  0.08055  0.51097  0.83280  1.0000
  C   C635      1.0  0.08336  0.62121  0.97164  1.0000
  C   C636      1.0  0.08492  0.97367  0.61308  1.0000
  H   H1130     1.0  0.00501  0.79777  0.56135  1.0000
  C   C637      1.0  0.09456  0.98911  0.60742  1.0000
  C   C638      1.0  0.02275  0.80756  0.53723  1.0000
  S   S143      1.0  0.16003  0.51471  0.89351  1.0000
  C   C639      1.0  0.15342  0.53912  0.93417  1.0000
  S   S144      1.0  0.00849  0.89524  0.53089  1.0000
  H   H1131     1.0  0.01542  0.96642  0.52675  1.0000
  C   C640      1.0  0.13750  0.51601  0.84623  1.0000
  H   H1132     1.0  0.02549  0.63430  0.80229  1.0000
  H   H1133     1.0  0.08414  0.93856  0.60604  1.0000
  C   C641      1.0  0.07645  0.94741  0.59600  1.0000
  C   C642      1.0  0.14918  0.53031  0.86246  1.0000
  C   C643      1.0  0.14197  0.53108  0.84807  1.0000
  Fe  Fe70      1.0  0.00137  0.94742  0.60556  1.0000
  H   H1134     1.0  0.02672  0.83405  0.60590  1.0000
  H   H1135     1.0  0.13966  0.54347  0.83841  1.0000
  H   H1136     1.0  0.15876  0.72828  0.99262  1.0000
  N   N39       1.0  0.02326  0.66158  0.80356  1.0000
  C   C644      1.0  0.14800  0.49915  0.87317  1.0000
  C   C645      1.0  0.04502  0.90994  0.55192  1.0000
  C   C646      1.0  0.04329  0.92701  0.55454  1.0000
  C   C647      1.0  0.03578  0.93081  0.57146  1.0000
  C   C648      1.0  0.03092  0.91730  0.58592  1.0000
  C   C649      1.0  0.03311  0.90011  0.58338  1.0000
  C   C650      1.0  0.03979  0.89653  0.56631  1.0000
  H   H1137     1.0  0.04714  0.93744  0.54339  1.0000
  H   H1138     1.0  0.03397  0.94410  0.57336  1.0000
  H   H1139     1.0  0.02921  0.88969  0.59453  1.0000
  H   H1140     1.0  0.04105  0.88335  0.56432  1.0000
  Fe  Fe71      1.0  0.10983  0.49957  0.83122  1.0000
  H   H1141     1.0  0.04916  0.51245  0.76432  1.0000
  C   C651      1.0  0.05226  0.53347  0.95602  1.0000
  C   C652      1.0  0.19413  0.53115  0.92314  1.0000
  H   H1142     1.0  0.03924  0.55537  0.92684  1.0000
  C   C653      1.0  0.17783  0.55209  0.90061  1.0000
  H   H1143     1.0  0.12058  0.51702  0.75775  1.0000
  C   C654      1.0  0.03774  0.93529  0.64910  1.0000
  C   C655      1.0  0.01095  0.97527  0.51481  1.0000
  H   H1144     1.0  0.01923  0.69925  0.96369  1.0000
  S   S145      1.0  0.17195  0.63654  0.96984  1.0000
  H   H1145     1.0  0.01081  0.57483  0.93338  1.0000
  C   C656      1.0  0.13581  0.54401  0.94720  1.0000
  H   H1146     1.0  0.03576  0.97770  0.60259  1.0000
  H   H1147     1.0  0.09409  0.84826  0.53733  1.0000
  H   H1148     1.0  0.03742  0.77810  0.59282  1.0000
  H   H1149     1.0  0.17039  0.55194  0.99100  1.0000
  N   N40       1.0  0.11369  0.62432  0.97626  1.0000
  C   C657      1.0  0.16614  0.55151  0.93238  1.0000
  H   H1150     1.0  0.18365  0.57733  0.91391  1.0000
  H   H1151     1.0  0.10642  0.67992  0.96185  1.0000
  C   C658      1.0  0.01847  0.54181  0.78710  1.0000
  H   H1152     1.0  0.04716  0.96565  0.63005  1.0000
  H   H1153     1.0  0.04132  0.53261  0.92768  1.0000
  H   H1154     1.0  0.03438  0.56035  0.87273  1.0000
  H   H1155     1.0  0.04002  0.95771  0.59573  1.0000
  Fe  Fe72      1.0  0.01322  0.88674  0.50538  1.0000
  C   C659      1.0  0.04462  0.93991  0.62897  1.0000
  H   H1156     1.0  0.18933  0.57413  0.88243  1.0000
  C   C660      1.0  0.02641  0.53899  0.80155  1.0000
  C   C661      1.0  0.04257  0.52636  0.80268  1.0000
  C   C662      1.0  0.05076  0.51674  0.78923  1.0000
  C   C663      1.0  0.04285  0.51979  0.77476  1.0000
  C   C664      1.0  0.02681  0.53228  0.77369  1.0000
  H   H1157     1.0  0.16605  0.50028  0.76989  1.0000
  H   H1158     1.0  0.04873  0.52421  0.81379  1.0000
  C   C665      1.0  0.05557  0.95452  0.62377  1.0000
  C   C666      1.0  0.10608  0.51419  0.90383  1.0000
  H   H1159     1.0  0.08321  0.54613  0.84778  1.0000
  H   H1160     1.0  0.05404  0.68076  0.95960  1.0000
  H   H1161     1.0  0.07749  0.84786  0.52608  1.0000
  H   H1162     1.0  0.02077  0.53446  0.76246  1.0000
  C   C667      1.0  0.00266  0.56489  0.93518  1.0000
  N   N41       1.0  0.02985  0.79533  0.56871  1.0000
  C   C668      1.0  0.04933  0.79441  0.56017  1.0000
  C   C669      1.0  0.02228  0.81267  0.57487  1.0000
  C   C670      1.0  0.00651  0.99444  0.51727  1.0000
  H   H1163     1.0  0.17965  0.49955  0.73730  1.0000
  C   C671      1.0  0.09491  0.65655  0.97567  1.0000
  C   C672      1.0  0.05907  0.77797  0.55185  1.0000
  H   H1164     1.0  0.00404  0.55279  0.90543  1.0000
  C   C673      1.0  0.03018  0.81505  0.58963  1.0000
  C   C674      1.0  0.02058  0.83246  0.59566  1.0000
  H   H1165     1.0  0.01851  0.68040  0.83232  1.0000
  C   C675      1.0  0.07789  0.77977  0.54148  1.0000
  H   H1166     1.0  0.02772  0.51110  0.93079  1.0000
  H   H1167     1.0  0.05690  0.79405  0.57011  1.0000
  H   H1168     1.0  0.05113  0.80677  0.54985  1.0000
  H   H1169     1.0  0.01571  0.68971  0.80371  1.0000
  H   H1170     1.0  0.04414  0.97296  0.56755  1.0000
  C   C676      1.0  0.02807  0.66738  0.83218  1.0000
  H   H1171     1.0  0.09610  0.51677  0.86370  1.0000
  C   C677      1.0  0.02809  0.77958  0.58412  1.0000
  H   H1172     1.0  0.03660  0.80370  0.52980  1.0000
  H   H1173     1.0  0.11600  0.51609  0.89108  1.0000
  H   H1174     1.0  0.01493  0.92678  0.50806  1.0000
  C   C678      1.0  0.01458  0.94123  0.50572  1.0000
  H   H1175     1.0  0.01568  0.58074  0.90256  1.0000
  H   H1176     1.0  0.03664  0.98516  0.65342  1.0000
  H   H1177     1.0  0.07141  0.52974  0.89715  1.0000
  H   H1178     1.0  0.02888  0.80408  0.60154  1.0000
  H   H1179     1.0  0.04448  0.81557  0.58463  1.0000
  H   H1180     1.0  0.99958  0.55615  0.96467  1.0000
  S   S146      1.0  0.00332  0.97245  0.58466  1.0000
  H   H1181     1.0  0.09498  0.96130  0.61102  1.0000
  H   H1182     1.0  0.01304  0.93156  0.54096  1.0000
  H   H1183     1.0  0.00746  0.65595  0.83028  1.0000
  H   H1184     1.0  0.17124  0.56526  0.86646  1.0000
  H   H1185     1.0  0.08584  0.78115  0.55030  1.0000
  H   H1186     1.0  0.08472  0.76774  0.53591  1.0000
  H   H1187     1.0  0.07731  0.79159  0.53025  1.0000
  C   C679      1.0  0.01126  0.67969  0.79955  1.0000
  H   H1188     1.0  0.07342  0.51237  0.92586  1.0000
  H   H1189     1.0  0.04142  0.66996  0.82510  1.0000
  H   H1190     1.0  0.13386  0.59993  0.97612  1.0000
  C   C680      1.0  0.07016  0.93540  0.58762  1.0000
  H   H1191     1.0  0.00287  0.61923  0.80152  1.0000
  H   H1192     1.0  0.10945  0.60782  0.96085  1.0000
  C   C681      1.0  0.11346  0.64387  0.97320  1.0000
  C   C682      1.0  0.01953  0.79471  0.55566  1.0000
  H   H1193     1.0  0.02425  0.82418  0.56358  1.0000
  C   C683      1.0  0.14254  0.61862  0.95174  1.0000
  S   S147      1.0  0.01784  0.65207  0.90787  1.0000
  S   S148      1.0  0.13746  0.49637  0.94126  1.0000
  C   C684      1.0  0.13982  0.68402  0.97692  1.0000
  H   H1194     1.0  0.02865  0.64163  0.82712  1.0000
  C   C685      1.0  0.16035  0.60542  0.94812  1.0000
  C   C686      1.0  0.09935  0.53225  0.90980  1.0000
  H   H1195     1.0  0.12855  0.55768  0.94215  1.0000
  H   H1196     1.0  0.10492  0.63106  0.95138  1.0000
  H   H1197     1.0  0.02025  0.54672  0.81165  1.0000
  C   C687      1.0  0.17576  0.54038  0.98517  1.0000
  N   N42       1.0  0.06218  0.96155  0.60416  1.0000
  H   H1198     1.0  0.06030  0.76565  0.56244  1.0000
  H   H1199     1.0  0.12037  0.64883  0.95936  1.0000
  H   H1200     1.0  0.07895  0.97234  0.62754  1.0000
  C   C688      1.0  0.01798  0.64791  0.79728  1.0000
  H   H1201     1.0  0.12728  0.53452  0.94883  1.0000
  H   H1202     1.0  0.05730  0.64391  0.81335  1.0000
  H   H1203     1.0  0.14544  0.63216  0.94789  1.0000
  H   H1204     1.0  0.13452  0.61785  0.94274  1.0000
  N   N43       1.0  0.09190  0.50585  0.90214  1.0000
  H   H1205     1.0  0.02043  0.82149  0.53857  1.0000
  H   H1206     1.0  0.05949  0.98841  0.60710  1.0000
  H   H1207     1.0  0.07484  0.63319  0.94651  1.0000
  H   H1208     1.0  0.08009  0.91152  0.57690  1.0000
  H   H1209     1.0  0.05859  0.93017  0.59645  1.0000
  C   C689      1.0  0.16422  0.53031  0.98420  1.0000
  H   H1210     1.0  0.13687  0.69734  0.96892  1.0000
  H   H1211     1.0  0.05196  0.77620  0.54252  1.0000
  H   H1212     1.0  0.13826  0.54318  0.96045  1.0000
  Fe  Fe73      1.0  0.00764  0.86688  0.54402  1.0000
  H   H1213     1.0  0.15840  0.59152  0.95193  1.0000
  H   H1214     1.0  0.16659  0.60839  0.93373  1.0000
  H   H1215     1.0  0.16966  0.60667  0.95560  1.0000
  C   C690      1.0  0.04015  0.65936  0.96617  1.0000
  C   C691      1.0  0.01044  0.80709  0.52575  1.0000
  C   C692      1.0  0.17086  0.51510  0.97687  1.0000
  H   H1216     1.0  0.09681  0.92402  0.57398  1.0000
  H   H1217     1.0  0.09121  0.53047  0.92357  1.0000
  H   H1218     1.0  0.07035  0.51225  0.88843  1.0000
  H   H1219     1.0  0.02164  0.84406  0.58429  1.0000
  H   H1220     1.0  0.05239  0.53259  0.97010  1.0000
  H   H1221     1.0  0.05611  0.49845  0.91425  1.0000
  C   C693      1.0  0.15628  0.65326  0.97964  1.0000
  H   H1222     1.0  0.10776  0.84301  0.50707  1.0000
  H   H1223     1.0  0.06530  0.97478  0.56905  1.0000
  H   H1224     1.0  0.15017  0.53996  0.92130  1.0000
  Fe  Fe74      1.0  0.18043  0.61115  0.98913  1.0000
  H   H1225     1.0  0.09126  0.54233  0.90088  1.0000
  C   C694      1.0  0.10104  0.85679  0.50856  1.0000
  H   H1226     1.0  0.01122  0.57206  0.87618  1.0000
  H   H1227     1.0  0.18356  0.67154  0.98255  1.0000
  C   C695      1.0  0.03348  0.64620  0.97993  1.0000
  H   H1228     1.0  0.15957  0.52504  0.93932  1.0000
  H   H1229     1.0  0.02754  0.63698  0.97693  1.0000
  C   C696      1.0  0.01376  0.52171  0.85475  1.0000
  C   C697      1.0  0.19413  0.53539  0.97876  1.0000
  H   H1230     1.0  0.07853  0.66051  0.79035  1.0000
  C   C698      1.0  0.13293  0.61460  0.97170  1.0000
  H   H1231     1.0  0.18673  0.56517  0.94580  1.0000
  H   H1232     1.0  0.06037  0.61997  0.96275  1.0000
  N   N44       1.0  0.01432  0.54829  0.92903  1.0000
  C   C699      1.0  0.08950  0.52719  0.87157  1.0000
  C   C700      1.0  0.15203  0.51445  0.87516  1.0000
  H   H1233     1.0  0.07575  0.65050  0.77372  1.0000
  H   H1234     1.0  0.15839  0.56555  0.93012  1.0000
  C   C701      1.0  0.10356  0.62115  0.96427  1.0000
  H   H1235     1.0  0.12307  0.54286  0.89579  1.0000
  H   H1236     1.0  0.02383  0.94200  0.51351  1.0000
  S   S149      1.0  0.12784  0.51796  0.82825  1.0000
  H   H1237     1.0  0.02864  0.58412  0.87105  1.0000
  C   C702      1.0  0.07995  0.51886  0.89047  1.0000
  H   H1238     1.0  0.00760  0.81458  0.57966  1.0000
  H   H1239     1.0  0.08549  0.63675  0.79210  1.0000
  H   H1240     1.0  0.03225  0.76700  0.57917  1.0000
  H   H1241     1.0  0.06552  0.53495  0.86068  1.0000
  C   C703      1.0  0.02164  0.65578  0.82344  1.0000
  H   H1242     1.0  0.08892  0.91076  0.59566  1.0000
  C   C704      1.0  0.01358  0.51563  0.92988  1.0000
  H   H1243     1.0  0.02999  0.92474  0.65246  1.0000
  H   H1244     1.0  0.05439  0.63411  0.79682  1.0000
  C   C705      1.0  0.02461  0.57136  0.87833  1.0000
  H   H1245     1.0  0.10992  0.55263  0.91436  1.0000
  H   H1246     1.0  0.07005  0.55240  0.86824  1.0000
  C   C706      1.0  0.07618  0.54102  0.86153  1.0000
  H   H1247     1.0  0.02174  0.64995  0.78252  1.0000
  H   H1248     1.0  0.19455  0.49810  0.96508  1.0000
  C   C707      1.0  0.15261  0.67059  0.96945  1.0000
  C   C708      1.0  0.01691  0.55173  0.90901  1.0000
  H   H1249     1.0  0.10065  0.67644  0.98587  1.0000
  C   C709      1.0  0.08729  0.85540  0.52617  1.0000
  H   H1250     1.0  0.01633  0.65503  0.85919  1.0000
  H   H1251     1.0  0.11860  0.51148  0.73790  1.0000
  H   H1252     1.0  0.00117  0.67721  0.96563  1.0000
  H   H1253     1.0  0.03974  0.64585  0.85193  1.0000
  H   H1254     1.0  0.02644  0.54036  0.90372  1.0000
  H   H1255     1.0  0.01286  0.98587  0.63832  1.0000
  C   C710      1.0  0.02413  0.56860  0.89813  1.0000
  H   H1256     1.0  0.03793  0.56747  0.89938  1.0000
  C   C711      1.0  0.08499  0.91948  0.58330  1.0000
  C   C712      1.0  0.04857  0.67070  0.97017  1.0000
  H   H1257     1.0  0.15234  0.54214  0.86386  1.0000
  C   C713      1.0  0.09655  0.67559  0.97402  1.0000
  H   H1258     1.0  0.05302  0.92750  0.62496  1.0000
  H   H1259     1.0  0.08138  0.60907  0.95101  1.0000
  H   H1260     1.0  0.02169  0.51893  0.87959  1.0000
  H   H1261     1.0  0.01234  0.79336  0.52386  1.0000
  S   S150      1.0  0.15575  0.50239  0.97705  1.0000
  H   H1262     1.0  0.03260  0.66740  0.85778  1.0000
  H   H1263     1.0  0.16457  0.56136  0.90034  1.0000
  H   H1264     1.0  0.10418  0.98681  0.61602  1.0000
  H   H1265     1.0  0.01759  0.76224  0.61969  1.0000
  C   C714      1.0  0.07012  0.97724  0.60255  1.0000
  H   H1266     1.0  0.01299  0.75086  0.60516  1.0000
  C   C715      1.0  0.04653  0.96854  0.59512  1.0000
  C   C716      1.0  0.99907  0.62135  0.86540  1.0000
  C   C717      1.0  0.04214  0.66280  0.79398  1.0000
  H   H1267     1.0  0.12367  0.53053  0.91827  1.0000
  H   H1268     1.0  0.08657  0.95354  0.58522  1.0000
  C   C718      1.0  0.03252  0.54404  0.93336  1.0000
  Fe  Fe75      1.0  0.01563  0.65864  0.93437  1.0000
  S   S151      1.0  0.04291  0.88012  0.50152  1.0000
  C   C719      1.0  0.05681  0.64625  0.79914  1.0000
  C   C720      1.0  0.07524  0.64873  0.78811  1.0000
  H   H1269     1.0  0.16928  0.54860  0.94574  1.0000
  H   H1270     1.0  0.04902  0.93029  0.65608  1.0000
  H   H1271     1.0  0.11082  0.86379  0.50971  1.0000
  H   H1272     1.0  0.04345  0.66498  0.77937  1.0000
  H   H1273     1.0  0.08348  0.68491  0.97331  1.0000
  S   S152      1.0  0.07085  0.50076  0.78981  1.0000
  H   H1274     1.0  0.04556  0.67474  0.79578  1.0000
  H   H1275     1.0  0.02815  0.55320  0.95783  1.0000
  H   H1276     1.0  0.09974  0.53400  0.87200  1.0000
  H   H1277     1.0  0.01633  0.53003  0.84115  1.0000
  H   H1278     1.0  0.00054  0.71511  0.78205  1.0000
  H   H1279     1.0  0.19584  0.52860  0.93696  1.0000
  H   H1280     1.0  0.08665  0.88105  0.49565  1.0000
  C   C721      1.0  0.00259  0.50593  0.83151  1.0000
  H   H1281     1.0  0.15003  0.53441  0.98910  1.0000
  C   C722      1.0  0.05087  0.97796  0.57512  1.0000
  C   C723      1.0  0.08076  0.50041  0.92039  1.0000
  C   C724      1.0  0.02378  0.52684  0.86571  1.0000
  H   H1282     1.0  0.00649  0.62902  0.85393  1.0000
  C   C725      1.0  0.00904  0.77974  0.59594  1.0000
  H   H1283     1.0  0.00628  0.83242  0.60156  1.0000
  H   H1284     1.0  0.00613  0.70598  0.94696  1.0000
  C   C726      1.0  0.19243  0.56397  0.91740  1.0000
  H   H1285     1.0  0.16002  0.50444  0.80011  1.0000
  C   C727      1.0  0.04964  0.66941  0.98783  1.0000
  C   C728      1.0  0.18924  0.50996  0.97055  1.0000
  H   H1286     1.0  0.17610  0.53923  0.89915  1.0000
  H   H1287     1.0  0.01360  0.81596  0.51248  1.0000
  H   H1288     1.0  0.18701  0.52091  0.92324  1.0000
  H   H1289     1.0  0.03303  0.50041  0.84384  1.0000
  C   C729      1.0  0.11685  0.50725  0.75259  1.0000
  C   C730      1.0  0.19835  0.56323  0.93462  1.0000
  H   H1290     1.0  0.02248  0.97404  0.50341  1.0000
  C   C731      1.0  0.00540  0.70354  0.96146  1.0000
  C   C732      1.0  0.18523  0.55810  0.86685  1.0000
  H   H1291     1.0  0.02225  0.78099  0.55334  1.0000
  H   H1292     1.0  0.06102  0.54257  0.94736  1.0000
  H   H1293     1.0  0.05558  0.67860  0.99085  1.0000
  C   C733      1.0  0.19536  0.66720  0.98876  1.0000
  C   C734      1.0  0.03314  0.54047  0.95321  1.0000
  H   H1294     1.0  0.19415  0.56397  0.85465  1.0000
  H   H1295     1.0  0.07592  0.98259  0.58842  1.0000
  H   H1296     1.0  0.05766  0.51995  0.95322  1.0000
  H   H1297     1.0  0.00413  0.79137  0.60236  1.0000
  H   H1298     1.0  0.01506  0.50706  0.82116  1.0000
  H   H1299     1.0  0.18660  0.54385  0.86686  1.0000
  C   C735      1.0  0.02004  0.50177  0.85368  1.0000
  H   H1300     1.0  0.00724  0.63074  0.88422  1.0000
  H   H1301     1.0  0.10253  0.50718  0.75847  1.0000
  H   H1302     1.0  0.19647  0.99319  0.54377  1.0000
  Fe  Fe76      1.0  0.19810  0.57182  0.99271  1.0000
  H   H1303     1.0  0.10200  0.99026  0.59338  1.0000
  H   H1304     1.0  0.99946  0.78017  0.58796  1.0000
  C   C736      1.0  0.19039  0.55975  0.88333  1.0000
  H   H1305     1.0  0.00579  0.67807  0.77437  1.0000
  C   C737      1.0  0.14079  0.49993  0.85862  1.0000
  C   C738      1.0  0.99944  0.62239  0.88253  1.0000
  H   H1306     1.0  0.99894  0.95149  0.54804  1.0000
  H   H1307     1.0  0.01268  0.51771  0.91581  1.0000
  H   H1308     1.0  0.08162  0.60919  0.98235  1.0000
  C   C739      1.0  0.99914  0.93870  0.54502  1.0000
  H   H1309     1.0  0.00310  0.52936  0.95160  1.0000
  H   H1310     1.0  0.15283  0.99388  0.51596  1.0000
  C   C740      1.0  0.00401  0.50060  0.94058  1.0000
  H   H1311     1.0  0.00483  0.49752  0.95478  1.0000
  C   C741      1.0  0.00491  0.53297  0.93693  1.0000
  S   S153      1.0  0.16998  0.58680  0.99264  1.0000
  H   H1312     1.0  0.99927  0.52518  0.86055  1.0000
  C   C742      1.0  0.03443  0.99543  0.64173  1.0000
  H   H1313     1.0  0.08023  0.86188  0.49405  1.0000
  H   H1314     1.0  0.00862  0.67840  0.99297  1.0000
  H   H1315     1.0  0.99889  0.71623  0.96593  1.0000
  C   C743      1.0  0.02099  0.99577  0.63316  1.0000
  C   C744      1.0  0.37247  0.01110  0.00326  1.0000
  H   H1316     1.0  0.39212  0.99789  0.04453  1.0000
  H   H1317     1.0  0.39001  0.13769  0.00807  1.0000
  H   H1318     1.0  0.32641  0.00026  0.16639  1.0000
  C   C745      1.0  0.20242  0.00614  0.48243  1.0000
  H   H1319     1.0  0.20714  0.02061  0.26397  1.0000
  H   H1320     1.0  0.21082  0.02459  0.49224  1.0000
  H   H1321     1.0  0.26708  0.01838  0.46303  1.0000
  C   C746      1.0  0.20798  0.03500  0.46512  1.0000
  S   S154      1.0  0.39239  0.10369  0.00165  1.0000
  H   H1322     1.0  0.36209  0.00990  0.16365  1.0000
  S   S155      1.0  0.36185  0.03284  0.00618  1.0000
  C   C747      1.0  0.23021  0.01162  0.40193  1.0000
  H   H1323     1.0  0.20393  0.04153  0.43831  1.0000
  H   H1324     1.0  0.23258  0.00064  0.39494  1.0000
  H   H1325     1.0  0.32954  0.01780  0.17466  1.0000
  C   C748      1.0  0.20710  0.02229  0.48113  1.0000
  H   H1326     1.0  0.23263  0.02385  0.39182  1.0000
  H   H1327     1.0  0.24799  0.12140  0.48968  1.0000
  H   H1328     1.0  0.21217  0.01475  0.24262  1.0000
  S   S156      1.0  0.21645  0.05414  0.46222  1.0000
  C   C749      1.0  0.35416  0.99986  0.16535  1.0000
  H   H1329     1.0  0.25658  0.00491  0.40697  1.0000
  C   C750      1.0  0.20472  0.01183  0.25662  1.0000
  H   H1330     1.0  0.39101  0.99966  0.15397  1.0000
  H   H1331     1.0  0.25666  0.00904  0.44137  1.0000
  S   S157      1.0  0.21503  0.09469  0.48329  1.0000
  Fe  Fe77      1.0  0.21179  0.06667  0.48588  1.0000
  H   H1332     1.0  0.20234  0.99669  0.29193  1.0000
  C   C751      1.0  0.24269  0.00690  0.41484  1.0000
  C   C752      1.0  0.20328  0.03176  0.45074  1.0000
  H   H1333     1.0  0.23995  0.01858  0.42095  1.0000
  H   H1334     1.0  0.32926  0.05592  0.99451  1.0000
  H   H1335     1.0  0.25541  0.15056  0.48662  1.0000
  H   H1336     1.0  0.25598  0.35702  0.48974  1.0000
  H   H1337     1.0  0.35403  0.12859  0.99683  1.0000
  C   C753      1.0  0.25800  0.01072  0.47350  1.0000
  H   H1338     1.0  0.21603  0.01421  0.40914  1.0000
  H   H1339     1.0  0.23568  0.00543  0.45470  1.0000
  C   C754      1.0  0.24991  0.99867  0.45103  1.0000
  H   H1340     1.0  0.36110  0.99781  0.13793  1.0000
  H   H1341     1.0  0.39028  0.00109  0.13173  1.0000
  H   H1342     1.0  0.33472  0.01901  0.15103  1.0000
  H   H1343     1.0  0.26286  0.00702  0.48606  1.0000
  H   H1344     1.0  0.24447  0.01941  0.47571  1.0000
  C   C755      1.0  0.33505  0.00982  0.16422  1.0000
  H   H1345     1.0  0.36776  0.99954  0.03130  1.0000
  C   C756      1.0  0.37358  0.99698  0.01812  1.0000
  H   H1346     1.0  0.35009  0.15735  0.89350  1.0000
  Fe  Fe78      1.0  0.28682  0.16245  0.90463  1.0000
  S   S158      1.0  0.26049  0.17577  0.89660  1.0000
  S   S159      1.0  0.29098  0.14985  0.93252  1.0000
  Fe  Fe79      1.0  0.30793  0.16800  0.86725  1.0000
  S   S160      1.0  0.28410  0.18147  0.85559  1.0000
  S   S161      1.0  0.33457  0.16226  0.84926  1.0000
  Fe  Fe80      1.0  0.27532  0.19608  0.87777  1.0000
  S   S162      1.0  0.26341  0.22491  0.86759  1.0000
  Fe  Fe81      1.0  0.27110  0.16036  0.87485  1.0000
  S   S163      1.0  0.25319  0.14862  0.86608  1.0000
  S   S164      1.0  0.30067  0.18440  0.88783  1.0000
  S   S165      1.0  0.29591  0.14519  0.88452  1.0000
  Fe  Fe82      1.0  0.33390  0.10650  0.77348  1.0000
  S   S166      1.0  0.34563  0.11516  0.74429  1.0000
  S   S167      1.0  0.34717  0.08499  0.79380  1.0000
  Fe  Fe83      1.0  0.29961  0.13443  0.77181  1.0000
  S   S168      1.0  0.30886  0.14554  0.74289  1.0000
  S   S169      1.0  0.27193  0.14730  0.78423  1.0000
  Fe  Fe84      1.0  0.31795  0.11701  0.74034  1.0000
  S   S170      1.0  0.31129  0.11105  0.71678  1.0000
  Fe  Fe85      1.0  0.33517  0.14283  0.74956  1.0000
  S   S171      1.0  0.34887  0.16622  0.74061  1.0000
  S   S172      1.0  0.30726  0.10598  0.76907  1.0000
  S   S173      1.0  0.32501  0.13401  0.77877  1.0000
  H   H1347     1.0  0.32758  0.04593  0.92126  1.0000
  C   C757      1.0  0.20154  0.14476  0.56736  1.0000
  C   C758      1.0  0.35031  0.05818  0.93488  1.0000
  C   C759      1.0  0.20408  0.38965  0.83835  1.0000
  C   C760      1.0  0.34644  0.11366  0.93134  1.0000
  Fe  Fe86      1.0  0.26907  0.17073  0.57137  1.0000
  S   S174      1.0  0.24622  0.16758  0.56216  1.0000
  S   S175      1.0  0.28538  0.14924  0.58886  1.0000
  Fe  Fe87      1.0  0.26966  0.20770  0.54855  1.0000
  S   S176      1.0  0.24712  0.20764  0.53661  1.0000
  S   S177      1.0  0.28565  0.22939  0.54004  1.0000
  Fe  Fe88      1.0  0.23441  0.19600  0.56455  1.0000
  H   H1348     1.0  0.22556  0.17615  0.69223  1.0000
  Fe  Fe89      1.0  0.26014  0.17911  0.53498  1.0000
  S   S178      1.0  0.26087  0.16741  0.51173  1.0000
  S   S179      1.0  0.25602  0.19808  0.57672  1.0000
  S   S180      1.0  0.28409  0.18041  0.54392  1.0000
  C   C761      1.0  0.30923  0.04789  0.59501  1.0000
  H   H1349     1.0  0.36795  0.15085  0.97293  1.0000
  H   H1350     1.0  0.38804  0.10623  0.74098  1.0000
  H   H1351     1.0  0.22154  0.17714  0.51740  1.0000
  Fe  Fe90      1.0  0.23159  0.08689  0.69190  1.0000
  S   S181      1.0  0.22786  0.06708  0.67812  1.0000
  S   S182      1.0  0.24464  0.08125  0.71578  1.0000
  Fe  Fe91      1.0  0.22456  0.08398  0.50903  1.0000
  Fe  Fe92      1.0  0.23653  0.08649  0.65291  1.0000
  S   S183      1.0  0.25642  0.07951  0.62860  1.0000
  S   S184      1.0  0.24210  0.10475  0.66660  1.0000
  Fe  Fe93      1.0  0.33567  0.31806  0.56627  1.0000
  S   S185      1.0  0.31541  0.31355  0.59192  1.0000
  S   S186      1.0  0.33565  0.34384  0.54567  1.0000
  H   H1352     1.0  0.20905  0.30899  0.74014  1.0000
  S   S187      1.0  0.33802  0.27189  0.59878  1.0000
  H   H1353     1.0  0.20661  0.01897  0.60398  1.0000
  Fe  Fe94      1.0  0.31585  0.28788  0.58488  1.0000
  S   S188      1.0  0.29074  0.27743  0.58960  1.0000
  Fe  Fe95      1.0  0.33915  0.29807  0.60363  1.0000
  S   S189      1.0  0.34264  0.29953  0.63033  1.0000
  S   S190      1.0  0.33401  0.29379  0.55827  1.0000
  H   H1354     1.0  0.20271  0.99600  0.49452  1.0000
  H   H1355     1.0  0.31495  0.09694  0.55324  1.0000
  H   H1356     1.0  0.31452  0.06643  0.56024  1.0000
  S   S191      1.0  0.24382  0.09182  0.52049  1.0000
  H   H1357     1.0  0.25958  0.43873  0.80867  1.0000
  H   H1358     1.0  0.29935  0.10186  0.57279  1.0000
  H   H1359     1.0  0.35938  0.17675  0.88878  1.0000
  Fe  Fe96      1.0  0.37357  0.37136  0.65730  1.0000
  S   S192      1.0  0.37527  0.35067  0.68232  1.0000
  S   S193      1.0  0.36317  0.36967  0.63431  1.0000
  Fe  Fe97      1.0  0.36538  0.37362  0.69609  1.0000
  S   S194      1.0  0.34432  0.36845  0.72098  1.0000
  H   H1360     1.0  0.30670  0.06741  0.99250  1.0000
  C   C762      1.0  0.37092  0.15198  0.91832  1.0000
  S   S195      1.0  0.36147  0.39412  0.67124  1.0000
  S   S196      1.0  0.36477  0.08321  0.98276  1.0000
  H   H1361     1.0  0.32119  0.14381  0.90389  1.0000
  Fe  Fe98      1.0  0.24891  0.41381  0.74836  1.0000
  S   S197      1.0  0.24631  0.40261  0.77766  1.0000
  S   S198      1.0  0.27178  0.42568  0.73043  1.0000
  H   H1362     1.0  0.28092  0.12663  0.55740  1.0000
  C   C763      1.0  0.25256  0.14206  0.49967  1.0000
  C   C764      1.0  0.30716  0.13184  0.54605  1.0000
  S   S199      1.0  0.24227  0.39078  0.74253  1.0000
  S   S200      1.0  0.22089  0.42992  0.75122  1.0000
  Fe  Fe99      1.0  0.22203  0.30662  0.90735  1.0000
  H   H1363     1.0  0.33408  0.04426  0.96722  1.0000
  S   S201      1.0  0.23526  0.27869  0.91945  1.0000
  Fe  Fe100     1.0  0.22903  0.34052  0.88149  1.0000
  H   H1364     1.0  0.36433  0.46729  0.54509  1.0000
  S   S202      1.0  0.25115  0.35250  0.86245  1.0000
  S   S203      1.0  0.38143  0.47374  0.50490  1.0000
  H   H1365     1.0  0.35721  0.04554  0.91175  1.0000
  H   H1366     1.0  0.36756  0.17517  0.94224  1.0000
  S   S204      1.0  0.22894  0.33094  0.91057  1.0000
  S   S205      1.0  0.22426  0.31552  0.87791  1.0000
  Fe  Fe101     1.0  0.21746  0.41657  0.78011  1.0000
  H   H1367     1.0  0.24322  0.08291  0.59559  1.0000
  H   H1368     1.0  0.37829  0.12807  0.97070  1.0000
  H   H1369     1.0  0.32341  0.04496  0.58792  1.0000
  H   H1370     1.0  0.29482  0.35290  0.57664  1.0000
  H   H1371     1.0  0.30215  0.14544  0.53871  1.0000
  H   H1372     1.0  0.32759  0.31439  0.51033  1.0000
  H   H1373     1.0  0.29577  0.08004  0.95200  1.0000
  C   C765      1.0  0.20559  0.22049  0.59766  1.0000
  C   C766      1.0  0.20217  0.20639  0.90046  1.0000
  C   C767      1.0  0.38035  0.47547  0.60079  1.0000
  C   C768      1.0  0.37957  0.00769  0.98620  1.0000
  H   H1374     1.0  0.20261  0.06971  0.64581  1.0000
  C   C769      1.0  0.39411  0.18775  0.57043  1.0000
  H   H1375     1.0  0.27603  0.36697  0.56761  1.0000
  C   C770      1.0  0.25260  0.42965  0.80617  1.0000
  H   H1376     1.0  0.21282  0.37475  0.91532  1.0000
  H   H1377     1.0  0.21919  0.40390  0.91431  1.0000
  C   C771      1.0  0.37849  0.09693  0.78273  1.0000
  H   H1378     1.0  0.38440  0.17489  0.92272  1.0000
  C   C772      1.0  0.24830  0.35265  0.80639  1.0000
  C   C773      1.0  0.26215  0.35857  0.80909  1.0000
  C   C774      1.0  0.26290  0.35878  0.82636  1.0000
  C   C775      1.0  0.24976  0.35316  0.84083  1.0000
  C   C776      1.0  0.23558  0.34792  0.83799  1.0000
  C   C777      1.0  0.23492  0.34751  0.82081  1.0000
  H   H1379     1.0  0.27230  0.36293  0.79785  1.0000
  H   H1380     1.0  0.27363  0.36328  0.82849  1.0000
  H   H1381     1.0  0.22494  0.34436  0.84896  1.0000
  H   H1382     1.0  0.22396  0.34334  0.81876  1.0000
  H   H1383     1.0  0.24472  0.42332  0.69169  1.0000
  H   H1384     1.0  0.27612  0.33436  0.50694  1.0000
  H   H1385     1.0  0.35150  0.17736  0.92095  1.0000
  C   C778      1.0  0.32421  0.38448  0.72309  1.0000
  C   C779      1.0  0.32316  0.40195  0.71311  1.0000
  C   C780      1.0  0.30703  0.41461  0.71549  1.0000
  C   C781      1.0  0.29189  0.40977  0.72767  1.0000
  C   C782      1.0  0.29287  0.39220  0.73737  1.0000
  C   C783      1.0  0.30903  0.37962  0.73516  1.0000
  H   H1386     1.0  0.33487  0.40583  0.70391  1.0000
  H   H1387     1.0  0.30631  0.42820  0.70799  1.0000
  H   H1388     1.0  0.28125  0.38838  0.74680  1.0000
  H   H1389     1.0  0.30980  0.36613  0.74291  1.0000
  H   H1390     1.0  0.38356  0.23470  0.71699  1.0000
  H   H1391     1.0  0.21121  0.09529  0.73898  1.0000
  H   H1392     1.0  0.25503  0.31999  0.52987  1.0000
  H   H1393     1.0  0.25793  0.41212  0.70810  1.0000
  H   H1394     1.0  0.32359  0.07683  0.91696  1.0000
  H   H1395     1.0  0.35127  0.02345  0.93769  1.0000
  H   H1396     1.0  0.38166  0.29592  0.61352  1.0000
  C   C784      1.0  0.34572  0.06299  0.75742  1.0000
  C   C785      1.0  0.35041  0.35600  0.54735  1.0000
  C   C786      1.0  0.35610  0.36943  0.53306  1.0000
  C   C787      1.0  0.36837  0.37867  0.53429  1.0000
  C   C788      1.0  0.37485  0.37450  0.54988  1.0000
  H   H1397     1.0  0.20486  0.13439  0.78626  1.0000
  C   C789      1.0  0.35664  0.35224  0.56297  1.0000
  H   H1398     1.0  0.23335  0.07467  0.58249  1.0000
  H   H1399     1.0  0.35194  0.34239  0.57423  1.0000
  C   C790      1.0  0.34845  0.31901  0.63133  1.0000
  C   C791      1.0  0.35449  0.31937  0.64615  1.0000
  C   C792      1.0  0.35913  0.33480  0.64722  1.0000
  C   C793      1.0  0.35750  0.35003  0.63357  1.0000
  C   C794      1.0  0.35145  0.34966  0.61877  1.0000
  C   C795      1.0  0.34702  0.33418  0.61761  1.0000
  H   H1400     1.0  0.35576  0.30763  0.65674  1.0000
  H   H1401     1.0  0.36406  0.33484  0.65852  1.0000
  H   H1402     1.0  0.35030  0.36135  0.60808  1.0000
  H   H1403     1.0  0.34231  0.33405  0.60619  1.0000
  C   C796      1.0  0.28630  0.24280  0.55411  1.0000
  C   C797      1.0  0.27619  0.24156  0.57153  1.0000
  C   C798      1.0  0.27745  0.25240  0.58224  1.0000
  C   C799      1.0  0.28908  0.26427  0.57575  1.0000
  C   C800      1.0  0.29908  0.26553  0.55833  1.0000
  C   C801      1.0  0.29756  0.25498  0.54753  1.0000
  H   H1404     1.0  0.26734  0.23234  0.57670  1.0000
  H   H1405     1.0  0.26955  0.25143  0.59567  1.0000
  H   H1406     1.0  0.30814  0.27450  0.55321  1.0000
  H   H1407     1.0  0.30530  0.25607  0.53404  1.0000
  H   H1408     1.0  0.35008  0.15399  0.95105  1.0000
  C   C802      1.0  0.28775  0.35582  0.56562  1.0000
  H   H1409     1.0  0.21984  0.21832  0.59257  1.0000
  C   C803      1.0  0.37601  0.07413  0.80974  1.0000
  C   C804      1.0  0.29200  0.08776  0.53896  1.0000
  C   C805      1.0  0.25781  0.10521  0.77081  1.0000
  H   H1410     1.0  0.30802  0.24784  0.83549  1.0000
  C   C806      1.0  0.24562  0.11984  0.53310  1.0000
  C   C807      1.0  0.25019  0.13616  0.53139  1.0000
  C   C808      1.0  0.29275  0.07010  0.53384  1.0000
  H   H1411     1.0  0.38761  0.27085  0.69508  1.0000
  H   H1412     1.0  0.24280  0.11131  0.54603  1.0000
  H   H1413     1.0  0.25128  0.13992  0.54296  1.0000
  C   C809      1.0  0.27734  0.12956  0.59827  1.0000
  C   C810      1.0  0.25942  0.12936  0.60012  1.0000
  C   C811      1.0  0.25290  0.11401  0.60955  1.0000
  C   C812      1.0  0.26446  0.09865  0.61657  1.0000
  C   C813      1.0  0.28251  0.09861  0.61407  1.0000
  C   C814      1.0  0.28891  0.11409  0.60509  1.0000
  H   H1414     1.0  0.25044  0.14114  0.59482  1.0000
  H   H1415     1.0  0.23892  0.11406  0.61145  1.0000
  H   H1416     1.0  0.29142  0.08679  0.61963  1.0000
  H   H1417     1.0  0.30275  0.11420  0.60378  1.0000
  C   C815      1.0  0.29185  0.10370  0.71744  1.0000
  C   C816      1.0  0.28367  0.10993  0.70270  1.0000
  C   C817      1.0  0.26896  0.10356  0.70223  1.0000
  C   C818      1.0  0.26254  0.09043  0.71624  1.0000
  C   C819      1.0  0.27052  0.08441  0.73112  1.0000
  C   C820      1.0  0.28501  0.09105  0.73177  1.0000
  H   H1418     1.0  0.28882  0.11968  0.69154  1.0000
  H   H1419     1.0  0.26267  0.10862  0.69096  1.0000
  H   H1420     1.0  0.26567  0.07429  0.74207  1.0000
  H   H1421     1.0  0.29125  0.08595  0.74312  1.0000
  C   C821      1.0  0.36623  0.16418  0.75131  1.0000
  H   H1422     1.0  0.22277  0.18787  0.53384  1.0000
  H   H1423     1.0  0.37531  0.22086  0.56418  1.0000
  H   H1424     1.0  0.36424  0.13754  0.85666  1.0000
  C   C822      1.0  0.23587  0.18429  0.68605  1.0000
  C   C823      1.0  0.36955  0.17940  0.75434  1.0000
  S   S206      1.0  0.20436  0.20279  0.57300  1.0000
  H   H1425     1.0  0.35932  0.13156  0.94874  1.0000
  H   H1426     1.0  0.36100  0.19225  0.75067  1.0000
  H   H1427     1.0  0.37272  0.21049  0.54818  1.0000
  C   C824      1.0  0.33438  0.11441  0.94763  1.0000
  H   H1428     1.0  0.29748  0.20053  0.81502  1.0000
  C   C825      1.0  0.25591  0.23923  0.88251  1.0000
  C   C826      1.0  0.25921  0.23405  0.89970  1.0000
  C   C827      1.0  0.25290  0.24621  0.91107  1.0000
  C   C828      1.0  0.24302  0.26336  0.90536  1.0000
  C   C829      1.0  0.23952  0.26816  0.88832  1.0000
  C   C830      1.0  0.24632  0.25638  0.87680  1.0000
  H   H1429     1.0  0.26665  0.22077  0.90421  1.0000
  H   H1430     1.0  0.25556  0.24230  0.92433  1.0000
  H   H1431     1.0  0.23118  0.28075  0.88408  1.0000
  H   H1432     1.0  0.24378  0.26049  0.86352  1.0000
  C   C831      1.0  0.36682  0.20548  0.83008  1.0000
  C   C832      1.0  0.35113  0.20766  0.84316  1.0000
  C   C833      1.0  0.34066  0.19475  0.84879  1.0000
  C   C834      1.0  0.34598  0.17966  0.84134  1.0000
  C   C835      1.0  0.36116  0.17798  0.82766  1.0000
  C   C836      1.0  0.37134  0.19102  0.82184  1.0000
  H   H1433     1.0  0.34728  0.21912  0.84918  1.0000
  H   H1434     1.0  0.32879  0.19625  0.85916  1.0000
  H   H1435     1.0  0.36515  0.16653  0.82160  1.0000
  H   H1436     1.0  0.35233  0.06949  0.90611  1.0000
  C   C837      1.0  0.25907  0.14792  0.84340  1.0000
  C   C838      1.0  0.27685  0.14243  0.83483  1.0000
  C   C839      1.0  0.28100  0.14171  0.81670  1.0000
  C   C840      1.0  0.26742  0.14692  0.80710  1.0000
  C   C841      1.0  0.24974  0.15243  0.81571  1.0000
  C   C842      1.0  0.24556  0.15267  0.83384  1.0000
  H   H1437     1.0  0.28732  0.13856  0.84224  1.0000
  H   H1438     1.0  0.29466  0.13725  0.81019  1.0000
  H   H1439     1.0  0.23920  0.15643  0.80839  1.0000
  H   H1440     1.0  0.23182  0.15679  0.84044  1.0000
  H   H1441     1.0  0.35849  0.11274  0.84878  1.0000
  C   C843      1.0  0.34152  0.12425  0.91570  1.0000
  C   C844      1.0  0.32460  0.13540  0.91609  1.0000
  C   C845      1.0  0.31235  0.13605  0.93224  1.0000
  H   H1442     1.0  0.35106  0.12418  0.90326  1.0000
  C   C846      1.0  0.30221  0.32176  0.52813  1.0000
  N   N45       1.0  0.25798  0.16289  0.64444  1.0000
  C   C847      1.0  0.24421  0.17193  0.65817  1.0000
  C   C848      1.0  0.24898  0.16018  0.63128  1.0000
  C   C849      1.0  0.26653  0.14471  0.65399  1.0000
  C   C850      1.0  0.27263  0.17299  0.63514  1.0000
  C   C851      1.0  0.26700  0.19240  0.62503  1.0000
  C   C852      1.0  0.25115  0.17484  0.67326  1.0000
  C   C853      1.0  0.27787  0.13147  0.64194  1.0000
  C   C854      1.0  0.23324  0.17517  0.62551  1.0000
  C   C855      1.0  0.22737  0.17111  0.61069  1.0000
  C   C856      1.0  0.28245  0.20203  0.61935  1.0000
  C   C857      1.0  0.39393  0.07281  0.81004  1.0000
  C   C858      1.0  0.28912  0.11521  0.65208  1.0000
  H   H1443     1.0  0.23369  0.16401  0.66455  1.0000
  H   H1444     1.0  0.23704  0.18516  0.65196  1.0000
  H   H1445     1.0  0.25901  0.15755  0.61907  1.0000
  H   H1446     1.0  0.24318  0.14807  0.63689  1.0000
  H   H1447     1.0  0.25611  0.13796  0.66365  1.0000
  H   H1448     1.0  0.27535  0.14599  0.66204  1.0000
  H   H1449     1.0  0.28051  0.17298  0.64469  1.0000
  H   H1450     1.0  0.28242  0.16612  0.62498  1.0000
  H   H1451     1.0  0.25570  0.20030  0.63314  1.0000
  H   H1452     1.0  0.26338  0.19230  0.61263  1.0000
  H   H1453     1.0  0.25713  0.16194  0.68119  1.0000
  H   H1454     1.0  0.26125  0.18322  0.66777  1.0000
  H   H1455     1.0  0.28714  0.13773  0.63043  1.0000
  H   H1456     1.0  0.26897  0.12653  0.63676  1.0000
  H   H1457     1.0  0.22154  0.17620  0.63675  1.0000
  H   H1458     1.0  0.23652  0.18845  0.62073  1.0000
  H   H1459     1.0  0.23861  0.17003  0.59910  1.0000
  H   H1460     1.0  0.22259  0.15845  0.61535  1.0000
  H   H1461     1.0  0.21650  0.18207  0.60636  1.0000
  H   H1462     1.0  0.21168  0.20679  0.49821  1.0000
  H   H1463     1.0  0.29408  0.19474  0.61091  1.0000
  H   H1464     1.0  0.22927  0.42643  0.87550  1.0000
  C   C859      1.0  0.29172  0.09833  0.92759  1.0000
  C   C860      1.0  0.32092  0.06843  0.98830  1.0000
  H   H1465     1.0  0.33386  0.02096  0.95734  1.0000
  H   H1466     1.0  0.29821  0.11928  0.65785  1.0000
  H   H1467     1.0  0.28045  0.10737  0.66281  1.0000
  H   H1468     1.0  0.29733  0.10644  0.64285  1.0000
  N   N46       1.0  0.28682  0.29532  0.85510  1.0000
  C   C861      1.0  0.29883  0.27875  0.84927  1.0000
  C   C862      1.0  0.29538  0.31127  0.84657  1.0000
  C   C863      1.0  0.28465  0.29209  0.87505  1.0000
  C   C864      1.0  0.26854  0.29901  0.85121  1.0000
  C   C865      1.0  0.26769  0.30168  0.83153  1.0000
  C   C866      1.0  0.29162  0.26136  0.85672  1.0000
  C   C867      1.0  0.27491  0.30835  0.88372  1.0000
  C   C868      1.0  0.30688  0.31207  0.82738  1.0000
  C   C869      1.0  0.31212  0.33010  0.81951  1.0000
  C   C870      1.0  0.30525  0.24558  0.85022  1.0000
  C   C871      1.0  0.27539  0.30378  0.90346  1.0000
  H   H1469     1.0  0.31196  0.27624  0.85296  1.0000
  H   H1470     1.0  0.30200  0.28047  0.83462  1.0000
  H   H1471     1.0  0.28501  0.32390  0.84659  1.0000
  H   H1472     1.0  0.30459  0.31191  0.85458  1.0000
  H   H1473     1.0  0.29796  0.28705  0.87868  1.0000
  H   H1474     1.0  0.27688  0.28158  0.88205  1.0000
  H   H1475     1.0  0.26139  0.28835  0.85939  1.0000
  H   H1476     1.0  0.26020  0.31143  0.85539  1.0000
  H   H1477     1.0  0.27747  0.29135  0.82499  1.0000
  H   H1478     1.0  0.27014  0.31505  0.82413  1.0000
  H   H1479     1.0  0.28878  0.25783  0.87146  1.0000
  H   H1480     1.0  0.27925  0.26274  0.85217  1.0000
  H   H1481     1.0  0.26071  0.31231  0.88274  1.0000
  H   H1482     1.0  0.28106  0.32006  0.87742  1.0000
  H   H1483     1.0  0.31943  0.30172  0.82757  1.0000
  H   H1484     1.0  0.29987  0.30983  0.81826  1.0000
  H   H1485     1.0  0.30010  0.34088  0.81800  1.0000
  H   H1486     1.0  0.31935  0.33300  0.82813  1.0000
  H   H1487     1.0  0.32098  0.32999  0.80614  1.0000
  C   C872      1.0  0.37821  0.22285  0.71829  1.0000
  H   H1488     1.0  0.24312  0.39944  0.89074  1.0000
  H   H1489     1.0  0.29991  0.23326  0.85591  1.0000
  H   H1490     1.0  0.26840  0.31555  0.90939  1.0000
  H   H1491     1.0  0.26858  0.29262  0.91069  1.0000
  H   H1492     1.0  0.28936  0.30000  0.90526  1.0000
  H   H1493     1.0  0.38451  0.05613  0.89677  1.0000
  N   N47       1.0  0.30338  0.39217  0.67059  1.0000
  C   C873      1.0  0.31772  0.37798  0.67845  1.0000
  C   C874      1.0  0.31036  0.40904  0.66232  1.0000
  C   C875      1.0  0.28778  0.39615  0.68573  1.0000
  C   C876      1.0  0.29695  0.38645  0.65727  1.0000
  C   C877      1.0  0.31069  0.37337  0.64625  1.0000
  C   C878      1.0  0.31152  0.36100  0.69059  1.0000
  C   C879      1.0  0.27231  0.41198  0.68081  1.0000
  C   C880      1.0  0.32603  0.40836  0.64596  1.0000
  C   C881      1.0  0.33327  0.42539  0.64030  1.0000
  C   C882      1.0  0.30302  0.37084  0.63175  1.0000
  C   C883      1.0  0.32723  0.34525  0.69303  1.0000
  C   C884      1.0  0.25534  0.41157  0.69534  1.0000
  H   H1494     1.0  0.32337  0.38340  0.68666  1.0000
  H   H1495     1.0  0.32934  0.37389  0.66795  1.0000
  H   H1496     1.0  0.29976  0.42019  0.65753  1.0000
  H   H1497     1.0  0.31443  0.41330  0.67257  1.0000
  H   H1498     1.0  0.29239  0.39892  0.69648  1.0000
  H   H1499     1.0  0.28176  0.38428  0.69202  1.0000
  H   H1500     1.0  0.28556  0.37977  0.66402  1.0000
  H   H1501     1.0  0.29147  0.39838  0.64771  1.0000
  H   H1502     1.0  0.31428  0.36004  0.65486  1.0000
  H   H1503     1.0  0.32318  0.37807  0.63973  1.0000
  H   H1504     1.0  0.30453  0.36365  0.70399  1.0000
  H   H1505     1.0  0.30216  0.35703  0.68512  1.0000
  H   H1506     1.0  0.26906  0.41182  0.66823  1.0000
  H   H1507     1.0  0.27609  0.42481  0.67930  1.0000
  H   H1508     1.0  0.33720  0.39708  0.64877  1.0000
  H   H1509     1.0  0.32149  0.40717  0.63447  1.0000
  H   H1510     1.0  0.34459  0.42440  0.62864  1.0000
  H   H1511     1.0  0.32276  0.43718  0.63652  1.0000
  H   H1512     1.0  0.33824  0.42728  0.65124  1.0000
  H   H1513     1.0  0.31283  0.36099  0.62449  1.0000
  H   H1514     1.0  0.29057  0.36576  0.63765  1.0000
  H   H1515     1.0  0.30023  0.38362  0.62203  1.0000
  H   H1516     1.0  0.32234  0.33355  0.70217  1.0000
  H   H1517     1.0  0.33429  0.34163  0.68007  1.0000
  H   H1518     1.0  0.33671  0.34859  0.69889  1.0000
  H   H1519     1.0  0.25042  0.39931  0.69714  1.0000
  N   N48       1.0  0.31143  0.18797  0.79283  1.0000
  C   C885      1.0  0.31928  0.17137  0.80511  1.0000
  C   C886      1.0  0.33873  0.16205  0.79769  1.0000
  C   C887      1.0  0.33014  0.20700  0.79850  1.0000
  C   C888      1.0  0.34425  0.14341  0.80886  1.0000
  C   C889      1.0  0.34598  0.21595  0.78955  1.0000
  H   H1520     1.0  0.33641  0.19384  0.77626  1.0000
  H   H1521     1.0  0.31900  0.17420  0.81808  1.0000
  H   H1522     1.0  0.31080  0.16138  0.80873  1.0000
  H   H1523     1.0  0.34832  0.16998  0.79742  1.0000
  H   H1524     1.0  0.34038  0.16062  0.78395  1.0000
  H   H1525     1.0  0.33408  0.19604  0.80949  1.0000
  H   H1526     1.0  0.30369  0.20826  0.75875  1.0000
  H   H1527     1.0  0.33441  0.13516  0.81086  1.0000
  H   H1528     1.0  0.35741  0.13664  0.80199  1.0000
  H   H1529     1.0  0.34548  0.14420  0.82204  1.0000
  H   H1530     1.0  0.35792  0.20605  0.78474  1.0000
  H   H1531     1.0  0.34280  0.22699  0.77820  1.0000
  H   H1532     1.0  0.35125  0.37249  0.52095  1.0000
  H   H1533     1.0  0.33628  0.08723  0.87478  1.0000
  C   C890      1.0  0.39298  0.26749  0.72672  1.0000
  C   C891      1.0  0.38562  0.15836  0.86116  1.0000
  H   H1534     1.0  0.28187  0.08350  0.51010  1.0000
  H   H1535     1.0  0.23587  0.10355  0.74982  1.0000
  H   H1536     1.0  0.39748  0.09464  0.84153  1.0000
  H   H1537     1.0  0.27264  0.33568  0.57842  1.0000
  C   C892      1.0  0.38675  0.49318  0.50654  1.0000
  C   C893      1.0  0.25208  0.30066  0.56239  1.0000
  H   H1538     1.0  0.32031  0.29593  0.52679  1.0000
  H   H1539     1.0  0.27753  0.16234  0.72435  1.0000
  C   C894      1.0  0.31728  0.12559  0.94807  1.0000
  C   C895      1.0  0.20655  0.40347  0.84697  1.0000
  S   S207      1.0  0.20834  0.39362  0.77694  1.0000
  H   H1540     1.0  0.29815  0.33401  0.51841  1.0000
  H   H1541     1.0  0.35065  0.47629  0.56389  1.0000
  H   H1542     1.0  0.33851  0.14358  0.98383  1.0000
  H   H1543     1.0  0.31709  0.01078  0.94115  1.0000
  C   C896      1.0  0.21025  0.05973  0.63768  1.0000
  C   C897      1.0  0.38828  0.46020  0.61462  1.0000
  H   H1544     1.0  0.20369  0.48394  0.71596  1.0000
  H   H1545     1.0  0.20425  0.45107  0.88543  1.0000
  H   H1546     1.0  0.20434  0.16521  0.50931  1.0000
  H   H1547     1.0  0.24841  0.25167  0.83318  1.0000
  H   H1548     1.0  0.24844  0.30427  0.81576  1.0000
  C   C898      1.0  0.30007  0.08005  0.93760  1.0000
  S   S208      1.0  0.22414  0.05547  0.50994  1.0000
  H   H1549     1.0  0.39561  0.36676  0.58829  1.0000
  H   H1550     1.0  0.31160  0.05410  0.96590  1.0000
  H   H1551     1.0  0.20644  0.13638  0.50274  1.0000
  H   H1552     1.0  0.32914  0.04339  0.76413  1.0000
  H   H1553     1.0  0.36925  0.23820  0.53254  1.0000
  C   C899      1.0  0.39469  0.16616  0.94639  1.0000
  H   H1554     1.0  0.20984  0.26858  0.82864  1.0000
  H   H1555     1.0  0.21278  0.12437  0.58799  1.0000
  H   H1556     1.0  0.36125  0.20728  0.87437  1.0000
  H   H1557     1.0  0.21485  0.14650  0.58721  1.0000
  H   H1558     1.0  0.23598  0.26546  0.77870  1.0000
  H   H1559     1.0  0.24607  0.33813  0.50129  1.0000
  C   C900      1.0  0.21457  0.24755  0.85251  1.0000
  H   H1560     1.0  0.32557  0.08745  0.93278  1.0000
  H   H1561     1.0  0.25769  0.39173  0.85316  1.0000
  C   C901      1.0  0.33015  0.19484  0.57449  1.0000
  C   C902      1.0  0.28184  0.33920  0.56544  1.0000
  C   C903      1.0  0.21948  0.14549  0.75959  1.0000
  H   H1562     1.0  0.27566  0.08655  0.78699  1.0000
  H   H1563     1.0  0.37888  0.21426  0.73169  1.0000
  N   N49       1.0  0.23232  0.41084  0.85614  1.0000
  C   C904      1.0  0.37814  0.47973  0.55682  1.0000
  H   H1564     1.0  0.38003  0.05945  0.72053  1.0000
  H   H1565     1.0  0.30424  0.09229  0.53041  1.0000
  C   C905      1.0  0.20589  0.48449  0.72892  1.0000
  H   H1566     1.0  0.31791  0.24344  0.85459  1.0000
  H   H1567     1.0  0.29289  0.06051  0.51082  1.0000
  C   C906      1.0  0.37854  0.05740  0.91076  1.0000
  H   H1568     1.0  0.20952  0.23111  0.89730  1.0000
  H   H1569     1.0  0.36933  0.18308  0.56920  1.0000
  C   C907      1.0  0.21981  0.26321  0.83719  1.0000
  H   H1570     1.0  0.30504  0.06013  0.53649  1.0000
  H   H1571     1.0  0.37763  0.18966  0.71790  1.0000
  H   H1572     1.0  0.23465  0.09780  0.57683  1.0000
  H   H1573     1.0  0.31326  0.22997  0.58418  1.0000
  H   H1574     1.0  0.21754  0.15938  0.54559  1.0000
  H   H1575     1.0  0.25821  0.41094  0.86007  1.0000
  H   H1576     1.0  0.23365  0.38808  0.84591  1.0000
  H   H1577     1.0  0.21582  0.15395  0.74698  1.0000
  H   H1578     1.0  0.33471  0.01331  0.92137  1.0000
  C   C908      1.0  0.19928  0.30800  0.82677  1.0000
  N   N50       1.0  0.23346  0.32012  0.75500  1.0000
  C   C909      1.0  0.22482  0.32818  0.73917  1.0000
  C   C910      1.0  0.25150  0.32491  0.75113  1.0000
  C   C911      1.0  0.23660  0.30009  0.75792  1.0000
  C   C912      1.0  0.22171  0.32541  0.77188  1.0000
  C   C913      1.0  0.21161  0.34501  0.77071  1.0000
  H   H1579     1.0  0.38020  0.16297  0.70887  1.0000
  C   C914      1.0  0.24680  0.28924  0.77284  1.0000
  C   C915      1.0  0.25353  0.34354  0.73944  1.0000
  C   C916      1.0  0.27183  0.34709  0.73810  1.0000
  H   H1580     1.0  0.29371  0.32811  0.56449  1.0000
  H   H1581     1.0  0.39362  0.30583  0.73902  1.0000
  H   H1582     1.0  0.24107  0.18627  0.69677  1.0000
  H   H1583     1.0  0.23412  0.32423  0.72702  1.0000
  H   H1584     1.0  0.22231  0.34298  0.73632  1.0000
  H   H1585     1.0  0.25564  0.32364  0.76375  1.0000
  H   H1586     1.0  0.26202  0.31535  0.74397  1.0000
  H   H1587     1.0  0.24402  0.29565  0.74534  1.0000
  H   H1588     1.0  0.36409  0.22738  0.71692  1.0000
  C   C917      1.0  0.23784  0.25714  0.82529  1.0000
  H   H1589     1.0  0.22949  0.32221  0.78242  1.0000
  C   C918      1.0  0.24506  0.11423  0.51812  1.0000
  H   H1590     1.0  0.22088  0.35409  0.76696  1.0000
  H   H1591     1.0  0.20080  0.08250  0.58593  1.0000
  C   C919      1.0  0.19913  0.26418  0.87586  1.0000
  H   H1592     1.0  0.23932  0.29240  0.78590  1.0000
  H   H1593     1.0  0.26026  0.29212  0.77004  1.0000
  H   H1594     1.0  0.25232  0.34451  0.72567  1.0000
  H   H1595     1.0  0.24321  0.35417  0.74488  1.0000
  H   H1596     1.0  0.27362  0.34703  0.75142  1.0000
  H   H1597     1.0  0.28268  0.33689  0.73226  1.0000
  H   H1598     1.0  0.27298  0.36039  0.72944  1.0000
  H   H1599     1.0  0.38941  0.42253  0.58735  1.0000
  H   H1600     1.0  0.32008  0.12621  0.53787  1.0000
  S   S209      1.0  0.20726  0.14810  0.66061  1.0000
  C   C920      1.0  0.38369  0.30683  0.73123  1.0000
  H   H1601     1.0  0.20708  0.34260  0.79939  1.0000
  C   C921      1.0  0.36135  0.47854  0.55182  1.0000
  H   H1602     1.0  0.28643  0.20322  0.63119  1.0000
  H   H1603     1.0  0.39517  0.19443  0.93692  1.0000
  H   H1604     1.0  0.21132  0.31739  0.77739  1.0000
  C   C922      1.0  0.36115  0.05053  0.76622  1.0000
  H   H1605     1.0  0.25739  0.07987  0.55650  1.0000
  N   N51       1.0  0.39297  0.18432  0.69237  1.0000
  H   H1606     1.0  0.22585  0.24240  0.85950  1.0000
  H   H1607     1.0  0.26583  0.06528  0.57542  1.0000
  Fe  Fe102     1.0  0.39150  0.08499  0.98550  1.0000
  H   H1608     1.0  0.30930  0.13273  0.55891  1.0000
  C   C923      1.0  0.25980  0.07919  0.56972  1.0000
  C   C924      1.0  0.19944  0.34754  0.78868  1.0000
  H   H1609     1.0  0.35264  0.09962  0.88939  1.0000
  H   H1610     1.0  0.30981  0.30580  0.50797  1.0000
  C   C925      1.0  0.39359  0.10896  0.84236  1.0000
  H   H1611     1.0  0.29446  0.07001  0.93491  1.0000
  H   H1612     1.0  0.23865  0.35856  0.50949  1.0000
  C   C926      1.0  0.21837  0.20547  0.50916  1.0000
  H   H1613     1.0  0.38538  0.05768  0.78084  1.0000
  H   H1614     1.0  0.22079  0.21911  0.87983  1.0000
  C   C927      1.0  0.29664  0.19724  0.76548  1.0000
  C   C928      1.0  0.35064  0.13267  0.98349  1.0000
  C   C929      1.0  0.34937  0.16950  0.89810  1.0000
  H   H1615     1.0  0.29655  0.10900  0.93015  1.0000
  C   C930      1.0  0.27015  0.15291  0.72314  1.0000
  C   C931      1.0  0.38102  0.04537  0.72776  1.0000
  C   C932      1.0  0.38948  0.20032  0.87449  1.0000
  H   H1616     1.0  0.29096  0.12120  0.53603  1.0000
  H   H1617     1.0  0.28359  0.30436  0.53333  1.0000
  H   H1618     1.0  0.22499  0.15409  0.76466  1.0000
  H   H1619     1.0  0.31828  0.08465  0.96270  1.0000
  H   H1620     1.0  0.30921  0.32544  0.53643  1.0000
  H   H1621     1.0  0.26137  0.42334  0.79516  1.0000
  H   H1622     1.0  0.39748  0.44939  0.60825  1.0000
  H   H1623     1.0  0.35645  0.49092  0.54249  1.0000
  H   H1624     1.0  0.35280  0.26966  0.52982  1.0000
  H   H1625     1.0  0.26869  0.35475  0.51523  1.0000
  H   H1626     1.0  0.35065  0.23200  0.52862  1.0000
  C   C933      1.0  0.39185  0.24583  0.58872  1.0000
  C   C934      1.0  0.22380  0.39686  0.85437  1.0000
  H   H1627     1.0  0.36754  0.18203  0.67389  1.0000
  H   H1628     1.0  0.33593  0.17820  0.89777  1.0000
  H   H1629     1.0  0.30788  0.12615  0.96064  1.0000
  C   C935      1.0  0.24832  0.39039  0.88129  1.0000
  C   C936      1.0  0.25749  0.33185  0.53281  1.0000
  H   H1630     1.0  0.34428  0.12179  0.87760  1.0000
  H   H1631     1.0  0.34769  0.12107  0.98061  1.0000
  H   H1632     1.0  0.22496  0.12192  0.72473  1.0000
  H   H1633     1.0  0.32440  0.05707  0.78036  1.0000
  H   H1634     1.0  0.25945  0.35219  0.55288  1.0000
  H   H1635     1.0  0.38015  0.18903  0.95822  1.0000
  H   H1636     1.0  0.28063  0.09781  0.53408  1.0000
  C   C937      1.0  0.39528  0.48217  0.58545  1.0000
  C   C938      1.0  0.29356  0.12044  0.54917  1.0000
  H   H1637     1.0  0.24350  0.43342  0.84044  1.0000
  C   C939      1.0  0.38143  0.19701  0.70398  1.0000
  Fe  Fe103     1.0  0.37597  0.05366  0.98713  1.0000
  C   C940      1.0  0.24853  0.41526  0.82284  1.0000
  H   H1638     1.0  0.37748  0.45455  0.62473  1.0000
  H   H1639     1.0  0.23938  0.38096  0.88452  1.0000
  H   H1640     1.0  0.20332  0.26100  0.67741  1.0000
  H   H1641     1.0  0.21529  0.47208  0.73375  1.0000
  S   S210      1.0  0.20299  0.10172  0.69329  1.0000
  Fe  Fe104     1.0  0.21358  0.11838  0.66721  1.0000
  H   H1642     1.0  0.37603  0.13171  0.82793  1.0000
  C   C941      1.0  0.37961  0.07269  0.74913  1.0000
  C   C942      1.0  0.20318  0.38402  0.92272  1.0000
  H   H1643     1.0  0.20676  0.33160  0.71230  1.0000
  H   H1644     1.0  0.31169  0.04329  0.94152  1.0000
  H   H1645     1.0  0.21141  0.44759  0.85470  1.0000
  Fe  Fe105     1.0  0.38970  0.39627  0.66870  1.0000
  H   H1646     1.0  0.26923  0.10942  0.76053  1.0000
  C   C943      1.0  0.38942  0.21271  0.70390  1.0000
  H   H1647     1.0  0.21274  0.30465  0.81919  1.0000
  C   C944      1.0  0.20688  0.32320  0.74064  1.0000
  H   H1648     1.0  0.37993  0.09850  0.88779  1.0000
  H   H1649     1.0  0.26150  0.40721  0.82581  1.0000
  H   H1650     1.0  0.23289  0.20440  0.50350  1.0000
  C   C945      1.0  0.25041  0.34951  0.50308  1.0000
  H   H1651     1.0  0.35554  0.18435  0.69604  1.0000
  H   H1652     1.0  0.28268  0.17609  0.82127  1.0000
  C   C946      1.0  0.36632  0.13893  0.96952  1.0000
  H   H1653     1.0  0.26204  0.15979  0.71297  1.0000
  H   H1654     1.0  0.21207  0.05353  0.61287  1.0000
  C   C947      1.0  0.39548  0.16154  0.76610  1.0000
  H   H1655     1.0  0.21270  0.14692  0.52612  1.0000
  C   C948      1.0  0.20561  0.06497  0.61937  1.0000
  C   C949      1.0  0.29339  0.07306  0.51397  1.0000
  H   H1656     1.0  0.39349  0.15667  0.95935  1.0000
  H   H1657     1.0  0.38642  0.03661  0.70303  1.0000
  H   H1658     1.0  0.33141  0.24514  0.55553  1.0000
  H   H1659     1.0  0.37141  0.16500  0.86166  1.0000
  C   C950      1.0  0.22080  0.42082  0.87032  1.0000
  H   H1660     1.0  0.23915  0.27960  0.57973  1.0000
  H   H1661     1.0  0.33922  0.99721  0.94121  1.0000
  H   H1662     1.0  0.38005  0.25364  0.59564  1.0000
  H   H1663     1.0  0.26699  0.14012  0.75078  1.0000
  H   H1664     1.0  0.23877  0.31056  0.83688  1.0000
  H   H1665     1.0  0.20284  0.13499  0.55930  1.0000
  C   C951      1.0  0.32431  0.20026  0.78495  1.0000
  H   H1666     1.0  0.28330  0.20280  0.77298  1.0000
  H   H1667     1.0  0.30665  0.18469  0.74262  1.0000
  H   H1668     1.0  0.39673  0.20356  0.63697  1.0000
  C   C952      1.0  0.37610  0.13012  0.86229  1.0000
  C   C953      1.0  0.39103  0.41530  0.60100  1.0000
  C   C954      1.0  0.34184  0.22146  0.58504  1.0000
  H   H1669     1.0  0.38073  0.15735  0.90664  1.0000
  H   H1670     1.0  0.39854  0.35921  0.61050  1.0000
  C   C955      1.0  0.24926  0.30089  0.82999  1.0000
  H   H1671     1.0  0.39300  0.29121  0.68090  1.0000
  C   C956      1.0  0.23673  0.42371  0.83865  1.0000
  C   C957      1.0  0.39366  0.13454  0.93512  1.0000
  Fe  Fe106     1.0  0.23748  0.38073  0.77206  1.0000
  N   N52       1.0  0.38107  0.11113  0.85992  1.0000
  C   C958      1.0  0.36441  0.10514  0.86045  1.0000
  C   C959      1.0  0.33272  0.10155  0.87533  1.0000
  H   H1672     1.0  0.36783  0.09087  0.85947  1.0000
  H   H1673     1.0  0.37186  0.13035  0.87669  1.0000
  H   H1674     1.0  0.32179  0.10351  0.88713  1.0000
  H   H1675     1.0  0.26508  0.37205  0.89870  1.0000
  C   C960      1.0  0.36775  0.21186  0.56225  1.0000
  C   C961      1.0  0.38593  0.11934  0.82563  1.0000
  H   H1676     1.0  0.35568  0.26140  0.51015  1.0000
  H   H1677     1.0  0.24417  0.33956  0.53845  1.0000
  C   C962      1.0  0.39260  0.03380  0.71467  1.0000
  H   H1678     1.0  0.32773  0.10962  0.86325  1.0000
  C   C963      1.0  0.32602  0.04361  0.93593  1.0000
  H   H1679     1.0  0.22457  0.43201  0.83402  1.0000
  C   C964      1.0  0.31577  0.30861  0.51769  1.0000
  H   H1680     1.0  0.36858  0.20332  0.69973  1.0000
  H   H1681     1.0  0.24180  0.30501  0.55423  1.0000
  H   H1682     1.0  0.25247  0.28699  0.59004  1.0000
  C   C965      1.0  0.34882  0.10755  0.87678  1.0000
  H   H1683     1.0  0.21444  0.23667  0.84628  1.0000
  C   C966      1.0  0.37375  0.19303  0.57341  1.0000
  C   C967      1.0  0.34891  0.26019  0.52439  1.0000
  H   H1684     1.0  0.26428  0.20557  0.82886  1.0000
  C   C968      1.0  0.20076  0.15429  0.52066  1.0000
  C   C969      1.0  0.29366  0.18993  0.75099  1.0000
  H   H1685     1.0  0.34216  0.20811  0.59396  1.0000
  H   H1686     1.0  0.37905  0.11082  0.82204  1.0000
  C   C970      1.0  0.28629  0.31346  0.54020  1.0000
  H   H1687     1.0  0.31547  0.17462  0.57707  1.0000
  H   H1688     1.0  0.36860  0.19221  0.58786  1.0000
  C   C971      1.0  0.24817  0.12561  0.50139  1.0000
  H   H1689     1.0  0.24674  0.28731  0.83603  1.0000
  C   C972      1.0  0.35790  0.15905  0.69044  1.0000
  H   H1690     1.0  0.37844  0.01841  0.97466  1.0000
  H   H1691     1.0  0.20027  0.05251  0.59176  1.0000
  H   H1692     1.0  0.35084  0.24752  0.56011  1.0000
  H   H1693     1.0  0.39869  0.25472  0.72208  1.0000
  H   H1694     1.0  0.34157  0.15835  0.92580  1.0000
  H   H1695     1.0  0.37213  0.48621  0.60773  1.0000
  C   C973      1.0  0.30762  0.18242  0.77785  1.0000
  H   H1696     1.0  0.32028  0.17712  0.76911  1.0000
  S   S211      1.0  0.24725  0.35233  0.78495  1.0000
  H   H1697     1.0  0.20311  0.37692  0.84815  1.0000
  H   H1698     1.0  0.33822  0.10658  0.95986  1.0000
  H   H1699     1.0  0.26322  0.29068  0.55659  1.0000
  H   H1700     1.0  0.28034  0.34995  0.53797  1.0000
  H   H1701     1.0  0.28614  0.17912  0.75702  1.0000
  Fe  Fe107     1.0  0.37804  0.08361  0.95412  1.0000
  S   S212      1.0  0.36810  0.10037  0.92966  1.0000
  H   H1702     1.0  0.35120  0.22725  0.58883  1.0000
  N   N53       1.0  0.26919  0.32620  0.54627  1.0000
  H   H1703     1.0  0.22907  0.13436  0.57057  1.0000
  C   C974      1.0  0.35253  0.16476  0.91701  1.0000
  H   H1704     1.0  0.37028  0.13893  0.91624  1.0000
  C   C975      1.0  0.24919  0.26922  0.77458  1.0000
  C   C976      1.0  0.39250  0.29981  0.71396  1.0000
  H   H1705     1.0  0.21454  0.41147  0.88192  1.0000
  C   C977      1.0  0.21522  0.12164  0.73769  1.0000
  S   S213      1.0  0.39699  0.42324  0.65621  1.0000
  H   H1706     1.0  0.31899  0.21695  0.80438  1.0000
  H   H1707     1.0  0.34923  0.22151  0.79932  1.0000
  H   H1708     1.0  0.24009  0.43754  0.80187  1.0000
  H   H1709     1.0  0.30703  0.07601  0.58948  1.0000
  C   C978      1.0  0.26465  0.34287  0.51430  1.0000
  H   H1710     1.0  0.35738  0.05264  0.78011  1.0000
  C   C979      1.0  0.29464  0.19773  0.80327  1.0000
  C   C980      1.0  0.27908  0.18777  0.81070  1.0000
  H   H1711     1.0  0.30880  0.04654  0.60932  1.0000
  H   H1712     1.0  0.31842  0.21243  0.77601  1.0000
  C   C981      1.0  0.25393  0.14728  0.51462  1.0000
  C   C982      1.0  0.26395  0.09781  0.78843  1.0000
  H   H1713     1.0  0.36043  0.03648  0.76751  1.0000
  H   H1714     1.0  0.38232  0.46717  0.56624  1.0000
  C   C983      1.0  0.37033  0.20962  0.88141  1.0000
  H   H1715     1.0  0.30262  0.23890  0.61313  1.0000
  S   S214      1.0  0.39138  0.38412  0.55210  1.0000
  H   H1716     1.0  0.22370  0.29572  0.76163  1.0000
  H   H1717     1.0  0.21049  0.28808  0.63894  1.0000
  C   C984      1.0  0.39085  0.02905  0.78391  1.0000
  C   C985      1.0  0.36874  0.36146  0.56421  1.0000
  H   H1718     1.0  0.37715  0.24623  0.77059  1.0000
  C   C986      1.0  0.30028  0.06931  0.56735  1.0000
  H   H1719     1.0  0.36824  0.06557  0.81996  1.0000
  H   H1720     1.0  0.37509  0.13587  0.75349  1.0000
  N   N54       1.0  0.37716  0.14936  0.93531  1.0000
  C   C987      1.0  0.32293  0.23302  0.59001  1.0000
  C   C988      1.0  0.26198  0.19979  0.81872  1.0000
  H   H1721     1.0  0.27593  0.18299  0.80038  1.0000
  H   H1722     1.0  0.25158  0.19182  0.82527  1.0000
  C   C989      1.0  0.32542  0.05639  0.96073  1.0000
  H   H1723     1.0  0.29458  0.05844  0.56646  1.0000
  C   C990      1.0  0.24164  0.08404  0.58192  1.0000
  H   H1724     1.0  0.38084  0.06982  0.91257  1.0000
  C   C991      1.0  0.39331  0.18453  0.94970  1.0000
  C   C992      1.0  0.38952  0.09870  0.87480  1.0000
  H   H1725     1.0  0.34083  0.07357  0.96458  1.0000
  C   C993      1.0  0.26657  0.37963  0.88468  1.0000
  C   C994      1.0  0.29996  0.06681  0.58738  1.0000
  N   N55       1.0  0.34804  0.22017  0.56575  1.0000
  C   C995      1.0  0.25891  0.31674  0.56347  1.0000
  H   H1726     1.0  0.24712  0.32630  0.56923  1.0000
  C   C996      1.0  0.37742  0.14763  0.75593  1.0000
  Fe  Fe108     1.0  0.35620  0.27969  0.57257  1.0000
  H   H1727     1.0  0.30067  0.17109  0.78305  1.0000
  H   H1728     1.0  0.30590  0.07721  0.50593  1.0000
  C   C997      1.0  0.39798  0.07791  0.74101  1.0000
  C   C998      1.0  0.32811  0.05698  0.76593  1.0000
  H   H1729     1.0  0.35320  0.07014  0.93712  1.0000
  C   C999      1.0  0.35449  0.24109  0.53455  1.0000
  H   H1730     1.0  0.34842  0.06367  0.74296  1.0000
  H   H1731     1.0  0.32514  0.23400  0.61629  1.0000
  C   C1000     1.0  0.24317  0.29148  0.58081  1.0000
  C   C1001     1.0  0.38032  0.16688  0.93627  1.0000
  H   H1732     1.0  0.23108  0.30069  0.58648  1.0000
  C   C1002     1.0  0.36257  0.14351  0.95063  1.0000
  C   C1003     1.0  0.33668  0.02459  0.94258  1.0000
  C   C1004     1.0  0.24727  0.13408  0.73981  1.0000
  H   H1733     1.0  0.25315  0.09282  0.79914  1.0000
  C   C1005     1.0  0.30041  0.10101  0.55889  1.0000
  H   H1734     1.0  0.37330  0.35861  0.57641  1.0000
  C   C1006     1.0  0.20576  0.43693  0.86501  1.0000
  H   H1735     1.0  0.28977  0.21106  0.79518  1.0000
  H   H1736     1.0  0.35799  0.04673  0.94323  1.0000
  C   C1007     1.0  0.33751  0.21018  0.56021  1.0000
  H   H1737     1.0  0.34559  0.20466  0.54842  1.0000
  H   H1738     1.0  0.22959  0.19754  0.67890  1.0000
  H   H1739     1.0  0.21158  0.07653  0.61160  1.0000
  H   H1740     1.0  0.22101  0.27419  0.84245  1.0000
  C   C1008     1.0  0.27237  0.34258  0.54987  1.0000
  C   C1009     1.0  0.34574  0.23896  0.55466  1.0000
  H   H1741     1.0  0.31518  0.21618  0.61606  1.0000
  H   H1742     1.0  0.39313  0.20598  0.86011  1.0000
  H   H1743     1.0  0.38861  0.02731  0.75092  1.0000
  S   S215      1.0  0.35938  0.30437  0.57845  1.0000
  H   H1744     1.0  0.28105  0.06430  0.54135  1.0000
  H   H1745     1.0  0.38363  0.20294  0.66972  1.0000
  C   C1010     1.0  0.31611  0.23027  0.61014  1.0000
  H   H1746     1.0  0.26518  0.10547  0.56120  1.0000
  C   C1011     1.0  0.38899  0.04145  0.74439  1.0000
  H   H1747     1.0  0.32001  0.20012  0.58543  1.0000
  H   H1748     1.0  0.19889  0.29186  0.67796  1.0000
  H   H1749     1.0  0.37762  0.27685  0.60863  1.0000
  H   H1750     1.0  0.37233  0.08086  0.75920  1.0000
  H   H1751     1.0  0.32557  0.21942  0.55558  1.0000
  H   H1752     1.0  0.20662  0.13513  0.73744  1.0000
  H   H1753     1.0  0.38194  0.23773  0.75073  1.0000
  H   H1754     1.0  0.36923  0.22423  0.87888  1.0000
  C   C1012     1.0  0.20675  0.40051  0.92208  1.0000
  H   H1755     1.0  0.24950  0.15898  0.74540  1.0000
  H   H1756     1.0  0.21265  0.19873  0.90806  1.0000
  H   H1757     1.0  0.36595  0.20436  0.89589  1.0000
  H   H1758     1.0  0.38949  0.33316  0.61608  1.0000
  H   H1759     1.0  0.28001  0.14135  0.71867  1.0000
  S   S216      1.0  0.39099  0.43452  0.54506  1.0000
  H   H1760     1.0  0.22473  0.05878  0.63621  1.0000
  H   H1761     1.0  0.30231  0.03800  0.59391  1.0000
  H   H1762     1.0  0.24578  0.13145  0.77627  1.0000
  H   H1763     1.0  0.34507  0.16339  0.68596  1.0000
  H   H1764     1.0  0.23141  0.11628  0.78404  1.0000
  H   H1765     1.0  0.29497  0.09895  0.91305  1.0000
  C   C1013     1.0  0.38349  0.16961  0.69459  1.0000
  H   H1766     1.0  0.25696  0.21078  0.80815  1.0000
  N   N56       1.0  0.33059  0.05858  0.94077  1.0000
  H   H1767     1.0  0.37187  0.07752  0.73850  1.0000
  H   H1768     1.0  0.32329  0.24734  0.58485  1.0000
  C   C1014     1.0  0.39218  0.14642  0.76293  1.0000
  H   H1769     1.0  0.38989  0.22231  0.69087  1.0000
  H   H1770     1.0  0.24159  0.40662  0.81955  1.0000
  Fe  Fe109     1.0  0.21392  0.40586  0.74781  1.0000
  C   C1015     1.0  0.36836  0.08595  0.79587  1.0000
  C   C1016     1.0  0.32092  0.18530  0.56658  1.0000
  S   S217      1.0  0.38128  0.22017  0.82460  1.0000
  C   C1017     1.0  0.20770  0.22337  0.88854  1.0000
  H   H1771     1.0  0.24081  0.14066  0.72827  1.0000
  H   H1772     1.0  0.39456  0.13020  0.79777  1.0000
  H   H1773     1.0  0.29149  0.30448  0.55187  1.0000
  C   C1018     1.0  0.24156  0.12108  0.77238  1.0000
  C   C1019     1.0  0.22536  0.11528  0.75315  1.0000
  H   H1774     1.0  0.33429  0.26382  0.52528  1.0000
  C   C1020     1.0  0.21544  0.18882  0.52353  1.0000
  H   H1775     1.0  0.26733  0.31140  0.57361  1.0000
  S   S218      1.0  0.39274  0.37740  0.69492  1.0000
  N   N57       1.0  0.23343  0.12896  0.75620  1.0000
  H   H1776     1.0  0.28607  0.06902  0.59528  1.0000
  H   H1777     1.0  0.30964  0.19481  0.56111  1.0000
  H   H1778     1.0  0.37919  0.27199  0.72425  1.0000
  H   H1779     1.0  0.38141  0.30057  0.70763  1.0000
  H   H1780     1.0  0.37343  0.29927  0.73951  1.0000
  H   H1781     1.0  0.36439  0.25732  0.75371  1.0000
  H   H1782     1.0  0.36378  0.32826  0.71962  1.0000
  N   N58       1.0  0.29085  0.08728  0.55836  1.0000
  H   H1783     1.0  0.20719  0.04653  0.64480  1.0000
  C   C1021     1.0  0.38400  0.17807  0.76194  1.0000
  H   H1784     1.0  0.38653  0.18984  0.76416  1.0000
  H   H1785     1.0  0.38270  0.18981  0.81095  1.0000
  H   H1786     1.0  0.27583  0.38861  0.88237  1.0000
  H   H1787     1.0  0.25678  0.12202  0.73591  1.0000
  H   H1788     1.0  0.21645  0.10977  0.76562  1.0000
  C   C1022     1.0  0.24977  0.40126  0.86178  1.0000
  H   H1789     1.0  0.38399  0.33480  0.71924  1.0000
  H   H1790     1.0  0.28579  0.20071  0.74232  1.0000
  H   H1791     1.0  0.38737  0.27354  0.75350  1.0000
  H   H1792     1.0  0.25450  0.09411  0.76740  1.0000
  H   H1793     1.0  0.34077  0.18485  0.58039  1.0000
  H   H1794     1.0  0.37264  0.10620  0.77216  1.0000
  C   C1023     1.0  0.37427  0.32640  0.72711  1.0000
  H   H1795     1.0  0.36776  0.33105  0.73969  1.0000
  H   H1796     1.0  0.25708  0.26172  0.78483  1.0000
  H   H1797     1.0  0.20602  0.23392  0.61755  1.0000
  H   H1798     1.0  0.26790  0.10826  0.79239  1.0000
  H   H1799     1.0  0.33047  0.17914  0.55581  1.0000
  C   C1024     1.0  0.39144  0.26191  0.74719  1.0000
  C   C1025     1.0  0.37786  0.25009  0.75601  1.0000
  H   H1800     1.0  0.37303  0.38872  0.52315  1.0000
  C   C1026     1.0  0.36567  0.17527  0.68814  1.0000
  C   C1027     1.0  0.38719  0.28171  0.61292  1.0000
  H   H1801     1.0  0.20191  0.27687  0.86684  1.0000
  C   C1028     1.0  0.27175  0.09220  0.56798  1.0000
  H   H1802     1.0  0.39309  0.03563  0.80788  1.0000
  C   C1029     1.0  0.25826  0.14683  0.74113  1.0000
  H   H1803     1.0  0.27109  0.09402  0.58145  1.0000
  C   C1030     1.0  0.39650  0.09519  0.78272  1.0000
  S   S219      1.0  0.38672  0.05386  0.95813  1.0000
  S   S220      1.0  0.20903  0.10218  0.65075  1.0000
  C   C1031     1.0  0.39576  0.09754  0.73152  1.0000
  N   N59       1.0  0.37993  0.05325  0.75756  1.0000
  C   C1032     1.0  0.35864  0.05764  0.91503  1.0000
  H   H1804     1.0  0.39003  0.12170  0.93624  1.0000
  H   H1805     1.0  0.24151  0.26872  0.81486  1.0000
  H   H1806     1.0  0.31735  0.06630  0.75952  1.0000
  H   H1807     1.0  0.38524  0.33400  0.59483  1.0000
  H   H1808     1.0  0.36721  0.14957  0.68242  1.0000
  H   H1809     1.0  0.22038  0.38773  0.86741  1.0000
  H   H1810     1.0  0.38538  0.04592  0.91965  1.0000
  H   H1811     1.0  0.29708  0.36001  0.55295  1.0000
  H   H1812     1.0  0.20065  0.19782  0.89233  1.0000
  C   C1033     1.0  0.32071  0.07612  0.93151  1.0000
  H   H1813     1.0  0.27241  0.36995  0.87585  1.0000
  H   H1814     1.0  0.20723  0.31531  0.84721  1.0000
  C   C1034     1.0  0.39568  0.33035  0.60269  1.0000
  H   H1815     1.0  0.37721  0.02673  0.79013  1.0000
  H   H1816     1.0  0.34367  0.07672  0.75934  1.0000
  H   H1817     1.0  0.39802  0.21566  0.88806  1.0000
  H   H1818     1.0  0.20679  0.17119  0.56264  1.0000
  H   H1819     1.0  0.38878  0.10029  0.72046  1.0000
  S   S221      1.0  0.20352  0.43286  0.80099  1.0000
  H   H1820     1.0  0.22457  0.28017  0.65510  1.0000
  H   H1821     1.0  0.25642  0.26532  0.76176  1.0000
  H   H1822     1.0  0.27697  0.10093  0.93219  1.0000
  H   H1823     1.0  0.21539  0.38719  0.82696  1.0000
  H   H1824     1.0  0.35526  0.15211  0.70468  1.0000
  H   H1825     1.0  0.39377  0.01943  0.72105  1.0000
  H   H1826     1.0  0.37839  0.41912  0.61055  1.0000
  H   H1827     1.0  0.38370  0.39171  0.60021  1.0000
  H   H1828     1.0  0.37144  0.47044  0.59569  1.0000
  C   C1035     1.0  0.39389  0.24645  0.57065  1.0000
  C   C1036     1.0  0.32685  0.07193  0.96805  1.0000
  H   H1829     1.0  0.20645  0.41595  0.83682  1.0000
  H   H1830     1.0  0.23714  0.24678  0.81877  1.0000
  C   C1037     1.0  0.39030  0.14173  0.85346  1.0000
  S   S222      1.0  0.37875  0.26123  0.55831  1.0000
  H   H1831     1.0  0.39379  0.16803  0.85261  1.0000
  H   H1832     1.0  0.27826  0.21565  0.61145  1.0000
  H   H1833     1.0  0.21317  0.21757  0.51489  1.0000
  C   C1038     1.0  0.39540  0.39522  0.60239  1.0000
  C   C1039     1.0  0.21544  0.13709  0.57894  1.0000
  H   H1834     1.0  0.20303  0.34906  0.76092  1.0000
  C   C1040     1.0  0.21276  0.29020  0.65127  1.0000
  H   H1835     1.0  0.38848  0.27406  0.62653  1.0000
  Fe  Fe110     1.0  0.20017  0.08401  0.67680  1.0000
  H   H1836     1.0  0.39321  0.08474  0.87281  1.0000
  C   C1041     1.0  0.20325  0.10906  0.73912  1.0000
  H   H1837     1.0  0.36764  0.04211  0.73169  1.0000
  C   C1042     1.0  0.20454  0.16277  0.55477  1.0000
  H   H1838     1.0  0.38962  0.18609  0.87593  1.0000
  H   H1839     1.0  0.39571  0.46512  0.62153  1.0000
  H   H1840     1.0  0.39078  0.14624  0.83897  1.0000
  H   H1841     1.0  0.39146  0.31945  0.55492  1.0000
  H   H1842     1.0  0.38819  0.15469  0.87479  1.0000
  H   H1843     1.0  0.38881  0.48056  0.54458  1.0000
  H   H1844     1.0  0.21563  0.30368  0.64840  1.0000
  C   C1043     1.0  0.39633  0.19463  0.67337  1.0000
  H   H1845     1.0  0.21090  0.25827  0.88201  1.0000
  C   C1044     1.0  0.33154  0.01068  0.93614  1.0000
  C   C1045     1.0  0.39053  0.04803  0.77195  1.0000
  C   C1046     1.0  0.20201  0.14233  0.77323  1.0000
  H   H1846     1.0  0.39241  0.15892  0.68783  1.0000
  H   H1847     1.0  0.39811  0.01873  0.77607  1.0000
  H   H1848     1.0  0.39594  0.28320  0.57618  1.0000
  H   H1849     1.0  0.39871  0.26890  0.66326  1.0000
  H   H1850     1.0  0.39640  0.30307  0.58193  1.0000
  S   S223      1.0  0.20024  0.35442  0.88515  1.0000
  H   H1851     1.0  0.39678  0.38881  0.61619  1.0000
  H   H1852     1.0  0.39810  0.17418  0.65873  1.0000
  Fe  Fe111     1.0  0.19958  0.34293  0.91417  1.0000
  S   S224      1.0  0.19930  0.43328  0.93022  1.0000
  H   H1853     1.0  0.39820  0.17403  0.57814  1.0000
  H   H1854     1.0  0.32243  0.07958  0.99320  1.0000
  Fe  Fe112     1.0  0.23847  0.92647  0.21187  1.0000
  C   C1047     1.0  0.28766  0.64154  0.48237  1.0000
  S   S225      1.0  0.25539  0.93780  0.18615  1.0000
  H   H1855     1.0  0.29507  0.80801  0.04849  1.0000
  Fe  Fe113     1.0  0.23686  0.91529  0.25144  1.0000
  H   H1856     1.0  0.38213  0.63766  0.41994  1.0000
  H   H1857     1.0  0.23607  0.72662  0.31741  1.0000
  S   S226      1.0  0.25341  0.90311  0.22859  1.0000
  Fe  Fe114     1.0  0.24531  0.80934  0.37465  1.0000
  S   S227      1.0  0.21617  0.82159  0.37902  1.0000
  S   S228      1.0  0.25566  0.78521  0.39446  1.0000
  Fe  Fe115     1.0  0.25375  0.83693  0.34133  1.0000
  S   S229      1.0  0.22517  0.85146  0.34244  1.0000
  S   S230      1.0  0.27707  0.84450  0.32031  1.0000
  Fe  Fe116     1.0  0.22426  0.84790  0.37146  1.0000
  C   C1048     1.0  0.27016  0.79395  0.01392  1.0000
  Fe  Fe117     1.0  0.21949  0.82407  0.34980  1.0000
  S   S231      1.0  0.25330  0.83542  0.36993  1.0000
  S   S232      1.0  0.24817  0.80992  0.34582  1.0000
  H   H1858     1.0  0.27439  0.94975  0.43348  1.0000
  H   H1859     1.0  0.23402  0.97377  0.46729  1.0000
  S   S233      1.0  0.22633  0.92673  0.41333  1.0000
  C   C1049     1.0  0.38939  0.97621  0.99887  1.0000
  H   H1860     1.0  0.26899  0.57320  0.28852  1.0000
  H   H1861     1.0  0.35371  0.55671  0.36590  1.0000
  N   N60       1.0  0.21561  0.73986  0.34782  1.0000
  H   H1862     1.0  0.38960  0.53303  0.45120  1.0000
  H   H1863     1.0  0.25504  0.75232  0.02491  1.0000
  H   H1864     1.0  0.33116  0.52850  0.15813  1.0000
  Fe  Fe118     1.0  0.35211  0.90870  0.18660  1.0000
  S   S234      1.0  0.35804  0.91696  0.15693  1.0000
  S   S235      1.0  0.33120  0.92629  0.20302  1.0000
  Fe  Fe119     1.0  0.37892  0.87383  0.18670  1.0000
  H   H1865     1.0  0.35120  0.57806  0.37002  1.0000
  H   H1866     1.0  0.31175  0.56534  0.46266  1.0000
  H   H1867     1.0  0.21404  0.57038  0.14978  1.0000
  H   H1868     1.0  0.25101  0.80691  0.42364  1.0000
  Fe  Fe120     1.0  0.35752  0.88874  0.15784  1.0000
  S   S236      1.0  0.34495  0.88392  0.13799  1.0000
  S   S237      1.0  0.38086  0.90067  0.18881  1.0000
  S   S238      1.0  0.34949  0.88120  0.18749  1.0000
  Fe  Fe121     1.0  0.31795  0.80640  0.12389  1.0000
  H   H1869     1.0  0.35024  0.63779  0.42903  1.0000
  S   S239      1.0  0.31298  0.81609  0.14936  1.0000
  Fe  Fe122     1.0  0.30596  0.78727  0.10200  1.0000
  S   S240      1.0  0.33143  0.78704  0.08116  1.0000
  S   S241      1.0  0.28219  0.77611  0.10248  1.0000
  C   C1050     1.0  0.35380  0.97964  0.07138  1.0000
  H   H1870     1.0  0.26243  0.82498  0.41395  1.0000
  Fe  Fe123     1.0  0.32878  0.81528  0.08336  1.0000
  H   H1871     1.0  0.37539  0.64760  0.45325  1.0000
  S   S242      1.0  0.31971  0.77752  0.12510  1.0000
  S   S243      1.0  0.30205  0.81637  0.10243  1.0000
  Fe  Fe124     1.0  0.38663  0.59592  0.46835  1.0000
  H   H1872     1.0  0.24905  0.98636  0.47943  1.0000
  H   H1873     1.0  0.31316  0.94426  0.10167  1.0000
  C   C1051     1.0  0.23950  0.98994  0.42927  1.0000
  H   H1874     1.0  0.37724  0.67251  0.41320  1.0000
  S   S244      1.0  0.36652  0.73271  0.33242  1.0000
  C   C1052     1.0  0.30791  0.94059  0.13004  1.0000
  H   H1875     1.0  0.25641  0.81807  0.43784  1.0000
  Fe  Fe125     1.0  0.33726  0.63762  0.27727  1.0000
  S   S245      1.0  0.34016  0.61762  0.30281  1.0000
  S   S246      1.0  0.34232  0.66538  0.27144  1.0000
  Fe  Fe126     1.0  0.32217  0.61394  0.26297  1.0000
  S   S247      1.0  0.32469  0.59177  0.28698  1.0000
  S   S248      1.0  0.30880  0.61616  0.24027  1.0000
  Fe  Fe127     1.0  0.31357  0.61318  0.30274  1.0000
  S   S249      1.0  0.28967  0.60916  0.32485  1.0000
  Fe  Fe128     1.0  0.35123  0.59797  0.28501  1.0000
  S   S250      1.0  0.37501  0.57553  0.28994  1.0000
  S   S251      1.0  0.30950  0.63504  0.27897  1.0000
  S   S252      1.0  0.34995  0.61828  0.25929  1.0000
  Fe  Fe129     1.0  0.31974  0.66459  0.39285  1.0000
  S   S253      1.0  0.29959  0.66550  0.37790  1.0000
  S   S254      1.0  0.34771  0.65990  0.37710  1.0000
  Fe  Fe130     1.0  0.29195  0.66963  0.42613  1.0000
  S   S255      1.0  0.26920  0.67108  0.41383  1.0000
  S   S256      1.0  0.28717  0.67072  0.45485  1.0000
  Fe  Fe131     1.0  0.28749  0.64815  0.40243  1.0000
  S   S257      1.0  0.27833  0.62442  0.40113  1.0000
  Fe  Fe132     1.0  0.28347  0.68839  0.39024  1.0000
  S   S258      1.0  0.27087  0.71185  0.37138  1.0000
  S   S259      1.0  0.30904  0.64521  0.41666  1.0000
  S   S260      1.0  0.30471  0.68899  0.40344  1.0000
  C   C1053     1.0  0.20444  0.58558  0.08504  1.0000
  Fe  Fe133     1.0  0.23488  0.57961  0.22126  1.0000
  S   S261      1.0  0.24070  0.56584  0.19858  1.0000
  S   S262      1.0  0.25369  0.57111  0.24057  1.0000
  H   H1876     1.0  0.22693  0.65251  0.31749  1.0000
  Fe  Fe134     1.0  0.23495  0.59333  0.18208  1.0000
  S   S263      1.0  0.25345  0.59986  0.15565  1.0000
  S   S264      1.0  0.23066  0.60718  0.20430  1.0000
  Fe  Fe135     1.0  0.25876  0.70591  0.06395  1.0000
  S   S265      1.0  0.24746  0.71008  0.03987  1.0000
  S   S266      1.0  0.28317  0.71628  0.06285  1.0000
  Fe  Fe136     1.0  0.23020  0.68631  0.08772  1.0000
  S   S267      1.0  0.21600  0.68915  0.06605  1.0000
  S   S268      1.0  0.21866  0.67609  0.11646  1.0000
  Fe  Fe137     1.0  0.24355  0.68183  0.04968  1.0000
  S   S269      1.0  0.24893  0.66600  0.02835  1.0000
  Fe  Fe138     1.0  0.22085  0.71682  0.05775  1.0000
  H   H1877     1.0  0.38856  0.71320  0.35812  1.0000
  S   S270      1.0  0.25765  0.67674  0.07215  1.0000
  S   S271      1.0  0.23223  0.71495  0.08097  1.0000
  H   H1878     1.0  0.22415  0.96202  0.44829  1.0000
  H   H1879     1.0  0.29976  0.79176  0.02469  1.0000
  H   H1880     1.0  0.22797  0.93586  0.30947  1.0000
  H   H1881     1.0  0.22289  0.90186  0.34630  1.0000
  C   C1054     1.0  0.23828  0.64862  0.03017  1.0000
  C   C1055     1.0  0.24072  0.64166  0.01511  1.0000
  C   C1056     1.0  0.23354  0.62701  0.01623  1.0000
  C   C1057     1.0  0.22390  0.61913  0.03248  1.0000
  C   C1058     1.0  0.22098  0.62642  0.04744  1.0000
  C   C1059     1.0  0.22802  0.64120  0.04629  1.0000
  H   H1882     1.0  0.35604  0.54215  0.47270  1.0000
  H   H1883     1.0  0.21850  0.52739  0.06404  1.0000
  H   H1884     1.0  0.22607  0.64643  0.05797  1.0000
  C   C1060     1.0  0.20759  0.78730  0.29818  1.0000
  C   C1061     1.0  0.35880  0.56924  0.36057  1.0000
  C   C1062     1.0  0.20350  0.91122  0.40538  1.0000
  C   C1063     1.0  0.37329  0.64716  0.41157  1.0000
  H   H1885     1.0  0.34424  0.55314  0.44525  1.0000
  H   H1886     1.0  0.25772  0.84632  0.13650  1.0000
  C   C1064     1.0  0.24470  0.62131  0.14454  1.0000
  C   C1065     1.0  0.23153  0.63277  0.15411  1.0000
  C   C1066     1.0  0.22394  0.64970  0.14532  1.0000
  C   C1067     1.0  0.22926  0.65514  0.12689  1.0000
  C   C1068     1.0  0.24275  0.64386  0.11729  1.0000
  C   C1069     1.0  0.25056  0.62694  0.12616  1.0000
  H   H1887     1.0  0.22724  0.62861  0.16831  1.0000
  H   H1888     1.0  0.21384  0.65859  0.15281  1.0000
  H   H1889     1.0  0.24693  0.64801  0.10304  1.0000
  H   H1890     1.0  0.26079  0.61808  0.11873  1.0000
  C   C1070     1.0  0.29722  0.65011  0.46644  1.0000
  C   C1071     1.0  0.31469  0.64196  0.45956  1.0000
  C   C1072     1.0  0.32256  0.62511  0.46841  1.0000
  H   H1891     1.0  0.32204  0.64869  0.44734  1.0000
  H   H1892     1.0  0.33585  0.61865  0.46268  1.0000
  Fe  Fe139     1.0  0.20216  0.60481  0.20935  1.0000
  H   H1893     1.0  0.20354  0.84461  0.17309  1.0000
  C   C1073     1.0  0.29348  0.60345  0.24078  1.0000
  C   C1074     1.0  0.28017  0.61110  0.23081  1.0000
  C   C1075     1.0  0.26780  0.60144  0.23077  1.0000
  C   C1076     1.0  0.26889  0.58383  0.24033  1.0000
  C   C1077     1.0  0.28234  0.57609  0.25012  1.0000
  C   C1078     1.0  0.29458  0.58584  0.25035  1.0000
  H   H1894     1.0  0.27937  0.62463  0.22313  1.0000
  H   H1895     1.0  0.25745  0.60764  0.22330  1.0000
  H   H1896     1.0  0.28334  0.56244  0.25753  1.0000
  H   H1897     1.0  0.30500  0.57966  0.25778  1.0000
  C   C1079     1.0  0.28741  0.61339  0.34585  1.0000
  C   C1080     1.0  0.27315  0.60862  0.35939  1.0000
  C   C1081     1.0  0.27071  0.61186  0.37632  1.0000
  C   C1082     1.0  0.28233  0.62021  0.37978  1.0000
  C   C1083     1.0  0.29681  0.62481  0.36631  1.0000
  C   C1084     1.0  0.29932  0.62140  0.34931  1.0000
  H   H1898     1.0  0.26397  0.60231  0.35681  1.0000
  H   H1899     1.0  0.25961  0.60814  0.38670  1.0000
  H   H1900     1.0  0.30617  0.63076  0.36905  1.0000
  H   H1901     1.0  0.31048  0.62473  0.33890  1.0000
  S   S272      1.0  0.20623  0.86880  0.38609  1.0000
  C   C1085     1.0  0.27555  0.96249  0.42373  1.0000
  H   H1902     1.0  0.38171  0.60820  0.29393  1.0000
  H   H1903     1.0  0.37243  0.98228  0.11650  1.0000
  C   C1086     1.0  0.31282  0.61629  0.48408  1.0000
  C   C1087     1.0  0.37571  0.65224  0.27897  1.0000
  C   C1088     1.0  0.36166  0.66703  0.27693  1.0000
  C   C1089     1.0  0.36340  0.68359  0.27834  1.0000
  C   C1090     1.0  0.37924  0.68542  0.28153  1.0000
  H   H1904     1.0  0.32264  0.89556  0.07297  1.0000
  H   H1905     1.0  0.37453  0.63947  0.27773  1.0000
  H   H1906     1.0  0.35263  0.69512  0.27658  1.0000
  H   H1907     1.0  0.38063  0.69828  0.28228  1.0000
  C   C1091     1.0  0.35871  0.71347  0.34417  1.0000
  C   C1092     1.0  0.36379  0.69860  0.33647  1.0000
  C   C1093     1.0  0.36077  0.68206  0.34675  1.0000
  C   C1094     1.0  0.35171  0.68058  0.36447  1.0000
  C   C1095     1.0  0.34587  0.69563  0.37201  1.0000
  C   C1096     1.0  0.34955  0.71207  0.36190  1.0000
  H   H1908     1.0  0.37047  0.69977  0.32262  1.0000
  H   H1909     1.0  0.36549  0.67047  0.34092  1.0000
  H   H1910     1.0  0.33938  0.69442  0.38587  1.0000
  H   H1911     1.0  0.34614  0.72338  0.36805  1.0000
  C   C1097     1.0  0.28316  0.75850  0.09242  1.0000
  C   C1098     1.0  0.29903  0.75025  0.08239  1.0000
  C   C1099     1.0  0.29890  0.73712  0.07367  1.0000
  C   C1100     1.0  0.28296  0.73205  0.07492  1.0000
  C   C1101     1.0  0.26718  0.74011  0.08516  1.0000
  C   C1102     1.0  0.26730  0.75317  0.09392  1.0000
  H   H1912     1.0  0.31136  0.75418  0.08113  1.0000
  H   H1913     1.0  0.31120  0.73100  0.06577  1.0000
  H   H1914     1.0  0.25476  0.73672  0.08585  1.0000
  H   H1915     1.0  0.25494  0.75954  0.10154  1.0000
  C   C1103     1.0  0.31440  0.56584  0.39762  1.0000
  C   C1104     1.0  0.28646  0.60096  0.18683  1.0000
  H   H1916     1.0  0.23630  0.84627  0.42596  1.0000
  C   C1105     1.0  0.25209  0.81996  0.42524  1.0000
  H   H1917     1.0  0.36812  0.97747  0.06466  1.0000
  H   H1918     1.0  0.25328  0.86242  0.26423  1.0000
  H   H1919     1.0  0.37002  0.84414  0.15774  1.0000
  C   C1106     1.0  0.33780  0.92940  0.11104  1.0000
  C   C1107     1.0  0.29486  0.96018  0.41322  1.0000
  C   C1108     1.0  0.33581  0.86510  0.14186  1.0000
  C   C1109     1.0  0.33135  0.86153  0.12759  1.0000
  C   C1110     1.0  0.32479  0.84628  0.12978  1.0000
  C   C1111     1.0  0.32192  0.83486  0.14645  1.0000
  C   C1112     1.0  0.32576  0.83872  0.16097  1.0000
  C   C1113     1.0  0.33286  0.85375  0.15864  1.0000
  H   H1920     1.0  0.33324  0.87044  0.11469  1.0000
  H   H1921     1.0  0.32178  0.84346  0.11857  1.0000
  H   H1922     1.0  0.32349  0.82995  0.17392  1.0000
  H   H1923     1.0  0.33596  0.85661  0.16977  1.0000
  H   H1924     1.0  0.36211  0.77643  0.21710  1.0000
  H   H1925     1.0  0.28776  0.71581  0.15490  1.0000
  H   H1926     1.0  0.20762  0.85056  0.27413  1.0000
  H   H1927     1.0  0.24034  0.97949  0.42219  1.0000
  H   H1928     1.0  0.23623  0.62126  0.00473  1.0000
  C   C1114     1.0  0.34215  0.55000  0.47310  1.0000
  H   H1929     1.0  0.27636  0.55807  0.31805  1.0000
  C   C1115     1.0  0.37669  0.81763  0.17387  1.0000
  S   S273      1.0  0.21081  0.77603  0.28115  1.0000
  H   H1930     1.0  0.39780  0.57752  0.36461  1.0000
  C   C1116     1.0  0.26651  0.73197  0.37824  1.0000
  C   C1117     1.0  0.26039  0.74788  0.36688  1.0000
  C   C1118     1.0  0.25614  0.76408  0.37225  1.0000
  C   C1119     1.0  0.25899  0.76467  0.38855  1.0000
  C   C1120     1.0  0.26520  0.74874  0.39993  1.0000
  C   C1121     1.0  0.26880  0.73236  0.39485  1.0000
  H   H1931     1.0  0.25892  0.74769  0.35391  1.0000
  H   H1932     1.0  0.25080  0.77607  0.36368  1.0000
  H   H1933     1.0  0.26728  0.74905  0.41266  1.0000
  H   H1934     1.0  0.27337  0.72010  0.40379  1.0000
  C   C1122     1.0  0.21284  0.88544  0.39182  1.0000
  H   H1935     1.0  0.23773  0.59538  0.07599  1.0000
  H   H1936     1.0  0.28433  0.71916  0.47721  1.0000
  C   C1123     1.0  0.22125  0.91132  0.40427  1.0000
  C   C1124     1.0  0.23490  0.89843  0.39672  1.0000
  C   C1125     1.0  0.23071  0.88544  0.39049  1.0000
  H   H1937     1.0  0.35791  0.58969  0.33538  1.0000
  H   H1938     1.0  0.22839  0.66123  0.17693  1.0000
  H   H1939     1.0  0.24868  0.89835  0.39592  1.0000
  H   H1940     1.0  0.24121  0.87537  0.38496  1.0000
  C   C1126     1.0  0.27658  0.93569  0.19002  1.0000
  C   C1127     1.0  0.27822  0.94148  0.20441  1.0000
  C   C1128     1.0  0.29514  0.93937  0.20779  1.0000
  C   C1129     1.0  0.31037  0.93065  0.19736  1.0000
  C   C1130     1.0  0.30872  0.92483  0.18298  1.0000
  C   C1131     1.0  0.29186  0.92757  0.17917  1.0000
  H   H1941     1.0  0.26643  0.94768  0.21288  1.0000
  H   H1942     1.0  0.29633  0.94392  0.21890  1.0000
  H   H1943     1.0  0.32036  0.91803  0.17490  1.0000
  H   H1944     1.0  0.29058  0.92289  0.16818  1.0000
  C   C1132     1.0  0.25691  0.89788  0.28557  1.0000
  C   C1133     1.0  0.24756  0.88425  0.29000  1.0000
  C   C1134     1.0  0.25363  0.86787  0.30088  1.0000
  C   C1135     1.0  0.26937  0.86494  0.30682  1.0000
  C   C1136     1.0  0.27886  0.87849  0.30218  1.0000
  C   C1137     1.0  0.27239  0.89509  0.29190  1.0000
  H   H1945     1.0  0.23551  0.88639  0.28527  1.0000
  H   H1946     1.0  0.24631  0.85738  0.30437  1.0000
  H   H1947     1.0  0.29093  0.87631  0.30691  1.0000
  C   C1138     1.0  0.22448  0.83749  0.18817  1.0000
  C   C1139     1.0  0.20042  0.93727  0.29470  1.0000
  H   H1948     1.0  0.20290  0.71641  0.02200  1.0000
  C   C1140     1.0  0.23738  0.95521  0.45142  1.0000
  H   H1949     1.0  0.29479  0.82863  0.21424  1.0000
  H   H1950     1.0  0.22534  0.99281  0.43647  1.0000
  H   H1951     1.0  0.20218  0.56223  0.13830  1.0000
  H   H1952     1.0  0.28191  0.72724  0.02529  1.0000
  H   H1953     1.0  0.21726  0.76855  0.05079  1.0000
  C   C1141     1.0  0.38058  0.59899  0.34983  1.0000
  H   H1954     1.0  0.20711  0.74256  0.12844  1.0000
  C   C1142     1.0  0.32160  0.57381  0.45523  1.0000
  H   H1955     1.0  0.24855  0.75480  0.05502  1.0000
  H   H1956     1.0  0.20472  0.55104  0.16038  1.0000
  H   H1957     1.0  0.27991  0.56028  0.18800  1.0000
  H   H1958     1.0  0.25223  0.72579  0.32975  1.0000
  H   H1959     1.0  0.31849  0.67840  0.46880  1.0000
  H   H1960     1.0  0.24123  0.78109  0.02885  1.0000
  H   H1961     1.0  0.37560  0.58435  0.37641  1.0000
  H   H1962     1.0  0.32438  0.54454  0.18354  1.0000
  H   H1963     1.0  0.31174  0.72032  0.35202  1.0000
  H   H1964     1.0  0.35326  0.97932  0.15272  1.0000
  H   H1965     1.0  0.21551  0.78394  0.06446  1.0000
  H   H1966     1.0  0.34624  0.99067  0.06260  1.0000
  H   H1967     1.0  0.21063  0.88666  0.45719  1.0000
  C   C1143     1.0  0.38177  0.78504  0.13618  1.0000
  H   H1968     1.0  0.22854  0.93031  0.46224  1.0000
  H   H1969     1.0  0.23099  0.83506  0.41204  1.0000
  N   N61       1.0  0.25682  0.69393  0.13429  1.0000
  C   C1144     1.0  0.26764  0.68016  0.12359  1.0000
  C   C1145     1.0  0.24593  0.68514  0.15151  1.0000
  C   C1146     1.0  0.24394  0.70693  0.12356  1.0000
  C   C1147     1.0  0.26823  0.70443  0.13771  1.0000
  C   C1148     1.0  0.28446  0.69360  0.14589  1.0000
  C   C1149     1.0  0.27856  0.68729  0.10501  1.0000
  C   C1150     1.0  0.23043  0.72155  0.13275  1.0000
  C   C1151     1.0  0.25409  0.66580  0.16034  1.0000
  H   H1970     1.0  0.21269  0.71819  0.33800  1.0000
  C   C1152     1.0  0.29578  0.70593  0.14674  1.0000
  C   C1153     1.0  0.29160  0.67206  0.09705  1.0000
  H   H1971     1.0  0.32826  0.58836  0.33278  1.0000
  H   H1972     1.0  0.25863  0.67276  0.12145  1.0000
  H   H1973     1.0  0.27710  0.66989  0.13094  1.0000
  H   H1974     1.0  0.24226  0.69350  0.16160  1.0000
  H   H1975     1.0  0.23304  0.68415  0.14927  1.0000
  H   H1976     1.0  0.23623  0.69962  0.11949  1.0000
  H   H1977     1.0  0.25122  0.71412  0.11099  1.0000
  H   H1978     1.0  0.27320  0.71368  0.12521  1.0000
  H   H1979     1.0  0.26008  0.71333  0.14688  1.0000
  H   H1980     1.0  0.29330  0.68393  0.13790  1.0000
  H   H1981     1.0  0.27989  0.68650  0.15969  1.0000
  H   H1982     1.0  0.26940  0.69428  0.09584  1.0000
  H   H1983     1.0  0.28640  0.69661  0.10549  1.0000
  H   H1984     1.0  0.23747  0.73100  0.13449  1.0000
  H   H1985     1.0  0.38269  0.64718  0.21844  1.0000
  H   H1986     1.0  0.25508  0.65646  0.15187  1.0000
  H   H1987     1.0  0.26759  0.66448  0.16239  1.0000
  C   C1154     1.0  0.25753  0.99390  0.46811  1.0000
  C   C1155     1.0  0.20460  0.69525  0.00870  1.0000
  H   H1988     1.0  0.29189  0.70254  0.46392  1.0000
  H   H1989     1.0  0.30115  0.71315  0.13315  1.0000
  H   H1990     1.0  0.30722  0.69795  0.15287  1.0000
  H   H1991     1.0  0.28446  0.66209  0.09658  1.0000
  H   H1992     1.0  0.29832  0.67746  0.08327  1.0000
  H   H1993     1.0  0.30196  0.66541  0.10503  1.0000
  H   H1994     1.0  0.22525  0.94342  0.47844  1.0000
  H   H1995     1.0  0.27350  0.73218  0.00538  1.0000
  H   H1996     1.0  0.21853  0.88457  0.43443  1.0000
  N   N62       1.0  0.30790  0.78341  0.34632  1.0000
  C   C1156     1.0  0.30205  0.80320  0.34561  1.0000
  C   C1157     1.0  0.29492  0.77782  0.33937  1.0000
  C   C1158     1.0  0.30655  0.77399  0.36565  1.0000
  C   C1159     1.0  0.32687  0.77792  0.33627  1.0000
  C   C1160     1.0  0.33411  0.79167  0.31981  1.0000
  C   C1161     1.0  0.31166  0.81063  0.35558  1.0000
  C   C1162     1.0  0.30980  0.75334  0.36950  1.0000
  C   C1163     1.0  0.29351  0.78614  0.31980  1.0000
  C   C1164     1.0  0.27946  0.77962  0.31492  1.0000
  C   C1165     1.0  0.35190  0.78306  0.30918  1.0000
  C   C1166     1.0  0.30885  0.83091  0.34997  1.0000
  C   C1167     1.0  0.31277  0.74493  0.38835  1.0000
  H   H1997     1.0  0.28749  0.80675  0.35147  1.0000
  H   H1998     1.0  0.30346  0.81095  0.33170  1.0000
  H   H1999     1.0  0.29837  0.76323  0.34032  1.0000
  H   H2000     1.0  0.28133  0.78076  0.34783  1.0000
  H   H2001     1.0  0.29315  0.77889  0.37371  1.0000
  H   H2002     1.0  0.31636  0.77713  0.37130  1.0000
  H   H2003     1.0  0.33649  0.77450  0.34517  1.0000
  H   H2004     1.0  0.32855  0.76532  0.33192  1.0000
  H   H2005     1.0  0.33646  0.80280  0.32407  1.0000
  H   H2006     1.0  0.32478  0.79758  0.31071  1.0000
  H   H2007     1.0  0.30614  0.80726  0.37014  1.0000
  H   H2008     1.0  0.32620  0.80482  0.35320  1.0000
  H   H2009     1.0  0.32161  0.74769  0.36007  1.0000
  H   H2010     1.0  0.29799  0.74925  0.36834  1.0000
  H   H2011     1.0  0.28968  0.80090  0.31734  1.0000
  H   H2012     1.0  0.30635  0.78192  0.31074  1.0000
  H   H2013     1.0  0.27844  0.78598  0.30092  1.0000
  H   H2014     1.0  0.28322  0.76493  0.31625  1.0000
  H   H2015     1.0  0.26614  0.78315  0.32362  1.0000
  H   H2016     1.0  0.35019  0.77224  0.30391  1.0000
  H   H2017     1.0  0.35709  0.79321  0.29780  1.0000
  H   H2018     1.0  0.36192  0.77736  0.31770  1.0000
  H   H2019     1.0  0.31562  0.83584  0.35753  1.0000
  H   H2020     1.0  0.31447  0.83506  0.33554  1.0000
  H   H2021     1.0  0.29440  0.83717  0.35276  1.0000
  H   H2022     1.0  0.32538  0.74723  0.38982  1.0000
  H   H2023     1.0  0.30147  0.75061  0.39829  1.0000
  H   H2024     1.0  0.30555  0.71812  0.46167  1.0000
  H   H2025     1.0  0.23562  0.73118  0.36383  1.0000
  H   H2026     1.0  0.29580  0.55722  0.30009  1.0000
  H   H2027     1.0  0.35665  0.78733  0.19623  1.0000
  C   C1168     1.0  0.30528  0.69719  0.48588  1.0000
  H   H2028     1.0  0.28859  0.58445  0.44679  1.0000
  Fe  Fe140     1.0  0.23058  0.89053  0.23183  1.0000
  H   H2029     1.0  0.27393  0.62745  0.44091  1.0000
  H   H2030     1.0  0.32275  0.91074  0.09597  1.0000
  H   H2031     1.0  0.24724  0.64533  0.18373  1.0000
  H   H2032     1.0  0.31663  0.71916  0.31275  1.0000
  C   C1169     1.0  0.32326  0.54049  0.15066  1.0000
  C   C1170     1.0  0.22892  0.74794  0.33260  1.0000
  C   C1171     1.0  0.20313  0.75457  0.35646  1.0000
  H   H2033     1.0  0.20307  0.83892  0.41297  1.0000
  C   C1172     1.0  0.37437  0.83775  0.17049  1.0000
  H   H2034     1.0  0.26201  0.66291  0.25477  1.0000
  H   H2035     1.0  0.25400  0.64736  0.28563  1.0000
  H   H2036     1.0  0.29856  0.78713  0.06438  1.0000
  H   H2037     1.0  0.33406  0.91624  0.11624  1.0000
  H   H2038     1.0  0.30095  0.56209  0.15539  1.0000
  H   H2039     1.0  0.36356  0.81454  0.17529  1.0000
  C   C1173     1.0  0.22135  0.54877  0.07459  1.0000
  H   H2040     1.0  0.26708  0.64257  0.24698  1.0000
  C   C1174     1.0  0.31718  0.71236  0.32675  1.0000
  H   H2041     1.0  0.30752  0.69695  0.27056  1.0000
  H   H2042     1.0  0.25770  0.93281  0.31401  1.0000
  H   H2043     1.0  0.37110  0.94455  0.07853  1.0000
  H   H2044     1.0  0.21356  0.62045  0.06007  1.0000
  C   C1175     1.0  0.37352  0.55178  0.39406  1.0000
  H   H2045     1.0  0.24870  0.64728  0.00261  1.0000
  C   C1176     1.0  0.35729  0.94691  0.08673  1.0000
  H   H2046     1.0  0.32689  0.59224  0.35436  1.0000
  H   H2047     1.0  0.20602  0.78360  0.18518  1.0000
  H   H2048     1.0  0.24556  0.61392  0.33126  1.0000
  H   H2049     1.0  0.33659  0.65482  0.30959  1.0000
  H   H2050     1.0  0.21457  0.93022  0.29190  1.0000
  N   N63       1.0  0.38125  0.97833  0.15048  1.0000
  C   C1177     1.0  0.37993  0.66473  0.40276  1.0000
  H   H2051     1.0  0.20890  0.60025  0.27557  1.0000
  H   H2052     1.0  0.24744  0.93131  0.46997  1.0000
  H   H2053     1.0  0.39772  0.54615  0.37420  1.0000
  H   H2054     1.0  0.31645  0.79277  0.04609  1.0000
  H   H2055     1.0  0.38723  0.84110  0.16965  1.0000
  C   C1178     1.0  0.21390  0.71801  0.37860  1.0000
  C   C1179     1.0  0.22750  0.53677  0.06111  1.0000
  C   C1180     1.0  0.37688  0.53414  0.40750  1.0000
  H   H2056     1.0  0.23027  0.97484  0.29236  1.0000
  S   S274      1.0  0.20577  0.57811  0.22825  1.0000
  H   H2057     1.0  0.37065  0.67240  0.39378  1.0000
  H   H2058     1.0  0.22271  0.71264  0.00487  1.0000
  H   H2059     1.0  0.26669  0.76437  0.00464  1.0000
  H   H2060     1.0  0.37720  0.75596  0.19943  1.0000
  C   C1181     1.0  0.21811  0.60729  0.26456  1.0000
  C   C1182     1.0  0.24224  0.65965  0.17835  1.0000
  H   H2061     1.0  0.22854  0.82636  0.19910  1.0000
  H   H2062     1.0  0.26170  0.79274  0.00547  1.0000
  C   C1183     1.0  0.20304  0.66973  0.21546  1.0000
  H   H2063     1.0  0.33123  0.69339  0.46933  1.0000
  H   H2064     1.0  0.37269  0.64058  0.40122  1.0000
  H   H2065     1.0  0.21566  0.50835  0.03626  1.0000
  H   H2066     1.0  0.19961  0.70389  0.20458  1.0000
  C   C1184     1.0  0.23050  0.59487  0.09006  1.0000
  H   H2067     1.0  0.36244  0.83642  0.11558  1.0000
  C   C1185     1.0  0.20759  0.88260  0.44629  1.0000
  H   H2068     1.0  0.25221  0.67181  0.34637  1.0000
  C   C1186     1.0  0.39548  0.71341  0.36833  1.0000
  C   C1187     1.0  0.32044  0.94394  0.11179  1.0000
  H   H2069     1.0  0.21036  0.67549  0.20224  1.0000
  C   C1188     1.0  0.29774  0.59394  0.44144  1.0000
  H   H2070     1.0  0.35365  0.99139  0.17894  1.0000
  C   C1189     1.0  0.27435  0.61856  0.45424  1.0000
  H   H2071     1.0  0.37136  0.52401  0.40478  1.0000
  C   C1190     1.0  0.33435  0.91004  0.08456  1.0000
  C   C1191     1.0  0.31799  0.57095  0.42651  1.0000
  H   H2072     1.0  0.26416  0.61036  0.45769  1.0000
  H   H2073     1.0  0.22347  0.82609  0.45336  1.0000
  C   C1192     1.0  0.20042  0.85349  0.28737  1.0000
  H   H2074     1.0  0.29315  0.60232  0.19668  1.0000
  C   C1193     1.0  0.32803  0.90786  0.06901  1.0000
  H   H2075     1.0  0.20916  0.98411  0.25671  1.0000
  H   H2076     1.0  0.30422  0.95740  0.42220  1.0000
  H   H2077     1.0  0.32356  0.95717  0.10976  1.0000
  H   H2078     1.0  0.35208  0.92682  0.06672  1.0000
  C   C1194     1.0  0.37146  0.95426  0.17808  1.0000
  H   H2079     1.0  0.30841  0.57221  0.38576  1.0000
  H   H2080     1.0  0.29807  0.94880  0.40658  1.0000
  S   S275      1.0  0.21766  0.59877  0.03506  1.0000
  H   H2081     1.0  0.20471  0.71109  0.37621  1.0000
  H   H2082     1.0  0.37980  0.53766  0.37311  1.0000
  H   H2083     1.0  0.34438  0.89782  0.08812  1.0000
  H   H2084     1.0  0.31738  0.91944  0.06510  1.0000
  C   C1195     1.0  0.39047  0.83277  0.10178  1.0000
  C   C1196     1.0  0.31335  0.68862  0.30481  1.0000
  C   C1197     1.0  0.23427  0.83333  0.42510  1.0000
  H   H2085     1.0  0.28084  0.64558  0.26004  1.0000
  H   H2086     1.0  0.36451  0.65456  0.31839  1.0000
  H   H2087     1.0  0.30278  0.53220  0.20235  1.0000
  C   C1198     1.0  0.27813  0.67887  0.33812  1.0000
  S   S276      1.0  0.21535  0.90031  0.25653  1.0000
  C   C1199     1.0  0.20469  0.73106  0.34144  1.0000
  H   H2088     1.0  0.29328  0.73938  0.00472  1.0000
  C   C1200     1.0  0.26232  0.61993  0.28149  1.0000
  C   C1201     1.0  0.25489  0.64021  0.27519  1.0000
  S   S277      1.0  0.39450  0.93217  0.04743  1.0000
  H   H2089     1.0  0.31069  0.56034  0.43468  1.0000
  H   H2090     1.0  0.25827  0.93995  0.29054  1.0000
  H   H2091     1.0  0.29532  0.58304  0.41322  1.0000
  H   H2092     1.0  0.27095  0.62705  0.46411  1.0000
  H   H2093     1.0  0.38479  0.64934  0.47068  1.0000
  C   C1202     1.0  0.38767  0.61292  0.35420  1.0000
  S   S278      1.0  0.36364  0.61510  0.48021  1.0000
  H   H2094     1.0  0.21928  0.84992  0.19323  1.0000
  C   C1203     1.0  0.29295  0.60665  0.45443  1.0000
  H   H2095     1.0  0.35860  0.85882  0.03260  1.0000
  H   H2096     1.0  0.25084  0.83497  0.20282  1.0000
  Fe  Fe141     1.0  0.38666  0.90653  0.15903  1.0000
  H   H2097     1.0  0.33937  0.90651  0.05740  1.0000
  H   H2098     1.0  0.37238  0.91882  0.11911  1.0000
  C   C1204     1.0  0.37761  0.79139  0.05633  1.0000
  H   H2099     1.0  0.37453  0.91273  0.08208  1.0000
  N   N64       1.0  0.30568  0.87165  0.24066  1.0000
  C   C1205     1.0  0.32002  0.85477  0.24097  1.0000
  C   C1206     1.0  0.30392  0.88045  0.22168  1.0000
  C   C1207     1.0  0.31164  0.88425  0.24784  1.0000
  C   C1208     1.0  0.28799  0.86839  0.25236  1.0000
  C   C1209     1.0  0.27985  0.85486  0.24817  1.0000
  C   C1210     1.0  0.32394  0.84460  0.25949  1.0000
  C   C1211     1.0  0.29996  0.90340  0.24655  1.0000
  C   C1212     1.0  0.30620  0.86810  0.20881  1.0000
  C   C1213     1.0  0.30087  0.87875  0.19134  1.0000
  C   C1214     1.0  0.26396  0.85026  0.26288  1.0000
  C   C1215     1.0  0.30792  0.91518  0.25310  1.0000
  H   H2100     1.0  0.33279  0.85789  0.23218  1.0000
  H   H2101     1.0  0.31684  0.84512  0.23525  1.0000
  H   H2102     1.0  0.29086  0.89000  0.22155  1.0000
  H   H2103     1.0  0.31412  0.88874  0.21509  1.0000
  H   H2104     1.0  0.32555  0.88548  0.24081  1.0000
  H   H2105     1.0  0.31184  0.87904  0.26220  1.0000
  H   H2106     1.0  0.28886  0.86433  0.26662  1.0000
  H   H2107     1.0  0.27768  0.88097  0.25161  1.0000
  H   H2108     1.0  0.28959  0.84219  0.24679  1.0000
  H   H2109     1.0  0.27472  0.86081  0.23579  1.0000
  H   H2110     1.0  0.32942  0.85267  0.26517  1.0000
  H   H2111     1.0  0.31170  0.84114  0.26893  1.0000
  H   H2112     1.0  0.28635  0.90331  0.25470  1.0000
  H   H2113     1.0  0.29878  0.90979  0.23272  1.0000
  H   H2114     1.0  0.32037  0.86106  0.20554  1.0000
  H   H2115     1.0  0.29812  0.85788  0.21455  1.0000
  H   H2116     1.0  0.30984  0.88809  0.18414  1.0000
  H   H2117     1.0  0.30202  0.86956  0.18269  1.0000
  H   H2118     1.0  0.28688  0.88644  0.19384  1.0000
  H   H2119     1.0  0.25834  0.84062  0.25949  1.0000
  H   H2120     1.0  0.26809  0.84414  0.27578  1.0000
  C   C1216     1.0  0.23547  0.61948  0.30688  1.0000
  H   H2121     1.0  0.29898  0.92861  0.25247  1.0000
  H   H2122     1.0  0.30928  0.90943  0.26708  1.0000
  H   H2123     1.0  0.32119  0.91668  0.24453  1.0000
  N   N65       1.0  0.31697  0.58396  0.43758  1.0000
  C   C1217     1.0  0.21707  0.85568  0.22952  1.0000
  C   C1218     1.0  0.38516  0.80812  0.19028  1.0000
  C   C1219     1.0  0.32864  0.59728  0.42817  1.0000
  C   C1220     1.0  0.34672  0.59073  0.41589  1.0000
  C   C1221     1.0  0.31011  0.57916  0.40953  1.0000
  H   H2124     1.0  0.24051  0.59143  0.09846  1.0000
  C   C1222     1.0  0.35832  0.60460  0.41013  1.0000
  H   H2125     1.0  0.20147  0.69466  0.14903  1.0000
  H   H2126     1.0  0.38345  0.96887  0.02749  1.0000
  H   H2127     1.0  0.33191  0.56377  0.42237  1.0000
  H   H2128     1.0  0.29394  0.60242  0.42897  1.0000
  H   H2129     1.0  0.32144  0.60867  0.41941  1.0000
  H   H2130     1.0  0.33138  0.60317  0.43805  1.0000
  H   H2131     1.0  0.34440  0.58856  0.40363  1.0000
  H   H2132     1.0  0.35450  0.57808  0.42230  1.0000
  H   H2133     1.0  0.20695  0.67430  0.22550  1.0000
  H   H2134     1.0  0.31517  0.59124  0.40166  1.0000
  H   H2135     1.0  0.30257  0.61543  0.45066  1.0000
  H   H2136     1.0  0.28990  0.84536  0.12382  1.0000
  H   H2137     1.0  0.33293  0.78993  0.23477  1.0000
  H   H2138     1.0  0.35143  0.61740  0.40277  1.0000
  H   H2139     1.0  0.36145  0.60698  0.42191  1.0000
  H   H2140     1.0  0.37113  0.59972  0.40133  1.0000
  H   H2141     1.0  0.32899  0.56155  0.39306  1.0000
  H   H2142     1.0  0.30869  0.55397  0.40489  1.0000
  S   S279      1.0  0.20065  0.74080  0.04871  1.0000
  H   H2143     1.0  0.33090  0.93836  0.07645  1.0000
  C   C1223     1.0  0.36310  0.78866  0.20643  1.0000
  H   H2144     1.0  0.20497  0.55327  0.10909  1.0000
  H   H2145     1.0  0.31446  0.94051  0.14071  1.0000
  C   C1224     1.0  0.20257  0.56431  0.15129  1.0000
  C   C1225     1.0  0.34208  0.92709  0.07954  1.0000
  H   H2146     1.0  0.23166  0.95903  0.27975  1.0000
  C   C1226     1.0  0.35910  0.86349  0.07934  1.0000
  C   C1227     1.0  0.34854  0.85286  0.07759  1.0000
  H   H2147     1.0  0.20612  0.88143  0.21481  1.0000
  H   H2148     1.0  0.38145  0.78434  0.17367  1.0000
  H   H2149     1.0  0.38731  0.80393  0.22554  1.0000
  H   H2150     1.0  0.24999  0.59373  0.27535  1.0000
  H   H2151     1.0  0.26818  0.65942  0.33087  1.0000
  H   H2152     1.0  0.21555  0.68594  0.00172  1.0000
  H   H2153     1.0  0.22066  0.69718  0.02599  1.0000
  H   H2154     1.0  0.28406  0.79084  0.00608  1.0000
  H   H2155     1.0  0.20590  0.72852  0.38595  1.0000
  S   S280      1.0  0.37333  0.57266  0.47889  1.0000
  H   H2156     1.0  0.36878  0.81126  0.07185  1.0000
  C   C1228     1.0  0.22550  0.70447  0.39074  1.0000
  H   H2157     1.0  0.36007  0.63270  0.32278  1.0000
  C   C1229     1.0  0.26988  0.84568  0.15828  1.0000
  H   H2158     1.0  0.22754  0.63153  0.29966  1.0000
  C   C1230     1.0  0.30181  0.79370  0.05013  1.0000
  C   C1231     1.0  0.21166  0.76399  0.36565  1.0000
  H   H2159     1.0  0.30335  0.57576  0.21218  1.0000
  C   C1232     1.0  0.36928  0.87093  0.04745  1.0000
  H   H2160     1.0  0.23509  0.78907  0.29319  1.0000
  C   C1233     1.0  0.21098  0.99222  0.26508  1.0000
  N   N66       1.0  0.38249  0.78941  0.19858  1.0000
  C   C1234     1.0  0.38973  0.75859  0.19002  1.0000
  H   H2161     1.0  0.22548  0.98994  0.26447  1.0000
  H   H2162     1.0  0.23741  0.62294  0.26016  1.0000
  N   N67       1.0  0.24934  0.60912  0.29420  1.0000
  H   H2163     1.0  0.23004  0.80508  0.31751  1.0000
  C   C1235     1.0  0.36223  0.98851  0.15096  1.0000
  S   S281      1.0  0.33633  0.83629  0.05867  1.0000
  H   H2164     1.0  0.21994  0.81285  0.44073  1.0000
  H   H2165     1.0  0.34493  0.65961  0.41514  1.0000
  C   C1236     1.0  0.33783  0.82724  0.25818  1.0000
  H   H2166     1.0  0.37573  0.78616  0.23735  1.0000
  H   H2167     1.0  0.36402  0.65253  0.23616  1.0000
  H   H2168     1.0  0.35716  0.96066  0.17875  1.0000
  C   C1237     1.0  0.35456  0.65063  0.42317  1.0000
  H   H2169     1.0  0.21327  0.70804  0.22715  1.0000
  H   H2170     1.0  0.33263  0.81801  0.25371  1.0000
  H   H2171     1.0  0.25180  0.81791  0.02227  1.0000
  H   H2172     1.0  0.28734  0.86720  0.12803  1.0000
  H   H2173     1.0  0.31680  0.67687  0.29874  1.0000
  H   H2174     1.0  0.35513  0.64882  0.48924  1.0000
  H   H2175     1.0  0.26445  0.84007  0.99737  1.0000
  C   C1238     1.0  0.28517  0.56619  0.30777  1.0000
  C   C1239     1.0  0.28777  0.56032  0.19756  1.0000
  H   H2176     1.0  0.39562  0.98297  0.11262  1.0000
  C   C1240     1.0  0.36628  0.91443  0.09536  1.0000
  H   H2177     1.0  0.35750  0.56797  0.33370  1.0000
  H   H2178     1.0  0.35436  0.65674  0.43415  1.0000
  C   C1241     1.0  0.37935  0.91584  0.10595  1.0000
  H   H2179     1.0  0.35833  0.95158  0.09824  1.0000
  H   H2180     1.0  0.35038  0.82994  0.24874  1.0000
  H   H2181     1.0  0.34092  0.82061  0.27147  1.0000
  H   H2182     1.0  0.24601  0.82624  0.16856  1.0000
  H   H2183     1.0  0.36183  0.90173  0.10198  1.0000
  C   C1242     1.0  0.22192  0.79205  0.30147  1.0000
  C   C1243     1.0  0.21909  0.80106  0.31522  1.0000
  C   C1244     1.0  0.27451  0.58034  0.29517  1.0000
  H   H2184     1.0  0.28401  0.58780  0.28516  1.0000
  C   C1245     1.0  0.24789  0.78227  0.03893  1.0000
  H   H2185     1.0  0.27954  0.90569  0.28862  1.0000
  H   H2186     1.0  0.20371  0.56860  0.05997  1.0000
  H   H2187     1.0  0.23151  0.59318  0.29373  1.0000
  H   H2188     1.0  0.20183  0.64289  0.23118  1.0000
  H   H2189     1.0  0.30473  0.69350  0.34819  1.0000
  C   C1246     1.0  0.22501  0.96314  0.29266  1.0000
  H   H2190     1.0  0.23497  0.64363  0.33783  1.0000
  H   H2191     1.0  0.28879  0.84024  0.18432  1.0000
  H   H2192     1.0  0.37032  0.53618  0.42116  1.0000
  H   H2193     1.0  0.21878  0.76031  0.07375  1.0000
  C   C1247     1.0  0.37261  0.77709  0.12895  1.0000
  H   H2194     1.0  0.22183  0.54006  0.08793  1.0000
  H   H2195     1.0  0.29560  0.95127  0.13047  1.0000
  H   H2196     1.0  0.21089  0.58957  0.07088  1.0000
  H   H2197     1.0  0.34056  0.84605  0.08929  1.0000
  H   H2198     1.0  0.39142  0.52905  0.40691  1.0000
  H   H2199     1.0  0.27506  0.61936  0.16501  1.0000
  S   S282      1.0  0.24966  0.91835  0.27185  1.0000
  H   H2200     1.0  0.24122  0.86540  0.19171  1.0000
  H   H2201     1.0  0.33941  0.57263  0.18458  1.0000
  H   H2202     1.0  0.28663  0.69302  0.29996  1.0000
  H   H2203     1.0  0.35543  0.64380  0.34092  1.0000
  C   C1248     1.0  0.26431  0.85497  0.14023  1.0000
  C   C1249     1.0  0.24009  0.60210  0.28419  1.0000
  C   C1250     1.0  0.24514  0.96829  0.45697  1.0000
  C   C1251     1.0  0.21319  0.70601  0.01588  1.0000
  H   H2204     1.0  0.30402  0.92759  0.13273  1.0000
  H   H2205     1.0  0.39103  0.83754  0.05991  1.0000
  C   C1252     1.0  0.25945  0.59312  0.30538  1.0000
  C   C1253     1.0  0.38949  0.77885  0.18410  1.0000
  H   H2206     1.0  0.35926  0.86469  0.09244  1.0000
  H   H2207     1.0  0.35513  0.67742  0.45471  1.0000
  H   H2208     1.0  0.23407  0.71111  0.39453  1.0000
  C   C1254     1.0  0.39382  0.78114  0.21235  1.0000
  H   H2209     1.0  0.20913  0.72353  0.11947  1.0000
  C   C1255     1.0  0.38307  0.54967  0.37484  1.0000
  C   C1256     1.0  0.22862  0.61610  0.27180  1.0000
  C   C1257     1.0  0.33242  0.58243  0.34569  1.0000
  H   H2210     1.0  0.32791  0.64454  0.33201  1.0000
  C   C1258     1.0  0.34854  0.85082  0.06081  1.0000
  C   C1259     1.0  0.20020  0.85749  0.43767  1.0000
  H   H2211     1.0  0.29938  0.66200  0.32255  1.0000
  H   H2212     1.0  0.38286  0.81747  0.05059  1.0000
  H   H2213     1.0  0.39047  0.96614  0.09328  1.0000
  C   C1260     1.0  0.29604  0.78469  0.03868  1.0000
  C   C1261     1.0  0.29692  0.70081  0.29776  1.0000
  C   C1262     1.0  0.34685  0.96272  0.07471  1.0000
  H   H2214     1.0  0.33238  0.96568  0.08055  1.0000
  C   C1263     1.0  0.26645  0.66524  0.34253  1.0000
  H   H2215     1.0  0.34439  0.93069  0.12106  1.0000
  C   C1264     1.0  0.39363  0.67081  0.28266  1.0000
  C   C1265     1.0  0.35525  0.64582  0.32665  1.0000
  H   H2216     1.0  0.24122  0.52888  0.06176  1.0000
  C   C1266     1.0  0.29628  0.71002  0.47123  1.0000
  C   C1267     1.0  0.39175  0.65420  0.28154  1.0000
  C   C1268     1.0  0.30534  0.69835  0.33367  1.0000
  H   H2217     1.0  0.27587  0.83146  0.15767  1.0000
  C   C1269     1.0  0.24040  0.83955  0.17210  1.0000
  H   H2218     1.0  0.23634  0.87238  0.17036  1.0000
  H   H2219     1.0  0.25125  0.89122  0.19390  1.0000
  H   H2220     1.0  0.26243  0.90414  0.17394  1.0000
  H   H2221     1.0  0.38622  0.88730  0.11694  1.0000
  C   C1270     1.0  0.33632  0.65396  0.32367  1.0000
  H   H2222     1.0  0.20369  0.86563  0.28879  1.0000
  C   C1271     1.0  0.25303  0.89498  0.17919  1.0000
  C   C1272     1.0  0.24748  0.86564  0.17740  1.0000
  H   H2223     1.0  0.23455  0.84836  0.16076  1.0000
  H   H2224     1.0  0.33876  0.55814  0.48332  1.0000
  C   C1273     1.0  0.31686  0.55666  0.17579  1.0000
  H   H2225     1.0  0.25010  0.58509  0.31506  1.0000
  H   H2226     1.0  0.26849  0.61411  0.26951  1.0000
  H   H2227     1.0  0.29164  0.57252  0.31439  1.0000
  Fe  Fe142     1.0  0.20234  0.94766  0.42231  1.0000
  H   H2228     1.0  0.27376  0.61896  0.28748  1.0000
  H   H2229     1.0  0.38015  0.81670  0.20018  1.0000
  C   C1274     1.0  0.22227  0.77057  0.06161  1.0000
  N   N68       1.0  0.35048  0.92980  0.09319  1.0000
  H   H2230     1.0  0.34866  0.95956  0.06153  1.0000
  S   S283      1.0  0.20223  0.54394  0.19955  1.0000
  H   H2231     1.0  0.20196  0.67351  0.03092  1.0000
  H   H2232     1.0  0.26992  0.65438  0.35390  1.0000
  H   H2233     1.0  0.22387  0.64578  0.21902  1.0000
  C   C1275     1.0  0.30192  0.70808  0.27772  1.0000
  H   H2234     1.0  0.38257  0.57901  0.43947  1.0000
  C   C1276     1.0  0.26171  0.83479  0.19068  1.0000
  C   C1277     1.0  0.25333  0.74492  0.30495  1.0000
  H   H2235     1.0  0.37859  0.56146  0.39791  1.0000
  H   H2236     1.0  0.19888  0.52855  0.03722  1.0000
  H   H2237     1.0  0.29162  0.70581  0.33260  1.0000
  C   C1278     1.0  0.24281  0.62534  0.32005  1.0000
  N   N69       1.0  0.25502  0.84682  0.17459  1.0000
  C   C1279     1.0  0.28364  0.82516  0.21102  1.0000
  H   H2238     1.0  0.26597  0.82074  0.18894  1.0000
  N   N70       1.0  0.20070  0.83788  0.44081  1.0000
  H   H2239     1.0  0.24001  0.90217  0.17563  1.0000
  H   H2240     1.0  0.23686  0.75436  0.33746  1.0000
  H   H2241     1.0  0.27320  0.69019  0.32789  1.0000
  C   C1280     1.0  0.21169  0.90959  0.33970  1.0000
  H   H2242     1.0  0.31703  0.53611  0.14217  1.0000
  H   H2243     1.0  0.27648  0.62949  0.18208  1.0000
  H   H2244     1.0  0.19905  0.95408  0.32185  1.0000
  H   H2245     1.0  0.26832  0.79751  0.04859  1.0000
  H   H2246     1.0  0.25477  0.86791  0.14095  1.0000
  C   C1281     1.0  0.26065  0.87845  0.17123  1.0000
  H   H2247     1.0  0.27246  0.85217  0.20016  1.0000
  S   S284      1.0  0.38677  0.87912  0.15697  1.0000
  H   H2248     1.0  0.21007  0.61754  0.25566  1.0000
  C   C1282     1.0  0.29818  0.67033  0.33216  1.0000
  H   H2249     1.0  0.22800  0.95272  0.32046  1.0000
  C   C1283     1.0  0.38204  0.76542  0.11772  1.0000
  C   C1284     1.0  0.30870  0.55055  0.16347  1.0000
  H   H2250     1.0  0.29291  0.59897  0.46829  1.0000
  H   H2251     1.0  0.35045  0.57052  0.45136  1.0000
  C   C1285     1.0  0.27717  0.83939  0.19562  1.0000
  C   C1286     1.0  0.28002  0.73738  0.01295  1.0000
  H   H2252     1.0  0.36613  0.60437  0.35027  1.0000
  C   C1287     1.0  0.32919  0.67251  0.32862  1.0000
  H   H2253     1.0  0.27265  0.82436  0.22305  1.0000
  C   C1288     1.0  0.38351  0.58112  0.36352  1.0000
  H   H2254     1.0  0.38018  0.61603  0.36729  1.0000
  H   H2255     1.0  0.27365  0.87210  0.17493  1.0000
  H   H2256     1.0  0.34253  0.65201  0.47285  1.0000
  H   H2257     1.0  0.39154  0.65606  0.24171  1.0000
  H   H2258     1.0  0.30168  0.66058  0.34421  1.0000
  H   H2259     1.0  0.33965  0.68026  0.32139  1.0000
  H   H2260     1.0  0.32897  0.67038  0.34306  1.0000
  H   H2261     1.0  0.21275  0.58052  0.11031  1.0000
  C   C1289     1.0  0.21906  0.58086  0.09607  1.0000
  H   H2262     1.0  0.37592  0.53940  0.34643  1.0000
  H   H2263     1.0  0.24584  0.95032  0.43954  1.0000
  H   H2264     1.0  0.27485  0.81661  0.02161  1.0000
  H   H2265     1.0  0.28854  0.81195  0.20733  1.0000
  H   H2266     1.0  0.37005  0.95639  0.20510  1.0000
  N   N71       1.0  0.37853  0.56554  0.36016  1.0000
  H   H2267     1.0  0.26336  0.88298  0.15654  1.0000
  C   C1290     1.0  0.38504  0.66664  0.23184  1.0000
  C   C1291     1.0  0.39340  0.99141  0.14402  1.0000
  N   N72       1.0  0.31115  0.68270  0.32470  1.0000
  H   H2268     1.0  0.22551  0.61139  0.31507  1.0000
  H   H2269     1.0  0.26608  0.59746  0.31347  1.0000
  C   C1292     1.0  0.38563  0.96566  0.13820  1.0000
  H   H2270     1.0  0.24144  0.64319  0.27241  1.0000
  C   C1293     1.0  0.26698  0.64827  0.25823  1.0000
  C   C1294     1.0  0.35276  0.57757  0.34261  1.0000
  C   C1295     1.0  0.26567  0.81390  0.01490  1.0000
  H   H2271     1.0  0.26333  0.73532  0.29754  1.0000
  C   C1296     1.0  0.21673  0.73234  0.12153  1.0000
  C   C1297     1.0  0.38759  0.81926  0.09256  1.0000
  C   C1298     1.0  0.37811  0.65707  0.45959  1.0000
  C   C1299     1.0  0.34059  0.56196  0.45481  1.0000
  H   H2272     1.0  0.29115  0.71237  0.30419  1.0000
  H   H2273     1.0  0.28113  0.85099  0.15888  1.0000
  H   H2274     1.0  0.25545  0.62989  0.31352  1.0000
  H   H2275     1.0  0.20617  0.95762  0.27181  1.0000
  H   H2276     1.0  0.35631  0.80804  0.22392  1.0000
  C   C1300     1.0  0.28042  0.85821  0.12526  1.0000
  H   H2277     1.0  0.20516  0.51915  0.01762  1.0000
  H   H2278     1.0  0.31970  0.73628  0.33275  1.0000
  C   C1301     1.0  0.36086  0.66964  0.46643  1.0000
  H   H2279     1.0  0.27322  0.59793  0.19383  1.0000
  C   C1302     1.0  0.20290  0.51596  0.03239  1.0000
  H   H2280     1.0  0.22461  0.82863  0.24365  1.0000
  C   C1303     1.0  0.24249  0.76875  0.05637  1.0000
  C   C1304     1.0  0.24264  0.73483  0.32169  1.0000
  H   H2281     1.0  0.38166  0.95070  0.11270  1.0000
  H   H2282     1.0  0.34909  0.81697  0.20343  1.0000
  C   C1305     1.0  0.21942  0.82690  0.44085  1.0000
  C   C1306     1.0  0.32222  0.68452  0.47792  1.0000
  H   H2283     1.0  0.31373  0.73033  0.39107  1.0000
  H   H2284     1.0  0.29693  0.73359  0.33741  1.0000
  H   H2285     1.0  0.20015  0.97644  0.31925  1.0000
  C   C1307     1.0  0.29533  0.62449  0.49099  1.0000
  H   H2286     1.0  0.23349  0.71445  0.35463  1.0000
  H   H2287     1.0  0.36673  0.66827  0.21521  1.0000
  H   H2288     1.0  0.25605  0.96042  0.46398  1.0000
  H   H2289     1.0  0.32413  0.59341  0.18730  1.0000
  N   N73       1.0  0.26766  0.78080  0.03154  1.0000
  H   H2290     1.0  0.21530  0.90773  0.32578  1.0000
  H   H2291     1.0  0.23416  0.69366  0.38403  1.0000
  C   C1308     1.0  0.28341  0.61916  0.17419  1.0000
  H   H2292     1.0  0.29631  0.62252  0.16630  1.0000
  Fe  Fe143     1.0  0.34482  0.77936  0.10432  1.0000
  H   H2293     1.0  0.27606  0.86448  0.11250  1.0000
  H   H2294     1.0  0.21690  0.69841  0.40309  1.0000
  C   C1309     1.0  0.36976  0.87229  0.06440  1.0000
  S   S285      1.0  0.23619  0.86167  0.23080  1.0000
  H   H2295     1.0  0.27442  0.77453  0.05733  1.0000
  S   S286      1.0  0.34417  0.80744  0.10486  1.0000
  C   C1310     1.0  0.21479  0.83823  0.23687  1.0000
  S   S287      1.0  0.22369  0.93995  0.23451  1.0000
  H   H2296     1.0  0.39019  0.53207  0.47373  1.0000
  H   H2297     1.0  0.28987  0.71643  0.27282  1.0000
  C   C1311     1.0  0.37385  0.94597  0.19714  1.0000
  H   H2298     1.0  0.33124  0.70627  0.32744  1.0000
  H   H2299     1.0  0.24223  0.66741  0.18798  1.0000
  H   H2300     1.0  0.30389  0.77074  0.03996  1.0000
  C   C1312     1.0  0.22555  0.72592  0.36076  1.0000
  C   C1313     1.0  0.29773  0.58626  0.17661  1.0000
  H   H2301     1.0  0.21972  0.75443  0.37489  1.0000
  H   H2302     1.0  0.32484  0.69528  0.29901  1.0000
  H   H2303     1.0  0.35893  0.55650  0.39530  1.0000
  C   C1314     1.0  0.20431  0.86804  0.22079  1.0000
  C   C1315     1.0  0.31092  0.72653  0.33794  1.0000
  H   H2304     1.0  0.30934  0.59127  0.16726  1.0000
  H   H2305     1.0  0.27606  0.68389  0.35035  1.0000
  H   H2306     1.0  0.27843  0.56887  0.20652  1.0000
  N   N74       1.0  0.20496  0.96841  0.29435  1.0000
  H   H2307     1.0  0.39213  0.55612  0.42122  1.0000
  H   H2308     1.0  0.37483  0.94323  0.17096  1.0000
  C   C1316     1.0  0.27579  0.78469  0.04468  1.0000
  C   C1317     1.0  0.23240  0.94831  0.30763  1.0000
  C   C1318     1.0  0.38100  0.80650  0.06243  1.0000
  H   H2309     1.0  0.28937  0.58528  0.16793  1.0000
  H   H2310     1.0  0.20813  0.86225  0.42428  1.0000
  C   C1319     1.0  0.35084  0.80485  0.21413  1.0000
  H   H2311     1.0  0.29098  0.76196  0.02161  1.0000
  C   C1320     1.0  0.27676  0.76234  0.02848  1.0000
  C   C1321     1.0  0.37569  0.83531  0.11825  1.0000
  H   H2312     1.0  0.22210  0.60826  0.09138  1.0000
  N   N75       1.0  0.30386  0.56819  0.18790  1.0000
  S   S288      1.0  0.39114  0.84834  0.20356  1.0000
  H   H2313     1.0  0.31195  0.71640  0.27462  1.0000
  H   H2314     1.0  0.35211  0.98366  0.08409  1.0000
  S   S289      1.0  0.20507  0.97559  0.41988  1.0000
  H   H2315     1.0  0.21967  0.85504  0.45386  1.0000
  H   H2316     1.0  0.39097  0.68547  0.20745  1.0000
  H   H2317     1.0  0.27931  0.97344  0.44361  1.0000
  H   H2318     1.0  0.22033  0.77236  0.35551  1.0000
  H   H2319     1.0  0.20191  0.69961  0.17832  1.0000
  C   C1322     1.0  0.32869  0.57945  0.19414  1.0000
  S   S290      1.0  0.21664  0.91302  0.21333  1.0000
  C   C1323     1.0  0.20195  0.80521  0.32566  1.0000
  H   H2320     1.0  0.23099  0.55756  0.07111  1.0000
  H   H2321     1.0  0.37431  0.79478  0.14408  1.0000
  S   S291      1.0  0.38423  0.88353  0.06814  1.0000
  H   H2322     1.0  0.36423  0.84309  0.18142  1.0000
  H   H2323     1.0  0.36445  0.67891  0.47234  1.0000
  C   C1324     1.0  0.39308  0.59751  0.29621  1.0000
  C   C1325     1.0  0.22945  0.64036  0.32804  1.0000
  H   H2324     1.0  0.22296  0.71576  0.14597  1.0000
  H   H2325     1.0  0.38627  0.54742  0.32435  1.0000
  S   S292      1.0  0.20606  0.59379  0.18524  1.0000
  H   H2326     1.0  0.26698  0.96482  0.41415  1.0000
  H   H2327     1.0  0.26039  0.75327  0.30847  1.0000
  H   H2328     1.0  0.36564  0.79635  0.05036  1.0000
  C   C1326     1.0  0.35867  0.86019  0.04568  1.0000
  H   H2329     1.0  0.32353  0.81332  0.22793  1.0000
  C   C1327     1.0  0.31310  0.56949  0.20152  1.0000
  H   H2330     1.0  0.27137  0.53146  0.20370  1.0000
  H   H2331     1.0  0.22192  0.75900  0.32341  1.0000
  H   H2332     1.0  0.29971  0.54143  0.17137  1.0000
  H   H2333     1.0  0.37496  0.82546  0.08796  1.0000
  H   H2334     1.0  0.37862  0.69965  0.39040  1.0000
  H   H2335     1.0  0.32673  0.57039  0.35198  1.0000
  H   H2336     1.0  0.34220  0.56635  0.21619  1.0000
  H   H2337     1.0  0.37800  0.82391  0.12952  1.0000
  H   H2338     1.0  0.38740  0.66488  0.44963  1.0000
  H   H2339     1.0  0.20984  0.92385  0.33981  1.0000
  H   H2340     1.0  0.27411  0.64781  0.48770  1.0000
  C   C1328     1.0  0.33688  0.58004  0.20913  1.0000
  C   C1329     1.0  0.39335  0.58039  0.29468  1.0000
  C   C1330     1.0  0.29177  0.54132  0.20939  1.0000
  H   H2341     1.0  0.37739  0.87774  0.03581  1.0000
  H   H2342     1.0  0.32731  0.56383  0.16699  1.0000
  H   H2343     1.0  0.37558  0.67688  0.23878  1.0000
  H   H2344     1.0  0.26420  0.54095  0.22330  1.0000
  H   H2345     1.0  0.38789  0.93883  0.19726  1.0000
  H   H2346     1.0  0.38760  0.59756  0.33615  1.0000
  H   H2347     1.0  0.38245  0.97667  0.17767  1.0000
  H   H2348     1.0  0.32608  0.79845  0.21363  1.0000
  C   C1331     1.0  0.26756  0.82591  0.99629  1.0000
  S   S293      1.0  0.37055  0.75898  0.10553  1.0000
  C   C1332     1.0  0.27552  0.53283  0.21537  1.0000
  N   N76       1.0  0.33167  0.67008  0.49096  1.0000
  C   C1333     1.0  0.26833  0.75492  0.01740  1.0000
  H   H2349     1.0  0.38918  0.78649  0.04619  1.0000
  H   H2350     1.0  0.24660  0.77126  0.06747  1.0000
  C   C1334     1.0  0.23454  0.93908  0.46651  1.0000
  H   H2351     1.0  0.38692  0.92634  0.09847  1.0000
  H   H2352     1.0  0.34800  0.58719  0.20356  1.0000
  H   H2353     1.0  0.33230  0.54924  0.14186  1.0000
  H   H2354     1.0  0.31880  0.55594  0.20864  1.0000
  C   C1335     1.0  0.38378  0.96768  0.16868  1.0000
  C   C1336     1.0  0.39096  0.95993  0.10741  1.0000
  H   H2355     1.0  0.37546  0.84769  0.12218  1.0000
  C   C1337     1.0  0.38237  0.97962  0.01596  1.0000
  H   H2356     1.0  0.24434  0.75361  0.29606  1.0000
  H   H2357     1.0  0.32677  0.58725  0.21882  1.0000
  H   H2358     1.0  0.35820  0.78043  0.13168  1.0000
  H   H2359     1.0  0.22807  0.56775  0.09503  1.0000
  H   H2360     1.0  0.29553  0.54203  0.22156  1.0000
  C   C1338     1.0  0.34731  0.65921  0.48019  1.0000
  H   H2361     1.0  0.27129  0.98574  0.46625  1.0000
  H   H2362     1.0  0.38495  0.80722  0.10293  1.0000
  H   H2363     1.0  0.32052  0.58315  0.46375  1.0000
  H   H2364     1.0  0.27741  0.75261  0.04133  1.0000
  H   H2365     1.0  0.27884  0.51936  0.22386  1.0000
  H   H2366     1.0  0.39158  0.70796  0.22087  1.0000
  C   C1339     1.0  0.39299  0.89830  0.10898  1.0000
  C   C1340     1.0  0.33223  0.80135  0.22318  1.0000
  H   H2367     1.0  0.24154  0.79570  0.04182  1.0000
  C   C1341     1.0  0.20952  0.64953  0.21849  1.0000
  Fe  Fe144     1.0  0.20317  0.92412  0.23779  1.0000
  C   C1342     1.0  0.20922  0.83326  0.18298  1.0000
  C   C1343     1.0  0.20000  0.71662  0.23121  1.0000
  H   H2368     1.0  0.19917  0.73002  0.22220  1.0000
  H   H2369     1.0  0.38618  0.62540  0.34384  1.0000
  H   H2370     1.0  0.22728  0.59761  0.25674  1.0000
  C   C1344     1.0  0.20637  0.86304  0.45181  1.0000
  N   N77       1.0  0.25144  0.98338  0.44253  1.0000
  H   H2371     1.0  0.37597  0.95674  0.14251  1.0000
  C   C1345     1.0  0.39305  0.69778  0.38411  1.0000
  C   C1346     1.0  0.27077  0.97787  0.43366  1.0000
  H   H2372     1.0  0.21395  0.82107  0.17738  1.0000
  C   C1347     1.0  0.20038  0.98759  0.28456  1.0000
  C   C1348     1.0  0.20244  0.56018  0.07364  1.0000
  C   C1349     1.0  0.37401  0.65816  0.22488  1.0000
  H   H2373     1.0  0.36511  0.93625  0.20352  1.0000
  H   H2374     1.0  0.37511  0.78018  0.06781  1.0000
  C   C1350     1.0  0.25281  0.94400  0.30351  1.0000
  H   H2375     1.0  0.22768  0.54492  0.04737  1.0000
  H   H2376     1.0  0.20365  0.78414  0.38148  1.0000
  H   H2377     1.0  0.25791  0.95576  0.30313  1.0000
  H   H2378     1.0  0.21877  0.62606  0.27879  1.0000
  H   H2379     1.0  0.22343  0.73925  0.10839  1.0000
  H   H2380     1.0  0.21667  0.63620  0.33500  1.0000
  C   C1351     1.0  0.39008  0.56118  0.34289  1.0000
  H   H2381     1.0  0.39096  0.69416  0.24242  1.0000
  H   H2382     1.0  0.39201  0.73606  0.17860  1.0000
  Fe  Fe145     1.0  0.21118  0.56714  0.20365  1.0000
  H   H2383     1.0  0.38559  0.81327  0.16186  1.0000
  H   H2384     1.0  0.39029  0.84598  0.09260  1.0000
  H   H2385     1.0  0.39538  0.64875  0.37505  1.0000
  C   C1352     1.0  0.38856  0.78930  0.22903  1.0000
  C   C1353     1.0  0.19937  0.89842  0.39911  1.0000
  C   C1354     1.0  0.38582  0.97428  0.11829  1.0000
  H   H2386     1.0  0.20720  0.74452  0.31310  1.0000
  H   H2387     1.0  0.38089  0.75688  0.16708  1.0000
  H   H2388     1.0  0.39098  0.73467  0.23166  1.0000
  H   H2389     1.0  0.27560  0.98952  0.42424  1.0000
  C   C1355     1.0  0.39462  0.57882  0.42921  1.0000
  H   H2390     1.0  0.38878  0.72121  0.25409  1.0000
  H   H2391     1.0  0.20793  0.64470  0.20734  1.0000
  H   H2392     1.0  0.20516  0.84211  0.29780  1.0000
  H   H2393     1.0  0.39506  0.78863  0.08248  1.0000
  H   H2394     1.0  0.39347  0.76685  0.21768  1.0000
  C   C1356     1.0  0.39205  0.75046  0.17407  1.0000
  C   C1357     1.0  0.38805  0.54417  0.33826  1.0000
  C   C1358     1.0  0.39750  0.80008  0.07114  1.0000
  H   H2395     1.0  0.29680  0.97237  0.40280  1.0000
  H   H2396     1.0  0.20103  0.65412  0.01490  1.0000
  Fe  Fe146     1.0  0.39446  0.72170  0.31872  1.0000
  C   C1359     1.0  0.39834  0.52879  0.46096  1.0000
  C   C1360     1.0  0.19962  0.83324  0.23583  1.0000
  H   H2397     1.0  0.38981  0.72619  0.37279  1.0000
  H   H2398     1.0  0.39249  0.68015  0.36795  1.0000
  Fe  Fe147     1.0  0.20336  0.59408  0.01635  1.0000
  H   H2399     1.0  0.39760  0.95963  0.16791  1.0000
  H   H2400     1.0  0.38731  0.57230  0.33156  1.0000
  H   H2401     1.0  0.39788  0.85106  0.13564  1.0000
  H   H2402     1.0  0.33309  0.54054  0.47708  1.0000
  H   H2403     1.0  0.39875  0.95659  0.13907  1.0000
  C   C1361     1.0  0.39840  0.72573  0.24180  1.0000
  H   H2404     1.0  0.39827  0.78696  0.25267  1.0000
  Fe  Fe148     1.0  0.35128  0.59158  0.49294  1.0000
  H   H2405     1.0  0.31311  0.65394  0.49289  1.0000
  H   H2406     1.0  0.30891  0.70548  0.49289  1.0000
  C   C1362     1.0  0.37356  0.50886  0.50744  1.0000
  C   C1363     1.0  0.39257  0.65446  0.51619  1.0000
  H   H2407     1.0  0.36738  0.53608  0.51069  1.0000
  H   H2408     1.0  0.33509  0.63064  0.50509  1.0000
  C   C1364     1.0  0.20837  0.57793  0.93188  1.0000
  C   C1365     1.0  0.33408  0.69158  0.52882  1.0000
  H   H2409     1.0  0.35876  0.54605  0.58754  1.0000
  H   H2410     1.0  0.30768  0.66495  0.51054  1.0000
  C   C1366     1.0  0.37761  0.52406  0.50980  1.0000
  S   S294      1.0  0.36208  0.58515  0.51762  1.0000
  H   H2411     1.0  0.32526  0.69343  0.54186  1.0000
  H   H2412     1.0  0.20453  0.55291  0.88281  1.0000
  H   H2413     1.0  0.22066  0.53673  0.90898  1.0000
  H   H2414     1.0  0.38137  0.54788  0.58592  1.0000
  C   C1367     1.0  0.20755  0.65132  0.98130  1.0000
  H   H2415     1.0  0.22078  0.57618  0.92146  1.0000
  H   H2416     1.0  0.21126  0.52547  0.89801  1.0000
  H   H2417     1.0  0.19985  0.59128  0.92804  1.0000
  C   C1368     1.0  0.22343  0.50866  0.91923  1.0000
  H   H2418     1.0  0.20992  0.65470  0.96655  1.0000
  C   C1369     1.0  0.37438  0.49636  0.56485  1.0000
  C   C1370     1.0  0.38763  0.99024  0.98403  1.0000
  H   H2419     1.0  0.36942  0.56084  0.56882  1.0000
  H   H2420     1.0  0.21631  0.49786  0.92120  1.0000
  H   H2421     1.0  0.28144  0.82271  0.98851  1.0000
  H   H2422     1.0  0.20745  0.55032  0.93861  1.0000
  H   H2423     1.0  0.29527  0.68981  0.49511  1.0000
  C   C1371     1.0  0.20083  0.52009  0.97149  1.0000
  H   H2424     1.0  0.30400  0.62920  0.52189  1.0000
  S   S295      1.0  0.32206  0.59478  0.49475  1.0000
  H   H2425     1.0  0.34753  0.68409  0.53107  1.0000
  H   H2426     1.0  0.36909  0.53373  0.56007  1.0000
  H   H2427     1.0  0.22565  0.50906  0.93225  1.0000
  C   C1372     1.0  0.37895  0.53288  0.56791  1.0000
  H   H2428     1.0  0.21212  0.57728  0.94449  1.0000
  Fe  Fe149     1.0  0.38535  0.56828  0.50251  1.0000
  H   H2429     1.0  0.33511  0.70491  0.52018  1.0000
  H   H2430     1.0  0.21505  0.51606  0.96657  1.0000
  H   H2431     1.0  0.33735  0.64273  0.51997  1.0000
  C   C1373     1.0  0.39311  0.64034  0.50872  1.0000
  H   H2432     1.0  0.38168  0.65791  0.52701  1.0000
  H   H2433     1.0  0.34260  0.69059  0.49452  1.0000
  H   H2434     1.0  0.35129  0.66893  0.50582  1.0000
  C   C1374     1.0  0.37167  0.54776  0.57827  1.0000
  H   H2435     1.0  0.39139  0.53574  0.55845  1.0000
  H   H2436     1.0  0.28773  0.61765  0.50304  1.0000
  H   H2437     1.0  0.32491  0.66847  0.52982  1.0000
  H   H2438     1.0  0.20260  0.67816  0.98449  1.0000
  H   H2439     1.0  0.20462  0.56386  0.90666  1.0000
  C   C1375     1.0  0.31375  0.63191  0.52791  1.0000
  C   C1376     1.0  0.21273  0.52663  0.91104  1.0000
  H   H2440     1.0  0.31277  0.68884  0.51880  1.0000
  Fe  Fe150     1.0  0.37638  0.60738  0.50359  1.0000
  S   S296      1.0  0.20917  0.59664  0.98667  1.0000
  S   S297      1.0  0.20893  0.54818  0.97928  1.0000
  H   H2441     1.0  0.25817  0.82428  0.98910  1.0000
  H   H2442     1.0  0.23663  0.50552  0.91021  1.0000
  C   C1377     1.0  0.39487  0.52349  0.51127  1.0000
  C   C1378     1.0  0.31918  0.65794  0.50181  1.0000
  S   S298      1.0  0.37566  0.62881  0.51721  1.0000
  C   C1379     1.0  0.32632  0.68127  0.52028  1.0000
  H   H2443     1.0  0.39258  0.98762  0.97078  1.0000
  H   H2444     1.0  0.32040  0.61904  0.53538  1.0000
  H   H2445     1.0  0.36955  0.51314  0.59032  1.0000
  C   C1380     1.0  0.32777  0.64045  0.51349  1.0000
  H   H2446     1.0  0.37096  0.50802  0.55405  1.0000
  C   C1381     1.0  0.38239  0.51431  0.58066  1.0000
  H   H2447     1.0  0.36015  0.50913  0.50665  1.0000
  H   H2448     1.0  0.20134  0.63951  0.98620  1.0000
  N   N78       1.0  0.38925  0.49848  0.57191  1.0000
  H   H2449     1.0  0.22060  0.64793  0.98520  1.0000
  H   H2450     1.0  0.30659  0.64073  0.53740  1.0000
  H   H2451     1.0  0.36195  0.49631  0.57539  1.0000
  H   H2452     1.0  0.21216  0.49595  0.72682  1.0000
  C   C1382     1.0  0.33871  0.67785  0.50229  1.0000
  H   H2453     1.0  0.39158  0.51454  0.58884  1.0000
  H   H2454     1.0  0.41181  0.01041  0.01772  1.0000
  H   H2455     1.0  0.57216  0.37167  0.43302  1.0000
  N   N79       1.0  0.55125  0.04939  0.07741  1.0000
  H   H2456     1.0  0.47914  0.17460  0.01629  1.0000
  Fe  Fe151     1.0  0.54512  0.16426  0.03273  1.0000
  S   S299      1.0  0.56418  0.18111  0.03172  1.0000
  S   S300      1.0  0.52526  0.17356  0.01442  1.0000
  Fe  Fe152     1.0  0.56069  0.13437  0.06096  1.0000
  S   S301      1.0  0.58148  0.14835  0.06130  1.0000
  S   S302      1.0  0.55762  0.10780  0.07916  1.0000
  Fe  Fe153     1.0  0.55947  0.17257  0.06166  1.0000
  S   S303      1.0  0.55523  0.18779  0.08344  1.0000
  Fe  Fe154     1.0  0.58451  0.15539  0.03166  1.0000
  H   H2457     1.0  0.54642  0.40373  0.45399  1.0000
  S   S304      1.0  0.53819  0.15825  0.06274  1.0000
  S   S305      1.0  0.56581  0.13909  0.03126  1.0000
  H   H2458     1.0  0.54654  0.42717  0.44797  1.0000
  C   C1383     1.0  0.53689  0.47397  0.32363  1.0000
  H   H2459     1.0  0.48862  0.49037  0.31185  1.0000
  H   H2460     1.0  0.58918  0.12677  0.00030  1.0000
  C   C1384     1.0  0.54580  0.00196  0.12626  1.0000
  N   N80       1.0  0.46616  0.14679  0.01026  1.0000
  C   C1385     1.0  0.42436  0.00151  0.02138  1.0000
  C   C1386     1.0  0.53497  0.05192  0.09241  1.0000
  H   H2461     1.0  0.47815  0.46731  0.48169  1.0000
  H   H2462     1.0  0.49489  0.13802  0.00628  1.0000
  H   H2463     1.0  0.47004  0.41810  0.45055  1.0000
  S   S306      1.0  0.56225  0.36637  0.37273  1.0000
  H   H2464     1.0  0.44969  0.13787  0.99825  1.0000
  H   H2465     1.0  0.45957  0.44924  0.43523  1.0000
  Fe  Fe155     1.0  0.56401  0.36909  0.39952  1.0000
  S   S307      1.0  0.54399  0.36083  0.42438  1.0000
  Fe  Fe156     1.0  0.56956  0.39317  0.36306  1.0000
  S   S308      1.0  0.56033  0.41612  0.34185  1.0000
  H   H2466     1.0  0.53875  0.02871  0.06006  1.0000
  C   C1387     1.0  0.51785  0.40525  0.44008  1.0000
  H   H2467     1.0  0.51397  0.41167  0.36544  1.0000
  C   C1388     1.0  0.52091  0.24793  0.48381  1.0000
  C   C1389     1.0  0.54973  0.35907  0.44467  1.0000
  H   H2468     1.0  0.55314  0.29962  0.22236  1.0000
  H   H2469     1.0  0.53906  0.40353  0.49046  1.0000
  C   C1390     1.0  0.57509  0.25627  0.20343  1.0000
  H   H2470     1.0  0.52783  0.46570  0.37009  1.0000
  C   C1391     1.0  0.54151  0.47687  0.29163  1.0000
  H   H2471     1.0  0.56905  0.28757  0.25180  1.0000
  H   H2472     1.0  0.42190  0.00612  0.14302  1.0000
  S   S309      1.0  0.59306  0.35635  0.39656  1.0000
  H   H2473     1.0  0.51113  0.46595  0.29925  1.0000
  H   H2474     1.0  0.50685  0.38110  0.42507  1.0000
  C   C1392     1.0  0.56421  0.49133  0.26695  1.0000
  C   C1393     1.0  0.58056  0.43914  0.31855  1.0000
  H   H2475     1.0  0.48459  0.39175  0.45993  1.0000
  H   H2476     1.0  0.53689  0.99717  0.07243  1.0000
  H   H2477     1.0  0.57254  0.44033  0.30918  1.0000
  S   S310      1.0  0.45958  0.41349  0.49178  1.0000
  H   H2478     1.0  0.51353  0.23742  0.48546  1.0000
  H   H2479     1.0  0.59288  0.18808  0.06829  1.0000
  C   C1394     1.0  0.44077  0.01722  0.99396  1.0000
  H   H2480     1.0  0.59197  0.07953  0.15428  1.0000
  H   H2481     1.0  0.59699  0.14708  0.09155  1.0000
  H   H2482     1.0  0.51058  0.43334  0.30423  1.0000
  C   C1395     1.0  0.56672  0.01530  0.13333  1.0000
  H   H2483     1.0  0.51433  0.11097  0.99433  1.0000
  H   H2484     1.0  0.52779  0.08783  0.03754  1.0000
  C   C1396     1.0  0.57610  0.09852  0.08909  1.0000
  C   C1397     1.0  0.57488  0.08580  0.10511  1.0000
  C   C1398     1.0  0.58951  0.07923  0.11341  1.0000
  H   H2485     1.0  0.58602  0.24532  0.20784  1.0000
  S   S311      1.0  0.56822  0.39707  0.39020  1.0000
  H   H2486     1.0  0.59202  0.32742  0.20777  1.0000
  H   H2487     1.0  0.56254  0.08137  0.11131  1.0000
  C   C1399     1.0  0.59416  0.43883  0.41003  1.0000
  C   C1400     1.0  0.49274  0.38230  0.45156  1.0000
  H   H2488     1.0  0.58137  0.30447  0.24566  1.0000
  H   H2489     1.0  0.53405  0.05828  0.05846  1.0000
  H   H2490     1.0  0.53078  0.27325  0.49240  1.0000
  H   H2491     1.0  0.45566  0.02172  0.01146  1.0000
  C   C1401     1.0  0.59076  0.46914  0.36510  1.0000
  H   H2492     1.0  0.53434  0.03927  0.10253  1.0000
  C   C1402     1.0  0.46790  0.16174  0.99408  1.0000
  C   C1403     1.0  0.59124  0.10695  0.15439  1.0000
  C   C1404     1.0  0.58142  0.19855  0.11537  1.0000
  C   C1405     1.0  0.56827  0.19530  0.10857  1.0000
  C   C1406     1.0  0.57234  0.19133  0.09161  1.0000
  C   C1407     1.0  0.58971  0.19080  0.08144  1.0000
  H   H2493     1.0  0.51185  0.26114  0.48067  1.0000
  H   H2494     1.0  0.57801  0.20192  0.12827  1.0000
  H   H2495     1.0  0.55481  0.19603  0.11643  1.0000
  H   H2496     1.0  0.59209  0.28812  0.48823  1.0000
  C   C1408     1.0  0.43108  0.11659  0.02488  1.0000
  H   H2497     1.0  0.54660  0.47340  0.35443  1.0000
  H   H2498     1.0  0.56919  0.27016  0.23191  1.0000
  H   H2499     1.0  0.58611  0.11279  0.20275  1.0000
  H   H2500     1.0  0.58762  0.32941  0.45684  1.0000
  C   C1409     1.0  0.56695  0.05385  0.08115  1.0000
  H   H2501     1.0  0.51557  0.46407  0.34538  1.0000
  C   C1410     1.0  0.52756  0.44383  0.31435  1.0000
  H   H2502     1.0  0.53491  0.34461  0.48914  1.0000
  H   H2503     1.0  0.54782  0.34193  0.20617  1.0000
  H   H2504     1.0  0.57483  0.08837  0.17167  1.0000
  C   C1411     1.0  0.50784  0.40983  0.39401  1.0000
  H   H2505     1.0  0.59502  0.08593  0.24692  1.0000
  H   H2506     1.0  0.46407  0.14157  0.03865  1.0000
  H   H2507     1.0  0.56705  0.28468  0.19867  1.0000
  H   H2508     1.0  0.57574  0.17640  0.15308  1.0000
  H   H2509     1.0  0.56949  0.02639  0.13666  1.0000
  H   H2510     1.0  0.49037  0.35773  0.44629  1.0000
  H   H2511     1.0  0.59772  0.45587  0.30023  1.0000
  N   N81       1.0  0.50573  0.40785  0.42755  1.0000
  C   C1412     1.0  0.51528  0.06849  0.11625  1.0000
  H   H2512     1.0  0.54739  0.46154  0.32353  1.0000
  H   H2513     1.0  0.54414  0.13873  0.00594  1.0000
  C   C1413     1.0  0.46393  0.15307  0.02707  1.0000
  Fe  Fe157     1.0  0.59179  0.35548  0.36905  1.0000
  H   H2514     1.0  0.50508  0.37563  0.45667  1.0000
  H   H2515     1.0  0.45061  0.16199  0.03018  1.0000
  H   H2516     1.0  0.52906  0.02467  0.08348  1.0000
  C   C1414     1.0  0.57998  0.99976  0.13221  1.0000
  C   C1415     1.0  0.54313  0.35041  0.47700  1.0000
  C   C1416     1.0  0.51706  0.46346  0.31106  1.0000
  C   C1417     1.0  0.53335  0.06591  0.10330  1.0000
  C   C1418     1.0  0.47843  0.16266  0.02726  1.0000
  C   C1419     1.0  0.52506  0.47284  0.34259  1.0000
  H   H2517     1.0  0.50559  0.46415  0.32256  1.0000
  H   H2518     1.0  0.53946  0.02824  0.13177  1.0000
  H   H2519     1.0  0.58071  0.44607  0.41423  1.0000
  H   H2520     1.0  0.51749  0.48636  0.34431  1.0000
  H   H2521     1.0  0.59723  0.43193  0.24723  1.0000
  H   H2522     1.0  0.45912  0.11145  0.02314  1.0000
  H   H2523     1.0  0.42174  0.00592  0.12041  1.0000
  H   H2524     1.0  0.53919  0.41914  0.42404  1.0000
  H   H2525     1.0  0.55136  0.46397  0.29273  1.0000
  H   H2526     1.0  0.52352  0.41702  0.31904  1.0000
  H   H2527     1.0  0.56749  0.32931  0.22813  1.0000
  N   N82       1.0  0.58088  0.13309  0.12899  1.0000
  H   H2528     1.0  0.59673  0.30021  0.19714  1.0000
  C   C1420     1.0  0.57854  0.11541  0.14128  1.0000
  C   C1421     1.0  0.56850  0.13751  0.11626  1.0000
  C   C1422     1.0  0.57586  0.14773  0.13927  1.0000
  H   H2529     1.0  0.58174  0.46551  0.37816  1.0000
  H   H2530     1.0  0.56388  0.06791  0.08243  1.0000
  C   C1423     1.0  0.54859  0.13730  0.12491  1.0000
  C   C1424     1.0  0.52533  0.16268  0.99772  1.0000
  H   H2531     1.0  0.47217  0.44592  0.48813  1.0000
  H   H2532     1.0  0.45168  0.18447  0.00622  1.0000
  N   N83       1.0  0.52744  0.47753  0.30864  1.0000
  C   C1425     1.0  0.53699  0.14463  0.11107  1.0000
  C   C1426     1.0  0.59089  0.15112  0.14612  1.0000
  H   H2533     1.0  0.53487  0.07907  0.09469  1.0000
  H   H2534     1.0  0.56487  0.11657  0.14980  1.0000
  C   C1427     1.0  0.59714  0.27881  0.26887  1.0000
  H   H2535     1.0  0.57312  0.12809  0.10705  1.0000
  H   H2536     1.0  0.56872  0.15104  0.10761  1.0000
  H   H2537     1.0  0.57047  0.16078  0.13101  1.0000
  H   H2538     1.0  0.56465  0.14529  0.15084  1.0000
  H   H2539     1.0  0.55039  0.25667  0.48897  1.0000
  H   H2540     1.0  0.58445  0.27608  0.27795  1.0000
  H   H2541     1.0  0.41884  0.12710  0.02735  1.0000
  H   H2542     1.0  0.59460  0.05458  0.26390  1.0000
  H   H2543     1.0  0.54345  0.14544  0.13521  1.0000
  H   H2544     1.0  0.54691  0.12344  0.13107  1.0000
  H   H2545     1.0  0.57006  0.30219  0.48906  1.0000
  C   C1428     1.0  0.59602  0.34340  0.32575  1.0000
  C   C1429     1.0  0.59802  0.06052  0.06916  1.0000
  H   H2546     1.0  0.49450  0.49285  0.33115  1.0000
  C   C1430     1.0  0.55632  0.02991  0.07659  1.0000
  H   H2547     1.0  0.48313  0.12212  0.02103  1.0000
  Fe  Fe158     1.0  0.59730  0.38429  0.38486  1.0000
  C   C1431     1.0  0.54520  0.08058  0.05645  1.0000
  H   H2548     1.0  0.55571  0.49391  0.25719  1.0000
  C   C1432     1.0  0.57685  0.13781  0.21066  1.0000
  H   H2549     1.0  0.57471  0.25568  0.18981  1.0000
  H   H2550     1.0  0.52295  0.14378  0.11749  1.0000
  H   H2551     1.0  0.53735  0.15881  0.10490  1.0000
  H   H2552     1.0  0.54169  0.13676  0.10053  1.0000
  H   H2553     1.0  0.52774  0.39241  0.43972  1.0000
  H   H2554     1.0  0.57423  0.11165  0.22550  1.0000
  C   C1433     1.0  0.53920  0.35158  0.46058  1.0000
  H   H2555     1.0  0.52797  0.34662  0.46024  1.0000
  C   C1434     1.0  0.51566  0.43094  0.31651  1.0000
  H   H2556     1.0  0.52628  0.42341  0.37249  1.0000
  H   H2557     1.0  0.52784  0.41953  0.46380  1.0000
  C   C1435     1.0  0.59487  0.44783  0.31346  1.0000
  C   C1436     1.0  0.47454  0.16884  0.04467  1.0000
  H   H2558     1.0  0.59791  0.15965  0.10668  1.0000
  H   H2559     1.0  0.52244  0.05502  0.08748  1.0000
  N   N84       1.0  0.58109  0.29326  0.22378  1.0000
  C   C1437     1.0  0.55763  0.35670  0.47764  1.0000
  H   H2560     1.0  0.48522  0.17547  0.04444  1.0000
  H   H2561     1.0  0.51326  0.05564  0.12549  1.0000
  H   H2562     1.0  0.55790  0.08373  0.05650  1.0000
  C   C1438     1.0  0.46803  0.44613  0.44513  1.0000
  C   C1439     1.0  0.53648  0.46539  0.35665  1.0000
  C   C1440     1.0  0.53792  0.41735  0.45149  1.0000
  H   H2563     1.0  0.59789  0.08216  0.17342  1.0000
  H   H2564     1.0  0.52273  0.42148  0.40478  1.0000
  C   C1441     1.0  0.47944  0.42722  0.44621  1.0000
  H   H2565     1.0  0.53700  0.34706  0.22765  1.0000
  H   H2566     1.0  0.57380  0.47833  0.26658  1.0000
  H   H2567     1.0  0.58814  0.11486  0.16471  1.0000
  H   H2568     1.0  0.54344  0.45135  0.35625  1.0000
  C   C1442     1.0  0.49153  0.42479  0.42789  1.0000
  H   H2569     1.0  0.53213  0.39937  0.37615  1.0000
  H   H2570     1.0  0.47660  0.45601  0.44145  1.0000
  C   C1443     1.0  0.59623  0.34181  0.30853  1.0000
  H   H2571     1.0  0.43754  0.15017  0.01454  1.0000
  H   H2572     1.0  0.48528  0.39529  0.42621  1.0000
  H   H2573     1.0  0.56218  0.25417  0.21246  1.0000
  C   C1444     1.0  0.59706  0.42376  0.40281  1.0000
  H   H2574     1.0  0.49760  0.43664  0.42188  1.0000
  H   H2575     1.0  0.43310  0.03469  0.01307  1.0000
  C   C1445     1.0  0.40099  0.13564  0.99687  1.0000
  H   H2576     1.0  0.49430  0.39051  0.48872  1.0000
  H   H2577     1.0  0.48716  0.42486  0.45655  1.0000
  C   C1446     1.0  0.54072  0.09000  0.03831  1.0000
  C   C1447     1.0  0.57714  0.42832  0.33557  1.0000
  H   H2578     1.0  0.43989  0.17603  0.99516  1.0000
  H   H2579     1.0  0.50422  0.43242  0.32799  1.0000
  C   C1448     1.0  0.54240  0.33611  0.22028  1.0000
  C   C1449     1.0  0.56801  0.36451  0.46173  1.0000
  H   H2580     1.0  0.49664  0.42159  0.39283  1.0000
  C   C1450     1.0  0.49751  0.39175  0.43172  1.0000
  H   H2581     1.0  0.45912  0.44725  0.45833  1.0000
  C   C1451     1.0  0.52862  0.41987  0.43634  1.0000
  C   C1452     1.0  0.44990  0.13995  0.01141  1.0000
  H   H2582     1.0  0.58807  0.35397  0.24659  1.0000
  H   H2583     1.0  0.53247  0.44047  0.32680  1.0000
  H   H2584     1.0  0.58588  0.41945  0.40144  1.0000
  H   H2585     1.0  0.44577  0.12461  0.03909  1.0000
  C   C1453     1.0  0.51718  0.40925  0.40894  1.0000
  H   H2586     1.0  0.50262  0.39762  0.39655  1.0000
  H   H2587     1.0  0.54475  0.20442  0.99990  1.0000
  H   H2588     1.0  0.58557  0.14422  0.19868  1.0000
  C   C1454     1.0  0.56413  0.36563  0.44524  1.0000
  C   C1455     1.0  0.50219  0.10698  0.99388  1.0000
  H   H2589     1.0  0.58698  0.35129  0.30099  1.0000
  H   H2590     1.0  0.53517  0.47776  0.28047  1.0000
  H   H2591     1.0  0.59072  0.27624  0.19302  1.0000
  C   C1456     1.0  0.58475  0.05089  0.06722  1.0000
  C   C1457     1.0  0.56448  0.30645  0.21910  1.0000
  H   H2592     1.0  0.53256  0.24659  0.47250  1.0000
  H   H2593     1.0  0.56663  0.31194  0.20447  1.0000
  H   H2594     1.0  0.51474  0.07812  0.12424  1.0000
  H   H2595     1.0  0.57905  0.36967  0.46220  1.0000
  H   H2596     1.0  0.51990  0.43338  0.43485  1.0000
  H   H2597     1.0  0.47951  0.36129  0.46835  1.0000
  C   C1458     1.0  0.45294  0.17886  0.99459  1.0000
  H   H2598     1.0  0.56178  0.21544  0.99965  1.0000
  C   C1459     1.0  0.44526  0.02926  0.00378  1.0000
  H   H2599     1.0  0.53128  0.32988  0.22094  1.0000
  H   H2600     1.0  0.59530  0.35362  0.22322  1.0000
  H   H2601     1.0  0.59285  0.07514  0.06605  1.0000
  H   H2602     1.0  0.51042  0.40380  0.45411  1.0000
  N   N85       1.0  0.43833  0.99893  0.00469  1.0000
  H   H2603     1.0  0.56194  0.48904  0.29475  1.0000
  H   H2604     1.0  0.50430  0.07384  0.10890  1.0000
  C   C1460     1.0  0.58796  0.42637  0.34741  1.0000
  H   H2605     1.0  0.53905  0.44125  0.30323  1.0000
  C   C1461     1.0  0.59212  0.10404  0.08110  1.0000
  C   C1462     1.0  0.48239  0.36795  0.45405  1.0000
  C   C1463     1.0  0.52087  0.41117  0.37596  1.0000
  C   C1464     1.0  0.57835  0.27436  0.20314  1.0000
  H   H2606     1.0  0.55109  0.31755  0.24284  1.0000
  H   H2607     1.0  0.57581  0.14382  0.22201  1.0000
  C   C1465     1.0  0.44751  0.12256  0.02549  1.0000
  H   H2608     1.0  0.46950  0.37396  0.44982  1.0000
  H   H2609     1.0  0.48223  0.42577  0.41935  1.0000
  H   H2610     1.0  0.46157  0.17855  0.04637  1.0000
  H   H2611     1.0  0.58533  0.41841  0.36065  1.0000
  C   C1466     1.0  0.59778  0.05079  0.25083  1.0000
  C   C1467     1.0  0.55277  0.49145  0.28567  1.0000
  H   H2612     1.0  0.54379  0.06128  0.11132  1.0000
  H   H2613     1.0  0.55141  0.08508  0.02746  1.0000
  H   H2614     1.0  0.56963  0.04576  0.09430  1.0000
  H   H2615     1.0  0.47430  0.15731  0.05618  1.0000
  H   H2616     1.0  0.59853  0.11646  0.23474  1.0000
  C   C1468     1.0  0.59764  0.29842  0.21119  1.0000
  H   H2617     1.0  0.52892  0.39782  0.40863  1.0000
  H   H2618     1.0  0.56810  0.02728  0.06568  1.0000
  C   C1469     1.0  0.55705  0.32238  0.22861  1.0000
  C   C1470     1.0  0.59749  0.27806  0.24987  1.0000
  H   H2619     1.0  0.53963  0.10456  0.03631  1.0000
  H   H2620     1.0  0.52776  0.38676  0.49040  1.0000
  H   H2621     1.0  0.45454  0.05379  0.99830  1.0000
  H   H2622     1.0  0.59102  0.03648  0.06905  1.0000
  C   C1471     1.0  0.58322  0.16336  0.15937  1.0000
  C   C1472     1.0  0.58440  0.11779  0.21488  1.0000
  H   H2623     1.0  0.42871  0.00833  0.02935  1.0000
  H   H2624     1.0  0.59275  0.26522  0.22405  1.0000
  C   C1473     1.0  0.42472  0.99756  0.13328  1.0000
  H   H2625     1.0  0.57989  0.10550  0.13324  1.0000
  C   C1474     1.0  0.58145  0.29152  0.24300  1.0000
  H   H2626     1.0  0.49884  0.09654  0.00587  1.0000
  C   C1475     1.0  0.59360  0.48800  0.36214  1.0000
  H   H2627     1.0  0.49179  0.15359  0.02601  1.0000
  C   C1476     1.0  0.54972  0.01634  0.13044  1.0000
  H   H2628     1.0  0.58660  0.35404  0.33146  1.0000
  H   H2629     1.0  0.53437  0.08633  0.06663  1.0000
  C   C1477     1.0  0.53577  0.14567  0.99650  1.0000
  C   C1478     1.0  0.54166  0.02236  0.07344  1.0000
  H   H2630     1.0  0.43261  0.11354  0.01171  1.0000
  H   H2631     1.0  0.42943  0.10432  0.03525  1.0000
  C   C1479     1.0  0.54689  0.06021  0.05984  1.0000
  C   C1480     1.0  0.58036  0.27521  0.22169  1.0000
  C   C1481     1.0  0.48294  0.13241  0.00845  1.0000
  H   H2632     1.0  0.54431  0.48449  0.32161  1.0000
  H   H2633     1.0  0.59357  0.11279  0.06822  1.0000
  H   H2634     1.0  0.58937  0.08310  0.22814  1.0000
  H   H2635     1.0  0.58272  0.05585  0.05341  1.0000
  H   H2636     1.0  0.57073  0.27151  0.48672  1.0000
  H   H2637     1.0  0.58522  0.05250  0.24644  1.0000
  C   C1482     1.0  0.58877  0.08813  0.16404  1.0000
  H   H2638     1.0  0.57410  0.15720  0.17118  1.0000
  C   C1483     1.0  0.59874  0.19821  0.10512  1.0000
  H   H2639     1.0  0.58501  0.46804  0.35434  1.0000
  H   H2640     1.0  0.56335  0.14046  0.20785  1.0000
  H   H2641     1.0  0.59421  0.16578  0.16387  1.0000
  H   H2642     1.0  0.56037  0.02163  0.08915  1.0000
  H   H2643     1.0  0.55693  0.05532  0.04854  1.0000
  C   C1484     1.0  0.54769  0.00227  0.07443  1.0000
  H   H2644     1.0  0.59873  0.29208  0.26934  1.0000
  H   H2645     1.0  0.58842  0.06972  0.12597  1.0000
  S   S312      1.0  0.52462  0.00420  0.12152  1.0000
  H   H2646     1.0  0.59719  0.26419  0.25009  1.0000
  H   H2647     1.0  0.55982  0.99926  0.06401  1.0000
  H   H2648     1.0  0.59789  0.30766  0.45219  1.0000
  H   H2649     1.0  0.40776  0.99656  0.05779  1.0000
  C   C1485     1.0  0.47440  0.45659  0.49322  1.0000
  H   H2650     1.0  0.40770  0.16092  0.99346  1.0000
  Fe  Fe159     1.0  0.43972  0.04634  0.85615  1.0000
  S   S313      1.0  0.43428  0.07553  0.84342  1.0000
  S   S314      1.0  0.42190  0.03489  0.88124  1.0000
  Fe  Fe160     1.0  0.47262  0.03713  0.82815  1.0000
  S   S315      1.0  0.46982  0.06531  0.81300  1.0000
  S   S316      1.0  0.49668  0.01625  0.81977  1.0000
  Fe  Fe161     1.0  0.46380  0.07247  0.83952  1.0000
  S   S317      1.0  0.47753  0.09299  0.84124  1.0000
  Fe  Fe162     1.0  0.44056  0.06592  0.81804  1.0000
  S   S318      1.0  0.42739  0.08048  0.79476  1.0000
  S   S319      1.0  0.46874  0.04413  0.85440  1.0000
  S   S320      1.0  0.44385  0.03682  0.83099  1.0000
  H   H2651     1.0  0.42177  0.33432  0.52676  1.0000
  S   S321      1.0  0.44709  0.18697  0.77567  1.0000
  S   S322      1.0  0.44374  0.23514  0.74806  1.0000
  H   H2652     1.0  0.56565  0.21401  0.54806  1.0000
  Fe  Fe163     1.0  0.44430  0.18760  0.80414  1.0000
  S   S323      1.0  0.46622  0.17017  0.81799  1.0000
  H   H2653     1.0  0.40950  0.01971  0.91803  1.0000
  Fe  Fe164     1.0  0.50211  0.14306  0.93850  1.0000
  S   S324      1.0  0.48357  0.16987  0.93427  1.0000
  S   S325      1.0  0.52463  0.13580  0.95363  1.0000
  Fe  Fe165     1.0  0.48113  0.12699  0.92179  1.0000
  S   S326      1.0  0.46087  0.15237  0.91690  1.0000
  S   S327      1.0  0.47551  0.10248  0.91755  1.0000
  Fe  Fe166     1.0  0.48452  0.16519  0.90739  1.0000
  S   S328      1.0  0.48447  0.18774  0.88304  1.0000
  Fe  Fe167     1.0  0.46181  0.15451  0.94390  1.0000
  S   S329      1.0  0.43753  0.16282  0.96423  1.0000
  S   S330      1.0  0.50510  0.13945  0.91055  1.0000
  S   S331      1.0  0.48005  0.12803  0.94983  1.0000
  H   H2654     1.0  0.40308  0.20804  0.70628  1.0000
  H   H2655     1.0  0.57551  0.01701  0.79606  1.0000
  S   S332      1.0  0.55854  0.02268  0.85163  1.0000
  H   H2656     1.0  0.43242  0.26263  0.57866  1.0000
  Fe  Fe168     1.0  0.41919  0.43247  0.54609  1.0000
  S   S333      1.0  0.42681  0.44762  0.51831  1.0000
  S   S334      1.0  0.42393  0.43562  0.57138  1.0000
  H   H2657     1.0  0.50383  0.39562  0.51533  1.0000
  H   H2658     1.0  0.40854  0.39359  0.57538  1.0000
  C   C1486     1.0  0.54881  0.17490  0.92692  1.0000
  C   C1487     1.0  0.58668  0.14013  0.97310  1.0000
  S   S335      1.0  0.48354  0.47859  0.61919  1.0000
  S   S336      1.0  0.42886  0.40616  0.53835  1.0000
  Fe  Fe169     1.0  0.49060  0.46929  0.59358  1.0000
  S   S337      1.0  0.49176  0.44055  0.60691  1.0000
  H   H2659     1.0  0.40346  0.33449  0.65862  1.0000
  Fe  Fe170     1.0  0.51321  0.47475  0.61630  1.0000
  S   S338      1.0  0.51662  0.44618  0.63113  1.0000
  H   H2660     1.0  0.42027  0.18697  0.85585  1.0000
  Fe  Fe171     1.0  0.52068  0.43941  0.60457  1.0000
  S   S339      1.0  0.54178  0.41699  0.59428  1.0000
  Fe  Fe172     1.0  0.48735  0.44955  0.63231  1.0000
  S   S340      1.0  0.47053  0.43822  0.65863  1.0000
  S   S341      1.0  0.51990  0.46777  0.58952  1.0000
  S   S342      1.0  0.40142  0.37502  0.65286  1.0000
  Fe  Fe173     1.0  0.44725  0.22828  0.65285  1.0000
  S   S343      1.0  0.46391  0.24881  0.64478  1.0000
  S   S344      1.0  0.43697  0.21342  0.68032  1.0000
  Fe  Fe174     1.0  0.44642  0.22910  0.61494  1.0000
  S   S345      1.0  0.46281  0.25003  0.60313  1.0000
  S   S346      1.0  0.43900  0.21447  0.59851  1.0000
  Fe  Fe175     1.0  0.47952  0.23444  0.62298  1.0000
  S   S347      1.0  0.50950  0.22771  0.61694  1.0000
  Fe  Fe176     1.0  0.44604  0.26284  0.62572  1.0000
  S   S348      1.0  0.43607  0.29242  0.62130  1.0000
  S   S349      1.0  0.46462  0.21237  0.63298  1.0000
  S   S350      1.0  0.42777  0.24354  0.63552  1.0000
  Fe  Fe177     1.0  0.52038  0.34534  0.55898  1.0000
  S   S351      1.0  0.51010  0.32109  0.56127  1.0000
  S   S352      1.0  0.50790  0.35934  0.58180  1.0000
  Fe  Fe178     1.0  0.54376  0.34295  0.52213  1.0000
  S   S353      1.0  0.53564  0.31839  0.52174  1.0000
  Fe  Fe179     1.0  0.50815  0.33231  0.53283  1.0000
  S   S354      1.0  0.48460  0.33203  0.52275  1.0000
  Fe  Fe180     1.0  0.53845  0.30933  0.55007  1.0000
  S   S355      1.0  0.55272  0.28133  0.55982  1.0000
  S   S356      1.0  0.51585  0.35772  0.53144  1.0000
  S   S357      1.0  0.54916  0.33273  0.54978  1.0000
  H   H2661     1.0  0.50606  0.47879  0.71553  1.0000
  H   H2662     1.0  0.42789  0.15402  0.73571  1.0000
  C   C1488     1.0  0.52085  0.24263  0.60031  1.0000
  C   C1489     1.0  0.51179  0.25834  0.59078  1.0000
  C   C1490     1.0  0.52141  0.27046  0.57833  1.0000
  C   C1491     1.0  0.54007  0.26672  0.57527  1.0000
  C   C1492     1.0  0.54906  0.25078  0.58447  1.0000
  C   C1493     1.0  0.53949  0.23884  0.59701  1.0000
  H   H2663     1.0  0.49740  0.26130  0.59317  1.0000
  H   H2664     1.0  0.51440  0.28267  0.57119  1.0000
  H   H2665     1.0  0.56348  0.24776  0.58204  1.0000
  H   H2666     1.0  0.54655  0.22667  0.60428  1.0000
  C   C1494     1.0  0.41507  0.32395  0.65661  1.0000
  C   C1495     1.0  0.41701  0.31433  0.64374  1.0000
  C   C1496     1.0  0.43245  0.30138  0.64002  1.0000
  C   C1497     1.0  0.44542  0.29709  0.65018  1.0000
  C   C1498     1.0  0.44342  0.30667  0.66325  1.0000
  H   H2667     1.0  0.53826  0.48377  0.66681  1.0000
  H   H2668     1.0  0.41680  0.10394  0.86551  1.0000
  H   H2669     1.0  0.45725  0.28692  0.64746  1.0000
  H   H2670     1.0  0.50575  0.41387  0.49660  1.0000
  H   H2671     1.0  0.49179  0.46735  0.65910  1.0000
  H   H2672     1.0  0.58474  0.22301  0.53436  1.0000
  H   H2673     1.0  0.54108  0.43859  0.68482  1.0000
  H   H2674     1.0  0.48751  0.01425  0.87979  1.0000
  C   C1499     1.0  0.55017  0.43374  0.65849  1.0000
  H   H2675     1.0  0.41038  0.48910  0.55089  1.0000
  H   H2676     1.0  0.41418  0.28130  0.73893  1.0000
  H   H2677     1.0  0.41565  0.02306  0.94564  1.0000
  H   H2678     1.0  0.55460  0.47129  0.62597  1.0000
  C   C1500     1.0  0.53271  0.40095  0.59031  1.0000
  C   C1501     1.0  0.51615  0.39790  0.60037  1.0000
  C   C1502     1.0  0.50888  0.38505  0.59758  1.0000
  C   C1503     1.0  0.51792  0.37527  0.58450  1.0000
  C   C1504     1.0  0.53451  0.37832  0.57420  1.0000
  C   C1505     1.0  0.54199  0.39105  0.57725  1.0000
  H   H2679     1.0  0.50912  0.40526  0.61056  1.0000
  H   H2680     1.0  0.49605  0.38282  0.60542  1.0000
  H   H2681     1.0  0.41027  0.23600  0.54796  1.0000
  H   H2682     1.0  0.55487  0.39331  0.56943  1.0000
  C   C1506     1.0  0.44948  0.43518  0.65833  1.0000
  C   C1507     1.0  0.43993  0.42529  0.67345  1.0000
  C   C1508     1.0  0.42377  0.42155  0.67305  1.0000
  C   C1509     1.0  0.41686  0.42810  0.65762  1.0000
  C   C1510     1.0  0.42601  0.43871  0.64283  1.0000
  C   C1511     1.0  0.44237  0.44203  0.64307  1.0000
  H   H2683     1.0  0.44521  0.42019  0.68540  1.0000
  H   H2684     1.0  0.41663  0.41365  0.68462  1.0000
  H   H2685     1.0  0.42077  0.44384  0.63088  1.0000
  H   H2686     1.0  0.44954  0.44978  0.63141  1.0000
  C   C1512     1.0  0.43809  0.44930  0.57055  1.0000
  C   C1513     1.0  0.44572  0.45946  0.55447  1.0000
  C   C1514     1.0  0.45791  0.46936  0.55428  1.0000
  C   C1515     1.0  0.46222  0.46931  0.57018  1.0000
  C   C1516     1.0  0.45418  0.45953  0.58624  1.0000
  C   C1517     1.0  0.44217  0.44953  0.58642  1.0000
  H   H2687     1.0  0.44245  0.45944  0.54222  1.0000
  H   H2688     1.0  0.40537  0.07606  0.75154  1.0000
  H   H2689     1.0  0.45713  0.45978  0.59858  1.0000
  H   H2690     1.0  0.43620  0.44177  0.59888  1.0000
  C   C1518     1.0  0.57265  0.22511  0.54508  1.0000
  C   C1519     1.0  0.50885  0.46119  0.69776  1.0000
  H   H2691     1.0  0.47228  0.44114  0.52868  1.0000
  C   C1520     1.0  0.47755  0.35379  0.51121  1.0000
  C   C1521     1.0  0.45934  0.36138  0.51257  1.0000
  H   H2692     1.0  0.53688  0.47424  0.68976  1.0000
  H   H2693     1.0  0.55098  0.22183  0.98108  1.0000
  H   H2694     1.0  0.58151  0.20305  0.97446  1.0000
  H   H2695     1.0  0.44957  0.35337  0.51963  1.0000
  C   C1522     1.0  0.49999  0.48438  0.67166  1.0000
  H   H2696     1.0  0.41426  0.02839  0.79356  1.0000
  C   C1523     1.0  0.57830  0.29034  0.49637  1.0000
  C   C1524     1.0  0.42090  0.22579  0.58850  1.0000
  C   C1525     1.0  0.42218  0.22529  0.57085  1.0000
  H   H2697     1.0  0.43949  0.37004  0.67286  1.0000
  H   H2698     1.0  0.52678  0.42114  0.54733  1.0000
  C   C1526     1.0  0.45373  0.37972  0.50607  1.0000
  H   H2699     1.0  0.45799  0.18859  0.96577  1.0000
  H   H2700     1.0  0.48099  0.45263  0.72651  1.0000
  H   H2701     1.0  0.54087  0.42490  0.66040  1.0000
  H   H2702     1.0  0.42007  0.28705  0.68952  1.0000
  H   H2703     1.0  0.56387  0.29296  0.60398  1.0000
  H   H2704     1.0  0.52304  0.42617  0.51005  1.0000
  C   C1527     1.0  0.52434  0.14625  0.97073  1.0000
  H   H2705     1.0  0.43636  0.20791  0.92733  1.0000
  C   C1528     1.0  0.51399  0.16328  0.97190  1.0000
  H   H2706     1.0  0.58627  0.19461  0.94077  1.0000
  H   H2707     1.0  0.50568  0.17025  0.96238  1.0000
  C   C1529     1.0  0.44341  0.22845  0.72900  1.0000
  C   C1530     1.0  0.43586  0.21404  0.73080  1.0000
  C   C1531     1.0  0.43452  0.20926  0.71572  1.0000
  C   C1532     1.0  0.44047  0.21901  0.69870  1.0000
  C   C1533     1.0  0.44846  0.23320  0.69678  1.0000
  C   C1534     1.0  0.45005  0.23784  0.71196  1.0000
  H   H2708     1.0  0.43654  0.12513  0.90837  1.0000
  H   H2709     1.0  0.42871  0.19806  0.71734  1.0000
  H   H2710     1.0  0.45313  0.24075  0.68369  1.0000
  H   H2711     1.0  0.45611  0.24889  0.71050  1.0000
  C   C1535     1.0  0.47202  0.17552  0.83541  1.0000
  C   C1536     1.0  0.47158  0.19308  0.83571  1.0000
  C   C1537     1.0  0.47622  0.19667  0.85001  1.0000
  C   C1538     1.0  0.48053  0.18284  0.86437  1.0000
  C   C1539     1.0  0.48095  0.16534  0.86401  1.0000
  C   C1540     1.0  0.47715  0.16168  0.84938  1.0000
  H   H2712     1.0  0.46793  0.20381  0.82485  1.0000
  H   H2713     1.0  0.47607  0.21022  0.85013  1.0000
  H   H2714     1.0  0.48436  0.15459  0.87494  1.0000
  H   H2715     1.0  0.47771  0.14810  0.84908  1.0000
  C   C1541     1.0  0.51017  0.28029  0.52351  1.0000
  C   C1542     1.0  0.51429  0.01782  0.82813  1.0000
  C   C1543     1.0  0.51387  0.03367  0.83263  1.0000
  C   C1544     1.0  0.52754  0.03498  0.83975  1.0000
  C   C1545     1.0  0.54194  0.02059  0.84214  1.0000
  C   C1546     1.0  0.41245  0.38914  0.58851  1.0000
  H   H2716     1.0  0.49858  0.29003  0.54796  1.0000
  H   H2717     1.0  0.50303  0.04503  0.83054  1.0000
  H   H2718     1.0  0.52694  0.04732  0.84316  1.0000
  H   H2719     1.0  0.45330  0.31757  0.58113  1.0000
  C   C1547     1.0  0.45201  0.04520  0.99081  1.0000
  C   C1548     1.0  0.47470  0.09736  0.86235  1.0000
  C   C1549     1.0  0.46498  0.08791  0.87750  1.0000
  C   C1550     1.0  0.46431  0.09050  0.89438  1.0000
  C   C1551     1.0  0.47355  0.10233  0.89620  1.0000
  C   C1552     1.0  0.48243  0.11252  0.88099  1.0000
  C   C1553     1.0  0.48304  0.10998  0.86410  1.0000
  H   H2720     1.0  0.45836  0.07830  0.87625  1.0000
  H   H2721     1.0  0.45708  0.08291  0.90613  1.0000
  H   H2722     1.0  0.48963  0.12164  0.88226  1.0000
  H   H2723     1.0  0.49057  0.11732  0.85237  1.0000
  H   H2724     1.0  0.40469  0.20433  0.67184  1.0000
  H   H2725     1.0  0.41250  0.25285  0.67745  1.0000
  C   C1554     1.0  0.41752  0.30114  0.54998  1.0000
  C   C1555     1.0  0.51233  0.40515  0.50744  1.0000
  H   H2726     1.0  0.45277  0.19228  0.91558  1.0000
  C   C1556     1.0  0.42763  0.21494  0.86540  1.0000
  Fe  Fe181     1.0  0.43356  0.42144  0.51031  1.0000
  C   C1557     1.0  0.43585  0.03818  0.93173  1.0000
  H   H2727     1.0  0.40425  0.32669  0.52230  1.0000
  C   C1558     1.0  0.52453  0.45886  0.66743  1.0000
  C   C1559     1.0  0.42837  0.03498  0.90054  1.0000
  C   C1560     1.0  0.44164  0.04385  0.89955  1.0000
  C   C1561     1.0  0.44555  0.04523  0.91512  1.0000
  C   C1562     1.0  0.40878  0.23573  0.56188  1.0000
  H   H2728     1.0  0.44833  0.05035  0.88685  1.0000
  H   H2729     1.0  0.45546  0.05251  0.91424  1.0000
  C   C1563     1.0  0.43031  0.20616  0.90302  1.0000
  C   C1564     1.0  0.42948  0.13038  0.96802  1.0000
  H   H2730     1.0  0.44055  0.12825  0.95694  1.0000
  N   N86       1.0  0.47560  0.37487  0.65570  1.0000
  C   C1565     1.0  0.48652  0.35608  0.65704  1.0000
  C   C1566     1.0  0.46429  0.37685  0.67382  1.0000
  C   C1567     1.0  0.46423  0.37821  0.64236  1.0000
  C   C1568     1.0  0.50050  0.35218  0.63998  1.0000
  C   C1569     1.0  0.45100  0.39641  0.64006  1.0000
  C   C1570     1.0  0.49757  0.47191  0.71200  1.0000
  C   C1571     1.0  0.44035  0.39823  0.62620  1.0000
  H   H2731     1.0  0.47765  0.34651  0.66024  1.0000
  H   H2732     1.0  0.45787  0.39107  0.67385  1.0000
  H   H2733     1.0  0.45653  0.36763  0.64575  1.0000
  H   H2734     1.0  0.47272  0.37745  0.62895  1.0000
  H   H2735     1.0  0.49380  0.35310  0.62917  1.0000
  H   H2736     1.0  0.50970  0.36151  0.63503  1.0000
  H   H2737     1.0  0.45811  0.40753  0.63554  1.0000
  H   H2738     1.0  0.44138  0.39771  0.65272  1.0000
  H   H2739     1.0  0.43851  0.29128  0.70226  1.0000
  H   H2740     1.0  0.52015  0.33212  0.65316  1.0000
  H   H2741     1.0  0.44945  0.39663  0.61327  1.0000
  H   H2742     1.0  0.43209  0.38808  0.63067  1.0000
  H   H2743     1.0  0.43130  0.41157  0.62428  1.0000
  H   H2744     1.0  0.43550  0.15960  0.88654  1.0000
  H   H2745     1.0  0.55246  0.44113  0.64441  1.0000
  C   C1572     1.0  0.40576  0.32017  0.55024  1.0000
  H   H2746     1.0  0.40545  0.22906  0.85214  1.0000
  C   C1573     1.0  0.46636  0.39031  0.49786  1.0000
  S   S358      1.0  0.40638  0.42250  0.50648  1.0000
  C   C1574     1.0  0.56376  0.01956  0.78999  1.0000
  C   C1575     1.0  0.43310  0.29813  0.57457  1.0000
  H   H2747     1.0  0.53687  0.38513  0.50923  1.0000
  H   H2748     1.0  0.51580  0.44977  0.66825  1.0000
  C   C1576     1.0  0.57041  0.19647  0.98242  1.0000
  C   C1577     1.0  0.42618  0.16471  0.87730  1.0000
  C   C1578     1.0  0.43077  0.27150  0.56559  1.0000
  H   H2749     1.0  0.50533  0.49221  0.65838  1.0000
  H   H2750     1.0  0.46415  0.47692  0.54185  1.0000
  H   H2751     1.0  0.41807  0.07562  0.88851  1.0000
  H   H2752     1.0  0.48326  0.29333  0.53394  1.0000
  H   H2753     1.0  0.48605  0.48176  0.70745  1.0000
  C   C1579     1.0  0.52877  0.00339  0.83031  1.0000
  H   H2754     1.0  0.40634  0.13467  0.81180  1.0000
  H   H2755     1.0  0.43089  0.20658  0.74384  1.0000
  Fe  Fe182     1.0  0.58655  0.00894  0.84089  1.0000
  H   H2756     1.0  0.41240  0.16464  0.88506  1.0000
  H   H2757     1.0  0.56765  0.25359  0.53746  1.0000
  H   H2758     1.0  0.45511  0.29925  0.71945  1.0000
  C   C1580     1.0  0.42770  0.18380  0.86659  1.0000
  H   H2759     1.0  0.55276  0.45463  0.66901  1.0000
  H   H2760     1.0  0.59805  0.16389  0.93067  1.0000
  H   H2761     1.0  0.43963  0.38573  0.50783  1.0000
  C   C1581     1.0  0.59101  0.18171  0.94961  1.0000
  C   C1582     1.0  0.57704  0.06175  0.75708  1.0000
  H   H2762     1.0  0.40898  0.32650  0.55935  1.0000
  H   H2763     1.0  0.53058  0.44111  0.56398  1.0000
  H   H2764     1.0  0.46881  0.31978  0.55997  1.0000
  H   H2765     1.0  0.42858  0.02468  0.98880  1.0000
  H   H2766     1.0  0.52037  0.45250  0.70338  1.0000
  C   C1583     1.0  0.55492  0.48324  0.62969  1.0000
  C   C1584     1.0  0.41101  0.14875  0.98864  1.0000
  H   H2767     1.0  0.47474  0.43103  0.56152  1.0000
  C   C1585     1.0  0.49967  0.01363  0.88439  1.0000
  H   H2768     1.0  0.49150  0.44847  0.54244  1.0000
  C   C1586     1.0  0.50255  0.05754  0.90679  1.0000
  C   C1587     1.0  0.49649  0.04533  0.92503  1.0000
  C   C1588     1.0  0.48172  0.05583  0.93729  1.0000
  H   H2769     1.0  0.50824  0.06544  0.87163  1.0000
  H   H2770     1.0  0.51716  0.02156  0.90500  1.0000
  H   H2771     1.0  0.49098  0.06246  0.90022  1.0000
  H   H2772     1.0  0.49120  0.03456  0.92328  1.0000
  H   H2773     1.0  0.45164  0.01610  0.98190  1.0000
  H   H2774     1.0  0.44070  0.00355  0.96594  1.0000
  H   H2775     1.0  0.48676  0.06586  0.94074  1.0000
  H   H2776     1.0  0.47024  0.06278  0.93088  1.0000
  H   H2777     1.0  0.47688  0.04660  0.94973  1.0000
  C   C1589     1.0  0.40879  0.13679  0.91827  1.0000
  H   H2778     1.0  0.43396  0.21744  0.56387  1.0000
  H   H2779     1.0  0.55845  0.20104  0.96023  1.0000
  N   N87       1.0  0.46732  0.12443  0.77433  1.0000
  C   C1590     1.0  0.45627  0.11129  0.77560  1.0000
  C   C1591     1.0  0.46039  0.13330  0.79023  1.0000
  C   C1592     1.0  0.46499  0.13870  0.75779  1.0000
  C   C1593     1.0  0.48699  0.11607  0.77263  1.0000
  C   C1594     1.0  0.49196  0.09819  0.78561  1.0000
  C   C1595     1.0  0.46138  0.10144  0.75997  1.0000
  C   C1596     1.0  0.47595  0.15326  0.75341  1.0000
  C   C1597     1.0  0.45165  0.12220  0.80810  1.0000
  C   C1598     1.0  0.44844  0.13117  0.82364  1.0000
  C   C1599     1.0  0.51217  0.09135  0.78288  1.0000
  C   C1600     1.0  0.44738  0.10751  0.74849  1.0000
  C   C1601     1.0  0.47031  0.16849  0.73827  1.0000
  H   H2780     1.0  0.44184  0.11803  0.77742  1.0000
  H   H2781     1.0  0.45689  0.10065  0.78780  1.0000
  H   H2782     1.0  0.47109  0.13816  0.79284  1.0000
  H   H2783     1.0  0.44988  0.14555  0.78747  1.0000
  H   H2784     1.0  0.45062  0.14530  0.75872  1.0000
  H   H2785     1.0  0.46893  0.13291  0.74578  1.0000
  H   H2786     1.0  0.49320  0.11391  0.75892  1.0000
  H   H2787     1.0  0.49418  0.12538  0.77449  1.0000
  H   H2788     1.0  0.48642  0.08789  0.78334  1.0000
  H   H2789     1.0  0.48706  0.09971  0.79955  1.0000
  H   H2790     1.0  0.47460  0.10270  0.75131  1.0000
  H   H2791     1.0  0.46234  0.08692  0.76559  1.0000
  H   H2792     1.0  0.49037  0.14759  0.74906  1.0000
  H   H2793     1.0  0.47437  0.15877  0.76518  1.0000
  H   H2794     1.0  0.43854  0.12070  0.80715  1.0000
  H   H2795     1.0  0.45983  0.10871  0.81152  1.0000
  H   H2796     1.0  0.46132  0.13220  0.82572  1.0000
  H   H2797     1.0  0.43986  0.14466  0.82112  1.0000
  H   H2798     1.0  0.44175  0.12309  0.83602  1.0000
  H   H2799     1.0  0.51852  0.10107  0.78520  1.0000
  H   H2800     1.0  0.51513  0.07860  0.79259  1.0000
  H   H2801     1.0  0.51792  0.08895  0.76922  1.0000
  H   H2802     1.0  0.43445  0.10446  0.75662  1.0000
  H   H2803     1.0  0.44539  0.12202  0.74277  1.0000
  H   H2804     1.0  0.45171  0.10028  0.73746  1.0000
  H   H2805     1.0  0.47771  0.17915  0.73591  1.0000
  H   H2806     1.0  0.47326  0.16362  0.72580  1.0000
  H   H2807     1.0  0.45580  0.17437  0.74164  1.0000
  H   H2808     1.0  0.44053  0.28744  0.58380  1.0000
  C   C1602     1.0  0.49009  0.45957  0.72908  1.0000
  H   H2809     1.0  0.40622  0.06987  0.73115  1.0000
  H   H2810     1.0  0.44329  0.23307  0.83174  1.0000
  C   C1603     1.0  0.54265  0.00479  0.83729  1.0000
  C   C1604     1.0  0.42528  0.14613  0.97424  1.0000
  H   H2811     1.0  0.53095  0.45232  0.54120  1.0000
  C   C1605     1.0  0.42861  0.15843  0.72115  1.0000
  H   H2812     1.0  0.57875  0.29311  0.50912  1.0000
  H   H2813     1.0  0.41030  0.29408  0.54486  1.0000
  C   C1606     1.0  0.48732  0.38831  0.64961  1.0000
  C   C1607     1.0  0.55151  0.27641  0.51151  1.0000
  S   S359      1.0  0.43253  0.21699  0.80041  1.0000
  H   H2814     1.0  0.45440  0.27593  0.72687  1.0000
  H   H2815     1.0  0.41967  0.18550  0.69305  1.0000
  C   C1608     1.0  0.40615  0.10310  0.87773  1.0000
  H   H2816     1.0  0.47987  0.40710  0.58524  1.0000
  H   H2817     1.0  0.56622  0.06738  0.74958  1.0000
  H   H2818     1.0  0.40908  0.10093  0.72594  1.0000
  H   H2819     1.0  0.56578  0.27071  0.61762  1.0000
  H   H2820     1.0  0.41415  0.28456  0.60532  1.0000
  H   H2821     1.0  0.42193  0.21332  0.84029  1.0000
  H   H2822     1.0  0.55323  0.16401  0.96166  1.0000
  H   H2823     1.0  0.43827  0.16731  0.71550  1.0000
  S   S360      1.0  0.43842  0.04280  0.95098  1.0000
  C   C1609     1.0  0.56283  0.18926  0.97046  1.0000
  H   H2824     1.0  0.58146  0.03355  0.89089  1.0000
  H   H2825     1.0  0.48891  0.40089  0.54105  1.0000
  H   H2826     1.0  0.50168  0.44419  0.49444  1.0000
  C   C1610     1.0  0.55714  0.28155  0.60976  1.0000
  C   C1611     1.0  0.40424  0.28945  0.58085  1.0000
  H   H2827     1.0  0.44026  0.29179  0.73998  1.0000
  H   H2828     1.0  0.41926  0.17554  0.66173  1.0000
  C   C1612     1.0  0.48453  0.38244  0.49538  1.0000
  Fe  Fe183     1.0  0.41160  0.05756  0.96322  1.0000
  C   C1613     1.0  0.43207  0.19214  0.89210  1.0000
  H   H2829     1.0  0.42380  0.15638  0.85419  1.0000
  H   H2830     1.0  0.57911  0.00640  0.76779  1.0000
  H   H2831     1.0  0.42726  0.24874  0.84407  1.0000
  C   C1614     1.0  0.41933  0.11728  0.97620  1.0000
  C   C1615     1.0  0.43119  0.15150  0.86509  1.0000
  C   C1616     1.0  0.42885  0.23829  0.83664  1.0000
  H   H2832     1.0  0.59498  0.13939  0.95969  1.0000
  H   H2833     1.0  0.57279  0.15694  0.94648  1.0000
  H   H2834     1.0  0.44187  0.18299  0.85962  1.0000
  H   H2835     1.0  0.41114  0.11268  0.80717  1.0000
  H   H2836     1.0  0.42826  0.13842  0.87290  1.0000
  H   H2837     1.0  0.44242  0.21242  0.86129  1.0000
  H   H2838     1.0  0.44657  0.18742  0.88682  1.0000
  C   C1617     1.0  0.52861  0.48203  0.67984  1.0000
  N   N88       1.0  0.51526  0.47184  0.67948  1.0000
  N   N89       1.0  0.57537  0.17447  0.96192  1.0000
  C   C1618     1.0  0.40785  0.33237  0.53175  1.0000
  C   C1619     1.0  0.43823  0.19771  0.91954  1.0000
  C   C1620     1.0  0.56492  0.16863  0.95212  1.0000
  C   C1621     1.0  0.56102  0.06508  0.81390  1.0000
  H   H2839     1.0  0.50114  0.45180  0.69698  1.0000
  H   H2840     1.0  0.40344  0.04167  0.73992  1.0000
  C   C1622     1.0  0.48588  0.47563  0.66924  1.0000
  H   H2841     1.0  0.51984  0.25277  0.53597  1.0000
  S   S361      1.0  0.56299  0.35481  0.49817  1.0000
  Fe  Fe184     1.0  0.43338  0.21569  0.77242  1.0000
  H   H2842     1.0  0.48024  0.46717  0.68189  1.0000
  H   H2843     1.0  0.56872  0.05296  0.89947  1.0000
  C   C1623     1.0  0.56025  0.24299  0.53963  1.0000
  H   H2844     1.0  0.58083  0.47271  0.63646  1.0000
  H   H2845     1.0  0.50107  0.44950  0.73454  1.0000
  H   H2846     1.0  0.51122  0.45727  0.55825  1.0000
  Fe  Fe185     1.0  0.41959  0.18149  0.78360  1.0000
  H   H2847     1.0  0.47283  0.37288  0.68378  1.0000
  S   S362      1.0  0.41794  0.17958  0.81250  1.0000
  H   H2848     1.0  0.43941  0.32207  0.55484  1.0000
  C   C1624     1.0  0.54555  0.04176  0.76963  1.0000
  C   C1625     1.0  0.52763  0.03690  0.78092  1.0000
  H   H2849     1.0  0.56542  0.23978  0.51234  1.0000
  H   H2850     1.0  0.55251  0.01719  0.80141  1.0000
  C   C1626     1.0  0.51417  0.04027  0.76930  1.0000
  H   H2851     1.0  0.42278  0.10502  0.97154  1.0000
  C   C1627     1.0  0.54262  0.44669  0.67106  1.0000
  H   H2852     1.0  0.55225  0.27968  0.52393  1.0000
  H   H2853     1.0  0.55031  0.03447  0.75859  1.0000
  H   H2854     1.0  0.54224  0.05607  0.76305  1.0000
  H   H2855     1.0  0.52951  0.02266  0.78781  1.0000
  H   H2856     1.0  0.45391  0.30195  0.54971  1.0000
  C   C1628     1.0  0.41009  0.16823  0.71776  1.0000
  H   H2857     1.0  0.57061  0.06369  0.82226  1.0000
  C   C1629     1.0  0.40578  0.35949  0.59642  1.0000
  C   C1630     1.0  0.49012  0.36420  0.50206  1.0000
  H   H2858     1.0  0.50154  0.03669  0.77779  1.0000
  H   H2859     1.0  0.51117  0.05457  0.76263  1.0000
  H   H2860     1.0  0.51935  0.03194  0.75915  1.0000
  C   C1631     1.0  0.48430  0.43447  0.52011  1.0000
  H   H2861     1.0  0.52139  0.04507  0.79111  1.0000
  C   C1632     1.0  0.40545  0.27947  0.60024  1.0000
  C   C1633     1.0  0.44966  0.26892  0.55356  1.0000
  H   H2862     1.0  0.42221  0.26591  0.56054  1.0000
  C   C1634     1.0  0.40807  0.26730  0.67193  1.0000
  C   C1635     1.0  0.53533  0.13756  0.98303  1.0000
  H   H2863     1.0  0.52868  0.02622  0.88259  1.0000
  H   H2864     1.0  0.54131  0.08328  0.84846  1.0000
  C   C1636     1.0  0.53009  0.39455  0.49883  1.0000
  H   H2865     1.0  0.43165  0.18683  0.92820  1.0000
  C   C1637     1.0  0.41075  0.34028  0.59330  1.0000
  C   C1638     1.0  0.56754  0.05034  0.80334  1.0000
  H   H2866     1.0  0.41645  0.18724  0.63050  1.0000
  H   H2867     1.0  0.58094  0.99870  0.91872  1.0000
  H   H2868     1.0  0.44984  0.27740  0.54003  1.0000
  H   H2869     1.0  0.42411  0.30685  0.71551  1.0000
  H   H2870     1.0  0.41952  0.36705  0.61978  1.0000
  H   H2871     1.0  0.50759  0.03911  0.93207  1.0000
  H   H2872     1.0  0.47960  0.42456  0.51601  1.0000
  N   N90       1.0  0.51132  0.27622  0.64228  1.0000
  C   C1639     1.0  0.51402  0.28100  0.65824  1.0000
  C   C1640     1.0  0.52924  0.27187  0.63003  1.0000
  C   C1641     1.0  0.49903  0.29186  0.63312  1.0000
  C   C1642     1.0  0.50294  0.26020  0.64778  1.0000
  C   C1643     1.0  0.51300  0.24314  0.65883  1.0000
  C   C1644     1.0  0.49744  0.28289  0.67377  1.0000
  C   C1645     1.0  0.49651  0.29036  0.61507  1.0000
  C   C1646     1.0  0.50175  0.22897  0.66643  1.0000
  C   C1647     1.0  0.50153  0.28861  0.68873  1.0000
  C   C1648     1.0  0.48378  0.30679  0.60711  1.0000
  H   H2873     1.0  0.51838  0.29384  0.65425  1.0000
  H   H2874     1.0  0.52520  0.27120  0.66366  1.0000
  H   H2875     1.0  0.53847  0.26107  0.63732  1.0000
  H   H2876     1.0  0.52805  0.26627  0.61918  1.0000
  H   H2877     1.0  0.50365  0.30439  0.63082  1.0000
  H   H2878     1.0  0.48549  0.29405  0.64175  1.0000
  H   H2879     1.0  0.48892  0.26359  0.65522  1.0000
  H   H2880     1.0  0.50195  0.25620  0.63588  1.0000
  H   H2881     1.0  0.51640  0.24585  0.67023  1.0000
  H   H2882     1.0  0.52554  0.23731  0.65025  1.0000
  H   H2883     1.0  0.48612  0.29308  0.66920  1.0000
  H   H2884     1.0  0.49308  0.27007  0.67958  1.0000
  H   H2885     1.0  0.49079  0.27868  0.61667  1.0000
  H   H2886     1.0  0.50937  0.28922  0.60527  1.0000
  H   H2887     1.0  0.50934  0.21689  0.67409  1.0000
  H   H2888     1.0  0.48918  0.23396  0.67551  1.0000
  H   H2889     1.0  0.49846  0.22505  0.65560  1.0000
  H   H2890     1.0  0.48949  0.28975  0.69967  1.0000
  H   H2891     1.0  0.51254  0.27859  0.69416  1.0000
  H   H2892     1.0  0.50531  0.30179  0.68384  1.0000
  H   H2893     1.0  0.48338  0.30580  0.59367  1.0000
  H   H2894     1.0  0.47007  0.30749  0.61539  1.0000
  H   H2895     1.0  0.48829  0.31918  0.60581  1.0000
  C   C1649     1.0  0.45668  0.24959  0.55156  1.0000
  H   H2896     1.0  0.44811  0.24582  0.54492  1.0000
  H   H2897     1.0  0.47046  0.24797  0.54333  1.0000
  H   H2898     1.0  0.45699  0.24044  0.56479  1.0000
  N   N91       1.0  0.42069  0.36936  0.59198  1.0000
  C   C1650     1.0  0.43393  0.36541  0.57528  1.0000
  C   C1651     1.0  0.42961  0.36526  0.60746  1.0000
  C   C1652     1.0  0.44128  0.34639  0.61194  1.0000
  C   C1653     1.0  0.45063  0.37367  0.57024  1.0000
  S   S363      1.0  0.47767  0.48139  0.56995  1.0000
  C   C1654     1.0  0.45191  0.34539  0.62559  1.0000
  C   C1655     1.0  0.46349  0.36835  0.55361  1.0000
  H   H2899     1.0  0.42717  0.36987  0.56381  1.0000
  H   H2900     1.0  0.43909  0.35091  0.57624  1.0000
  H   H2901     1.0  0.42232  0.39706  0.58758  1.0000
  H   H2902     1.0  0.43799  0.37503  0.60537  1.0000
  H   H2903     1.0  0.45087  0.34218  0.60016  1.0000
  H   H2904     1.0  0.43261  0.33678  0.61809  1.0000
  H   H2905     1.0  0.44680  0.38841  0.56771  1.0000
  H   H2906     1.0  0.45822  0.36895  0.58099  1.0000
  C   C1656     1.0  0.48656  0.12305  0.99280  1.0000
  C   C1657     1.0  0.58145  0.15929  0.97663  1.0000
  H   H2907     1.0  0.46182  0.35398  0.61973  1.0000
  H   H2908     1.0  0.44274  0.34959  0.63764  1.0000
  H   H2909     1.0  0.45912  0.33151  0.62975  1.0000
  H   H2910     1.0  0.45696  0.37346  0.54211  1.0000
  H   H2911     1.0  0.47544  0.37413  0.55054  1.0000
  H   H2912     1.0  0.46796  0.35364  0.55559  1.0000
  H   H2913     1.0  0.43351  0.14651  0.71515  1.0000
  S   S364      1.0  0.41457  0.15919  0.77443  1.0000
  H   H2914     1.0  0.44566  0.14937  0.85901  1.0000
  H   H2915     1.0  0.57439  0.13546  0.97427  1.0000
  C   C1658     1.0  0.42303  0.02874  0.93280  1.0000
  H   H2916     1.0  0.43776  0.21660  0.89495  1.0000
  H   H2917     1.0  0.52854  0.26846  0.54099  1.0000
  H   H2918     1.0  0.48239  0.46751  0.73922  1.0000
  H   H2919     1.0  0.55584  0.00558  0.77398  1.0000
  H   H2920     1.0  0.55045  0.18481  0.97867  1.0000
  C   C1659     1.0  0.59707  0.12699  0.98652  1.0000
  H   H2921     1.0  0.54874  0.24454  0.55097  1.0000
  H   H2922     1.0  0.57690  0.22497  0.55726  1.0000
  H   H2923     1.0  0.59287  0.16172  0.98050  1.0000
  C   C1660     1.0  0.49468  0.28387  0.53911  1.0000
  H   H2924     1.0  0.57533  0.07007  0.76676  1.0000
  H   H2925     1.0  0.49130  0.46056  0.50783  1.0000
  H   H2926     1.0  0.39883  0.34561  0.53244  1.0000
  H   H2927     1.0  0.46178  0.46225  0.50181  1.0000
  H   H2928     1.0  0.42165  0.26405  0.69917  1.0000
  H   H2929     1.0  0.50419  0.35824  0.50040  1.0000
  H   H2930     1.0  0.41613  0.21256  0.90744  1.0000
  H   H2931     1.0  0.55818  0.16354  0.92155  1.0000
  H   H2932     1.0  0.46086  0.48311  0.66050  1.0000
  C   C1661     1.0  0.56761  0.00496  0.77917  1.0000
  N   N92       1.0  0.42176  0.29032  0.56760  1.0000
  H   H2933     1.0  0.42601  0.09209  0.89404  1.0000
  H   H2934     1.0  0.42757  0.18050  0.90187  1.0000
  N   N93       1.0  0.42201  0.19822  0.87718  1.0000
  H   H2935     1.0  0.46865  0.29808  0.57434  1.0000
  H   H2936     1.0  0.41093  0.26510  0.60119  1.0000
  H   H2937     1.0  0.58869  0.03677  0.77301  1.0000
  H   H2938     1.0  0.56001  0.07840  0.80477  1.0000
  C   C1662     1.0  0.53898  0.28756  0.62147  1.0000
  H   H2939     1.0  0.54140  0.29297  0.63178  1.0000
  N   N94       1.0  0.56004  0.03856  0.77970  1.0000
  H   H2940     1.0  0.50476  0.06964  0.90953  1.0000
  H   H2941     1.0  0.49363  0.38935  0.63530  1.0000
  H   H2942     1.0  0.43254  0.38283  0.69950  1.0000
  C   C1663     1.0  0.51697  0.03170  0.89233  1.0000
  H   H2943     1.0  0.51451  0.08786  0.88364  1.0000
  H   H2944     1.0  0.54621  0.23286  0.52664  1.0000
  C   C1664     1.0  0.42835  0.32037  0.66621  1.0000
  C   C1665     1.0  0.57065  0.27380  0.49981  1.0000
  H   H2945     1.0  0.51151  0.00832  0.87470  1.0000
  C   C1666     1.0  0.44947  0.36593  0.68136  1.0000
  H   H2946     1.0  0.49339  0.35222  0.66836  1.0000
  H   H2947     1.0  0.47915  0.40189  0.65055  1.0000
  N   N95       1.0  0.51881  0.04924  0.89454  1.0000
  C   C1667     1.0  0.52084  0.06177  0.87655  1.0000
  C   C1668     1.0  0.41951  0.02690  0.91719  1.0000
  H   H2948     1.0  0.42986  0.30232  0.53965  1.0000
  C   C1669     1.0  0.43943  0.36865  0.69996  1.0000
  H   H2949     1.0  0.53114  0.29856  0.61296  1.0000
  H   H2950     1.0  0.49039  0.27137  0.54687  1.0000
  C   C1670     1.0  0.52559  0.07963  0.87562  1.0000
  H   H2951     1.0  0.51762  0.09180  0.85016  1.0000
  H   H2952     1.0  0.54363  0.28874  0.50443  1.0000
  N   N96       1.0  0.54213  0.26122  0.51576  1.0000
  H   H2953     1.0  0.45905  0.27204  0.55970  1.0000
  H   H2954     1.0  0.41795  0.16482  0.69070  1.0000
  H   H2955     1.0  0.42923  0.36034  0.70520  1.0000
  H   H2956     1.0  0.44870  0.36460  0.70920  1.0000
  C   C1671     1.0  0.50023  0.03224  0.88562  1.0000
  C   C1672     1.0  0.51530  0.41629  0.51913  1.0000
  C   C1673     1.0  0.52896  0.09021  0.85642  1.0000
  H   H2957     1.0  0.53107  0.05505  0.86655  1.0000
  H   H2958     1.0  0.45519  0.35148  0.68245  1.0000
  H   H2959     1.0  0.46300  0.42010  0.55286  1.0000
  H   H2960     1.0  0.53784  0.07758  0.88061  1.0000
  H   H2961     1.0  0.48768  0.03734  0.89459  1.0000
  H   H2962     1.0  0.53059  0.10367  0.85617  1.0000
  H   H2963     1.0  0.56889  0.18819  0.92662  1.0000
  C   C1674     1.0  0.53486  0.04600  0.90250  1.0000
  H   H2964     1.0  0.53519  0.05813  0.90663  1.0000
  H   H2965     1.0  0.53388  0.03560  0.91497  1.0000
  H   H2966     1.0  0.50517  0.10131  0.98189  1.0000
  H   H2967     1.0  0.50039  0.04088  0.87215  1.0000
  C   C1675     1.0  0.42600  0.12301  0.92061  1.0000
  H   H2968     1.0  0.49621  0.38573  0.67416  1.0000
  C   C1676     1.0  0.52239  0.44657  0.55375  1.0000
  H   H2969     1.0  0.54780  0.06412  0.82281  1.0000
  H   H2970     1.0  0.56706  0.03092  0.91274  1.0000
  C   C1677     1.0  0.50215  0.38502  0.66005  1.0000
  H   H2971     1.0  0.51132  0.37186  0.65960  1.0000
  H   H2972     1.0  0.50507  0.41257  0.65277  1.0000
  C   C1678     1.0  0.51184  0.33336  0.64358  1.0000
  H   H2973     1.0  0.45761  0.40817  0.58341  1.0000
  H   H2974     1.0  0.54164  0.37076  0.56409  1.0000
  H   H2975     1.0  0.51097  0.44774  0.52561  1.0000
  H   H2976     1.0  0.47582  0.39122  0.57518  1.0000
  H   H2977     1.0  0.55550  0.27679  0.59862  1.0000
  H   H2978     1.0  0.50307  0.32362  0.64910  1.0000
  H   H2979     1.0  0.45366  0.30379  0.67074  1.0000
  C   C1679     1.0  0.51351  0.39908  0.65222  1.0000
  C   C1680     1.0  0.50359  0.43910  0.53698  1.0000
  C   C1681     1.0  0.51520  0.43177  0.55119  1.0000
  C   C1682     1.0  0.47190  0.40524  0.57674  1.0000
  S   S365      1.0  0.42630  0.33342  0.68141  1.0000
  H   H2980     1.0  0.49005  0.13252  0.98007  1.0000
  H   H2981     1.0  0.52029  0.39861  0.63819  1.0000
  C   C1683     1.0  0.55327  0.03956  0.89068  1.0000
  H   H2982     1.0  0.55536  0.04831  0.87725  1.0000
  H   H2983     1.0  0.55448  0.02585  0.88916  1.0000
  C   C1684     1.0  0.47465  0.41821  0.55881  1.0000
  H   H2984     1.0  0.50247  0.40387  0.55358  1.0000
  C   C1685     1.0  0.48929  0.44922  0.50362  1.0000
  H   H2985     1.0  0.57979  0.26237  0.50645  1.0000
  H   H2986     1.0  0.42389  0.10929  0.92299  1.0000
  H   H2987     1.0  0.52387  0.39660  0.66001  1.0000
  C   C1686     1.0  0.57698  0.04203  0.76656  1.0000
  H   H2988     1.0  0.52080  0.33034  0.63095  1.0000
  H   H2989     1.0  0.50714  0.42621  0.56422  1.0000
  H   H2990     1.0  0.40639  0.11261  0.84119  1.0000
  C   C1687     1.0  0.52538  0.26495  0.52978  1.0000
  C   C1688     1.0  0.40042  0.02626  0.79896  1.0000
  H   H2991     1.0  0.52450  0.40721  0.52766  1.0000
  H   H2992     1.0  0.54421  0.18521  0.91565  1.0000
  C   C1689     1.0  0.46012  0.31117  0.56964  1.0000
  H   H2993     1.0  0.42460  0.30759  0.58291  1.0000
  Fe  Fe186     1.0  0.40097  0.40893  0.53551  1.0000
  H   H2994     1.0  0.44194  0.05335  0.98291  1.0000
  C   C1690     1.0  0.56852  0.03923  0.89904  1.0000
  H   H2995     1.0  0.46955  0.19711  0.97716  1.0000
  H   H2996     1.0  0.54938  0.06486  0.78564  1.0000
  H   H2997     1.0  0.54198  0.04748  0.80271  1.0000
  C   C1691     1.0  0.49195  0.41129  0.54590  1.0000
  C   C1692     1.0  0.55388  0.05086  0.79257  1.0000
  H   H2998     1.0  0.40681  0.31742  0.63620  1.0000
  C   C1693     1.0  0.44651  0.30864  0.56076  1.0000
  H   H2999     1.0  0.43087  0.12421  0.93190  1.0000
  C   C1694     1.0  0.55786  0.18284  0.93659  1.0000
  H   H3000     1.0  0.56313  0.42531  0.66123  1.0000
  H   H3001     1.0  0.53698  0.17023  0.93606  1.0000
  N   N97       1.0  0.49872  0.42531  0.53051  1.0000
  C   C1695     1.0  0.41912  0.27968  0.72499  1.0000
  H   H3002     1.0  0.40425  0.08789  0.90517  1.0000
  C   C1696     1.0  0.55367  0.24372  0.52285  1.0000
  H   H3003     1.0  0.58071  0.05195  0.79472  1.0000
  H   H3004     1.0  0.54774  0.19402  0.94152  1.0000
  H   H3005     1.0  0.42370  0.22583  0.87281  1.0000
  H   H3006     1.0  0.52707  0.46621  0.65329  1.0000
  H   H3007     1.0  0.56930  0.03740  0.81298  1.0000
  H   H3008     1.0  0.40614  0.03679  0.70982  1.0000
  C   C1697     1.0  0.56979  0.48411  0.63554  1.0000
  C   C1698     1.0  0.44623  0.28972  0.72623  1.0000
  C   C1699     1.0  0.41073  0.17591  0.69763  1.0000
  H   H3009     1.0  0.42288  0.33227  0.59795  1.0000
  C   C1700     1.0  0.41212  0.27720  0.69801  1.0000
  H   H3010     1.0  0.51496  0.24688  0.51181  1.0000
  H   H3011     1.0  0.46464  0.04063  0.98162  1.0000
  C   C1701     1.0  0.41991  0.22319  0.84845  1.0000
  H   H3012     1.0  0.42749  0.26600  0.72592  1.0000
  C   C1702     1.0  0.43166  0.29290  0.71593  1.0000
  Fe  Fe187     1.0  0.40622  0.20891  0.80642  1.0000
  H   H3013     1.0  0.41333  0.34084  0.57882  1.0000
  C   C1703     1.0  0.40545  0.23554  0.59766  1.0000
  C   C1704     1.0  0.40948  0.19547  0.64056  1.0000
  C   C1705     1.0  0.41405  0.08878  0.89226  1.0000
  H   H3014     1.0  0.40521  0.17904  0.72529  1.0000
  H   H3015     1.0  0.54352  0.12444  0.98214  1.0000
  S   S366      1.0  0.40593  0.21028  0.77810  1.0000
  H   H3016     1.0  0.40241  0.11587  0.88222  1.0000
  H   H3017     1.0  0.40123  0.15862  0.72327  1.0000
  H   H3018     1.0  0.53537  0.23224  0.50385  1.0000
  H   H3019     1.0  0.40121  0.13371  0.76579  1.0000
  H   H3020     1.0  0.58005  0.03449  0.75588  1.0000
  C   C1706     1.0  0.45690  0.19332  0.97794  1.0000
  H   H3021     1.0  0.51485  0.29287  0.51723  1.0000
  H   H3022     1.0  0.42258  0.24449  0.82496  1.0000
  H   H3023     1.0  0.47349  0.49538  0.50181  1.0000
  H   H3024     1.0  0.41811  0.20455  0.64001  1.0000
  C   C1707     1.0  0.53789  0.26002  0.49890  1.0000
  H   H3025     1.0  0.50478  0.27688  0.51373  1.0000
  Fe  Fe188     1.0  0.40228  0.35599  0.67904  1.0000
  C   C1708     1.0  0.40610  0.18343  0.65909  1.0000
  H   H3026     1.0  0.40417  0.23544  0.61151  1.0000
  H   H3027     1.0  0.40831  0.16193  0.93858  1.0000
  H   H3028     1.0  0.46825  0.15720  0.98196  1.0000
  H   H3029     1.0  0.44589  0.20532  0.97841  1.0000
  C   C1709     1.0  0.40435  0.08305  0.79625  1.0000
  H   H3030     1.0  0.41986  0.27261  0.66365  1.0000
  H   H3031     1.0  0.41765  0.99836  0.99217  1.0000
  H   H3032     1.0  0.41454  0.48160  0.50550  1.0000
  C   C1710     1.0  0.52701  0.24586  0.50094  1.0000
  H   H3033     1.0  0.50646  0.18464  0.98604  1.0000
  H   H3034     1.0  0.39930  0.19695  0.57499  1.0000
  H   H3035     1.0  0.40503  0.48466  0.59169  1.0000
  H   H3036     1.0  0.40446  0.10309  0.77202  1.0000
  H   H3037     1.0  0.40476  0.04869  0.76617  1.0000
  C   C1711     1.0  0.47037  0.48975  0.66281  1.0000
  C   C1712     1.0  0.59475  0.06335  0.74391  1.0000
  H   H3038     1.0  0.59460  0.07755  0.73737  1.0000
  H   H3039     1.0  0.39943  0.13241  0.94689  1.0000
  H   H3040     1.0  0.40180  0.41923  0.60443  1.0000
  H   H3041     1.0  0.40486  0.13486  0.90672  1.0000
  H   H3042     1.0  0.47490  0.11820  0.99252  1.0000
  H   H3043     1.0  0.41169  0.15023  0.91504  1.0000
  H   H3044     1.0  0.59697  0.05573  0.73347  1.0000
  H   H3045     1.0  0.40451  0.25407  0.75022  1.0000
  S   S367      1.0  0.40405  0.08734  0.95658  1.0000
  H   H3046     1.0  0.49267  0.49452  0.67965  1.0000
  N   N98       1.0  0.40400  0.28126  0.71626  1.0000
  H   H3047     1.0  0.57965  0.99692  0.89700  1.0000
  H   H3048     1.0  0.40392  0.13456  0.85510  1.0000
  Fe  Fe189     1.0  0.39906  0.44806  0.51644  1.0000
  H   H3049     1.0  0.40380  0.18386  0.95672  1.0000
  H   H3050     1.0  0.40104  0.31584  0.60465  1.0000
  H   H3051     1.0  0.40022  0.18805  0.55612  1.0000
  C   C1713     1.0  0.40047  0.12449  0.80965  1.0000
  H   H3052     1.0  0.49924  0.00438  0.89761  1.0000
  C   C1714     1.0  0.40407  0.49306  0.50732  1.0000
  C   C1715     1.0  0.51451  0.17144  0.98530  1.0000
  C   C1716     1.0  0.40227  0.20203  0.88522  1.0000
  H   H3053     1.0  0.39986  0.06339  0.82053  1.0000
  H   H3054     1.0  0.48081  0.16563  0.99151  1.0000
  S   S368      1.0  0.40146  0.05545  0.99257  1.0000
  H   H3055     1.0  0.40280  0.47087  0.57890  1.0000
  H   H3056     1.0  0.40106  0.01245  0.80700  1.0000
  C   C1717     1.0  0.55606  0.21039  0.99126  1.0000
  H   H3057     1.0  0.42766  0.49344  0.56959  1.0000
  H   H3058     1.0  0.57072  0.15871  0.98898  1.0000
  C   C1718     1.0  0.40511  0.11989  0.99070  1.0000
  C   C1719     1.0  0.39877  0.27724  0.68696  1.0000
  H   H3059     1.0  0.57542  0.18565  0.99307  1.0000
  H   H3060     1.0  0.39929  0.19296  0.89841  1.0000
  H   H3061     1.0  0.40024  0.30949  0.70445  1.0000
  C   C1720     1.0  0.45698  0.83749  0.07875  1.0000
  C   C1721     1.0  0.53024  0.89496  0.02704  1.0000
  H   H3062     1.0  0.48536  0.52256  0.29903  1.0000
  H   H3063     1.0  0.56801  0.67394  0.45630  1.0000
  S   S369      1.0  0.57077  0.53279  0.28281  1.0000
  H   H3064     1.0  0.55949  0.96623  0.01515  1.0000
  Fe  Fe190     1.0  0.51466  0.97985  0.12151  1.0000
  S   S370      1.0  0.51033  0.95878  0.14634  1.0000
  C   C1722     1.0  0.40991  0.76802  0.12272  1.0000
  Fe  Fe191     1.0  0.50293  0.95995  0.10018  1.0000
  S   S371      1.0  0.49882  0.93697  0.12319  1.0000
  S   S372      1.0  0.49881  0.95856  0.07364  1.0000
  Fe  Fe192     1.0  0.48534  0.95811  0.13891  1.0000
  S   S373      1.0  0.46048  0.95406  0.16009  1.0000
  Fe  Fe193     1.0  0.52400  0.93937  0.12868  1.0000
  S   S374      1.0  0.54465  0.91685  0.13981  1.0000
  S   S375      1.0  0.48797  0.98125  0.11554  1.0000
  S   S376      1.0  0.52983  0.96043  0.10408  1.0000
  Fe  Fe194     1.0  0.46521  0.79155  0.15827  1.0000
  S   S377      1.0  0.44061  0.78111  0.17231  1.0000
  S   S378      1.0  0.46885  0.81561  0.16508  1.0000
  Fe  Fe195     1.0  0.47750  0.76579  0.13374  1.0000
  S   S379      1.0  0.45376  0.75309  0.14569  1.0000
  S   S380      1.0  0.49781  0.75531  0.11133  1.0000
  Fe  Fe196     1.0  0.43825  0.78104  0.14512  1.0000
  H   H3065     1.0  0.56775  0.50794  0.31706  1.0000
  Fe  Fe197     1.0  0.45844  0.75421  0.17177  1.0000
  S   S381      1.0  0.45521  0.73114  0.19508  1.0000
  S   S382      1.0  0.46143  0.79378  0.13091  1.0000
  S   S383      1.0  0.48361  0.76456  0.15995  1.0000
  Fe  Fe198     1.0  0.56867  0.84767  0.08471  1.0000
  S   S384      1.0  0.54568  0.83417  0.09358  1.0000
  S   S385      1.0  0.58205  0.85056  0.10459  1.0000
  Fe  Fe199     1.0  0.56857  0.85411  0.04548  1.0000
  S   S386      1.0  0.54557  0.84093  0.05096  1.0000
  Fe  Fe200     1.0  0.53405  0.85578  0.07297  1.0000
  S   S387      1.0  0.50613  0.87100  0.07965  1.0000
  Fe  Fe201     1.0  0.55945  0.82050  0.07102  1.0000
  S   S388      1.0  0.56387  0.79111  0.07355  1.0000
  S   S389      1.0  0.55588  0.87064  0.06600  1.0000
  S   S390      1.0  0.58362  0.83228  0.06369  1.0000
  Fe  Fe202     1.0  0.43876  0.90301  0.02787  1.0000
  C   C1723     1.0  0.40068  0.76037  0.11507  1.0000
  S   S391      1.0  0.46480  0.88502  0.01880  1.0000
  H   H3066     1.0  0.57691  0.69303  0.48787  1.0000
  Fe  Fe203     1.0  0.42178  0.92877  0.05253  1.0000
  S   S392      1.0  0.42484  0.94390  0.07139  1.0000
  H   H3067     1.0  0.58505  0.51025  0.41917  1.0000
  S   S393      1.0  0.43551  0.93249  0.02380  1.0000
  H   H3068     1.0  0.54187  0.50515  0.34262  1.0000
  Fe  Fe204     1.0  0.42715  0.72910  0.29141  1.0000
  S   S394      1.0  0.44158  0.70052  0.29598  1.0000
  S   S395      1.0  0.43907  0.75022  0.27038  1.0000
  Fe  Fe205     1.0  0.43106  0.70053  0.32498  1.0000
  S   S396      1.0  0.44733  0.68210  0.34455  1.0000
  Fe  Fe206     1.0  0.41544  0.69480  0.29623  1.0000
  C   C1724     1.0  0.49561  0.49785  0.31664  1.0000
  Fe  Fe207     1.0  0.48171  0.63905  0.44290  1.0000
  S   S397      1.0  0.45767  0.66129  0.44023  1.0000
  S   S398      1.0  0.48358  0.61159  0.43880  1.0000
  Fe  Fe208     1.0  0.50016  0.66033  0.45643  1.0000
  S   S399      1.0  0.47787  0.68453  0.45409  1.0000
  S   S400      1.0  0.52405  0.65524  0.46915  1.0000
  Fe  Fe209     1.0  0.45970  0.66530  0.46614  1.0000
  H   H3069     1.0  0.40678  0.70263  0.18724  1.0000
  Fe  Fe210     1.0  0.47753  0.67871  0.42813  1.0000
  S   S401      1.0  0.47176  0.70105  0.40452  1.0000
  S   S402      1.0  0.48182  0.64149  0.47016  1.0000
  S   S403      1.0  0.50179  0.65613  0.42906  1.0000
  Fe  Fe211     1.0  0.45339  0.57568  0.33117  1.0000
  S   S404      1.0  0.45457  0.54700  0.34535  1.0000
  S   S405      1.0  0.44107  0.59193  0.30780  1.0000
  Fe  Fe212     1.0  0.46939  0.58376  0.35823  1.0000
  S   S406      1.0  0.47169  0.55604  0.37470  1.0000
  S   S407      1.0  0.47829  0.60632  0.36277  1.0000
  Fe  Fe213     1.0  0.48171  0.54750  0.34858  1.0000
  S   S408      1.0  0.50565  0.52445  0.34803  1.0000
  Fe  Fe214     1.0  0.44464  0.55799  0.37012  1.0000
  S   S409      1.0  0.42216  0.54997  0.39216  1.0000
  S   S410      1.0  0.48146  0.57529  0.33225  1.0000
  S   S411      1.0  0.44141  0.58653  0.35574  1.0000
  H   H3070     1.0  0.43389  0.64616  0.37859  1.0000
  H   H3071     1.0  0.45794  0.99124  0.02110  1.0000
  H   H3072     1.0  0.41917  0.88763  0.21040  1.0000
  H   H3073     1.0  0.55394  0.53701  0.34863  1.0000
  H   H3074     1.0  0.43916  0.99116  0.13108  1.0000
  C   C1725     1.0  0.42687  0.53223  0.46686  1.0000
  H   H3075     1.0  0.48084  0.96361  0.02590  1.0000
  H   H3076     1.0  0.40688  0.52485  0.35336  1.0000
  H   H3077     1.0  0.44886  0.82831  0.08827  1.0000
  H   H3078     1.0  0.53826  0.88434  0.03566  1.0000
  H   H3079     1.0  0.57511  0.55591  0.33816  1.0000
  H   H3080     1.0  0.54487  0.51887  0.38824  1.0000
  H   H3081     1.0  0.49232  0.74155  0.37795  1.0000
  H   H3082     1.0  0.43121  0.61613  0.37922  1.0000
  H   H3083     1.0  0.47125  0.83056  0.07700  1.0000
  H   H3084     1.0  0.56533  0.52525  0.39807  1.0000
  C   C1726     1.0  0.53232  0.81198  0.02666  1.0000
  H   H3085     1.0  0.42001  0.85547  0.03663  1.0000
  H   H3086     1.0  0.42907  0.60015  0.41158  1.0000
  C   C1727     1.0  0.48130  0.61031  0.41790  1.0000
  C   C1728     1.0  0.48196  0.62493  0.40362  1.0000
  C   C1729     1.0  0.48089  0.62347  0.38685  1.0000
  C   C1730     1.0  0.47873  0.60755  0.38432  1.0000
  C   C1731     1.0  0.47773  0.59295  0.39870  1.0000
  C   C1732     1.0  0.47928  0.59429  0.41539  1.0000
  H   H3087     1.0  0.48369  0.63721  0.40548  1.0000
  H   H3088     1.0  0.48185  0.63465  0.37573  1.0000
  H   H3089     1.0  0.47617  0.58058  0.39686  1.0000
  H   H3090     1.0  0.47901  0.58294  0.42639  1.0000
  C   C1733     1.0  0.45060  0.68783  0.36304  1.0000
  C   C1734     1.0  0.45806  0.67419  0.37585  1.0000
  C   C1735     1.0  0.46335  0.67816  0.38945  1.0000
  C   C1736     1.0  0.46142  0.69586  0.39020  1.0000
  C   C1737     1.0  0.45279  0.70954  0.37812  1.0000
  C   C1738     1.0  0.44743  0.70554  0.36451  1.0000
  H   H3091     1.0  0.46020  0.66048  0.37495  1.0000
  H   H3092     1.0  0.46972  0.66755  0.39884  1.0000
  H   H3093     1.0  0.45103  0.72328  0.37879  1.0000
  H   H3094     1.0  0.44165  0.71618  0.35469  1.0000
  C   C1739     1.0  0.51924  0.68559  0.48188  1.0000
  C   C1740     1.0  0.49552  0.87521  0.06204  1.0000
  C   C1741     1.0  0.49933  0.86273  0.05143  1.0000
  C   C1742     1.0  0.49035  0.86602  0.03764  1.0000
  C   C1743     1.0  0.47733  0.88162  0.03473  1.0000
  C   C1744     1.0  0.47364  0.89413  0.04526  1.0000
  C   C1745     1.0  0.48271  0.89093  0.05891  1.0000
  H   H3095     1.0  0.50865  0.85025  0.05425  1.0000
  H   H3096     1.0  0.49301  0.85619  0.02970  1.0000
  H   H3097     1.0  0.46364  0.90623  0.04298  1.0000
  H   H3098     1.0  0.47966  0.90057  0.06716  1.0000
  C   C1746     1.0  0.45184  0.73650  0.21580  1.0000
  C   C1747     1.0  0.44868  0.72343  0.23129  1.0000
  C   C1748     1.0  0.44458  0.72768  0.24803  1.0000
  C   C1749     1.0  0.44440  0.74483  0.24939  1.0000
  C   C1750     1.0  0.44832  0.75773  0.23391  1.0000
  C   C1751     1.0  0.45182  0.75364  0.21710  1.0000
  H   H3099     1.0  0.44919  0.71004  0.23035  1.0000
  H   H3100     1.0  0.44159  0.71765  0.25984  1.0000
  H   H3101     1.0  0.44837  0.77097  0.23490  1.0000
  H   H3102     1.0  0.45459  0.76371  0.20520  1.0000
  C   C1752     1.0  0.51560  0.76605  0.10074  1.0000
  C   C1753     1.0  0.51447  0.78382  0.10100  1.0000
  C   C1754     1.0  0.52912  0.79186  0.09231  1.0000
  C   C1755     1.0  0.54496  0.78197  0.08380  1.0000
  C   C1756     1.0  0.54599  0.76428  0.08357  1.0000
  C   C1757     1.0  0.53130  0.75643  0.09183  1.0000
  H   H3103     1.0  0.50226  0.79132  0.10768  1.0000
  H   H3104     1.0  0.52823  0.80560  0.09228  1.0000
  H   H3105     1.0  0.55815  0.75660  0.07701  1.0000
  H   H3106     1.0  0.53219  0.74272  0.09159  1.0000
  C   C1758     1.0  0.40518  0.59105  0.42666  1.0000
  H   H3107     1.0  0.53442  0.82518  0.01837  1.0000
  H   H3108     1.0  0.51365  0.53330  0.38511  1.0000
  C   C1759     1.0  0.42951  0.64458  0.42752  1.0000
  C   C1760     1.0  0.58905  0.80292  0.02184  1.0000
  H   H3109     1.0  0.52611  0.93085  0.05418  1.0000
  H   H3110     1.0  0.42433  0.76471  0.12008  1.0000
  C   C1761     1.0  0.39991  0.56602  0.41873  1.0000
  S   S412      1.0  0.58239  0.86717  0.01849  1.0000
  C   C1762     1.0  0.40389  0.98940  0.04978  1.0000
  C   C1763     1.0  0.42409  0.85457  0.12046  1.0000
  C   C1764     1.0  0.43972  0.84287  0.16999  1.0000
  C   C1765     1.0  0.44789  0.82527  0.17651  1.0000
  C   C1766     1.0  0.43892  0.81515  0.19176  1.0000
  C   C1767     1.0  0.56108  0.93780  0.04439  1.0000
  H   H3111     1.0  0.44662  0.85076  0.15825  1.0000
  H   H3112     1.0  0.44529  0.80162  0.19702  1.0000
  C   C1768     1.0  0.55386  0.89803  0.13046  1.0000
  C   C1769     1.0  0.57019  0.88755  0.13398  1.0000
  C   C1770     1.0  0.57861  0.87294  0.12608  1.0000
  C   C1771     1.0  0.57070  0.86865  0.11465  1.0000
  C   C1772     1.0  0.55405  0.87881  0.11145  1.0000
  C   C1773     1.0  0.54559  0.89353  0.11940  1.0000
  H   H3113     1.0  0.57656  0.89098  0.14258  1.0000
  H   H3114     1.0  0.40289  0.64292  0.28221  1.0000
  H   H3115     1.0  0.54769  0.87532  0.10293  1.0000
  H   H3116     1.0  0.53280  0.90146  0.11694  1.0000
  C   C1774     1.0  0.44656  0.94345  0.15476  1.0000
  C   C1775     1.0  0.44835  0.94240  0.13720  1.0000
  C   C1776     1.0  0.43675  0.93455  0.13296  1.0000
  C   C1777     1.0  0.42340  0.92753  0.14621  1.0000
  C   C1778     1.0  0.42509  0.68867  0.20557  1.0000
  C   C1779     1.0  0.43324  0.93635  0.16812  1.0000
  H   H3117     1.0  0.45844  0.94799  0.12680  1.0000
  H   H3118     1.0  0.43796  0.93421  0.11926  1.0000
  H   H3119     1.0  0.43176  0.93723  0.18174  1.0000
  C   C1780     1.0  0.47846  0.95341  0.07385  1.0000
  C   C1781     1.0  0.47778  0.94435  0.06132  1.0000
  C   C1782     1.0  0.46150  0.94109  0.06057  1.0000
  C   C1783     1.0  0.44574  0.94702  0.07226  1.0000
  C   C1784     1.0  0.44646  0.95600  0.08484  1.0000
  C   C1785     1.0  0.46276  0.95900  0.08577  1.0000
  H   H3120     1.0  0.48989  0.93984  0.05215  1.0000
  H   H3121     1.0  0.46110  0.93417  0.05085  1.0000
  H   H3122     1.0  0.43435  0.96072  0.09388  1.0000
  H   H3123     1.0  0.46307  0.96611  0.09540  1.0000
  C   C1786     1.0  0.52861  0.88763  0.01191  1.0000
  H   H3124     1.0  0.55262  0.72216  0.43771  1.0000
  C   C1787     1.0  0.59410  0.78401  0.99952  1.0000
  C   C1788     1.0  0.55325  0.53096  0.30157  1.0000
  C   C1789     1.0  0.53682  0.54298  0.30102  1.0000
  C   C1790     1.0  0.52227  0.54142  0.31545  1.0000
  C   C1791     1.0  0.52407  0.52777  0.33048  1.0000
  C   C1792     1.0  0.54056  0.51586  0.33112  1.0000
  C   C1793     1.0  0.55517  0.51742  0.31669  1.0000
  H   H3125     1.0  0.53527  0.55340  0.28927  1.0000
  H   H3126     1.0  0.50955  0.55047  0.31466  1.0000
  C   C1794     1.0  0.42090  0.64567  0.48822  1.0000
  C   C1795     1.0  0.59687  0.79023  0.10486  1.0000
  H   H3127     1.0  0.54218  0.88347  0.00421  1.0000
  C   C1796     1.0  0.58026  0.85976  0.00054  1.0000
  C   C1797     1.0  0.58703  0.52691  0.34200  1.0000
  H   H3128     1.0  0.55727  0.84889  0.01492  1.0000
  H   H3129     1.0  0.57549  0.50247  0.39610  1.0000
  H   H3130     1.0  0.41786  0.97487  0.15278  1.0000
  C   C1798     1.0  0.57558  0.50184  0.36247  1.0000
  H   H3131     1.0  0.50586  0.87350  0.99674  1.0000
  S   S413      1.0  0.41868  0.72983  0.32051  1.0000
  C   C1799     1.0  0.56672  0.85093  0.00249  1.0000
  C   C1800     1.0  0.56392  0.79603  0.01450  1.0000
  H   H3132     1.0  0.55629  0.97526  0.12203  1.0000
  H   H3133     1.0  0.43839  0.57765  0.39319  1.0000
  C   C1801     1.0  0.48685  0.74639  0.36568  1.0000
  H   H3134     1.0  0.52111  0.50539  0.31013  1.0000
  H   H3135     1.0  0.41816  0.70151  0.24519  1.0000
  H   H3136     1.0  0.56887  0.90302  0.05196  1.0000
  C   C1802     1.0  0.42390  0.64506  0.37186  1.0000
  H   H3137     1.0  0.55949  0.78648  0.00959  1.0000
  H   H3138     1.0  0.55058  0.99519  0.08771  1.0000
  C   C1803     1.0  0.42235  0.58701  0.30393  1.0000
  H   H3139     1.0  0.45762  0.52047  0.44673  1.0000
  H   H3140     1.0  0.49584  0.53904  0.41653  1.0000
  H   H3141     1.0  0.44482  0.70925  0.17763  1.0000
  H   H3142     1.0  0.56611  0.81642  0.18398  1.0000
  H   H3143     1.0  0.58240  0.93875  0.06439  1.0000
  H   H3144     1.0  0.44280  0.53923  0.48887  1.0000
  C   C1804     1.0  0.41820  0.70468  0.19125  1.0000
  C   C1805     1.0  0.53185  0.91904  0.06361  1.0000
  H   H3145     1.0  0.55662  0.93082  0.03660  1.0000
  H   H3146     1.0  0.44549  0.62574  0.24213  1.0000
  H   H3147     1.0  0.46729  0.99249  0.99814  1.0000
  H   H3148     1.0  0.42950  0.97707  0.00070  1.0000
  N   N99       1.0  0.47185  0.63787  0.30408  1.0000
  C   C1806     1.0  0.45453  0.63154  0.31007  1.0000
  C   C1807     1.0  0.48717  0.62307  0.29843  1.0000
  C   C1808     1.0  0.47516  0.64243  0.31991  1.0000
  C   C1809     1.0  0.43782  0.64483  0.31758  1.0000
  C   C1810     1.0  0.49327  0.64764  0.31721  1.0000
  C   C1811     1.0  0.48322  0.61003  0.28941  1.0000
  C   C1812     1.0  0.50037  0.59774  0.28191  1.0000
  C   C1813     1.0  0.42088  0.63796  0.32064  1.0000
  C   C1814     1.0  0.49617  0.64939  0.33473  1.0000
  H   H3149     1.0  0.45589  0.61909  0.32062  1.0000
  H   H3150     1.0  0.45133  0.62774  0.29913  1.0000
  H   H3151     1.0  0.49858  0.62870  0.28939  1.0000
  H   H3152     1.0  0.49238  0.61431  0.31023  1.0000
  H   H3153     1.0  0.47410  0.63106  0.33154  1.0000
  H   H3154     1.0  0.46475  0.65388  0.32406  1.0000
  H   H3155     1.0  0.43871  0.64667  0.33052  1.0000
  H   H3156     1.0  0.43630  0.65803  0.30842  1.0000
  H   H3157     1.0  0.49357  0.66070  0.30778  1.0000
  H   H3158     1.0  0.50472  0.63755  0.31203  1.0000
  H   H3159     1.0  0.47476  0.60142  0.29939  1.0000
  H   H3160     1.0  0.56966  0.50074  0.35180  1.0000
  H   H3161     1.0  0.50764  0.58999  0.29260  1.0000
  H   H3162     1.0  0.49702  0.58818  0.27614  1.0000
  H   H3163     1.0  0.40918  0.64724  0.32680  1.0000
  C   C1815     1.0  0.41705  0.84516  0.03155  1.0000
  H   H3164     1.0  0.42198  0.62451  0.32950  1.0000
  H   H3165     1.0  0.48530  0.65968  0.34044  1.0000
  H   H3166     1.0  0.49660  0.63645  0.34445  1.0000
  H   H3167     1.0  0.50911  0.65322  0.33237  1.0000
  N   N100      1.0  0.55547  0.79966  0.14346  1.0000
  C   C1816     1.0  0.54973  0.78212  0.14840  1.0000
  C   C1817     1.0  0.56461  0.80033  0.15741  1.0000
  C   C1818     1.0  0.53916  0.81459  0.14227  1.0000
  C   C1819     1.0  0.56833  0.80170  0.12564  1.0000
  H   H3168     1.0  0.54029  0.81032  0.17652  1.0000
  C   C1820     1.0  0.54205  0.77808  0.13437  1.0000
  C   C1821     1.0  0.54176  0.83354  0.14099  1.0000
  H   H3169     1.0  0.40386  0.63486  0.39354  1.0000
  H   H3170     1.0  0.47655  0.53538  0.41157  1.0000
  H   H3171     1.0  0.44601  0.57080  0.47577  1.0000
  C   C1822     1.0  0.53634  0.76020  0.14117  1.0000
  C   C1823     1.0  0.52469  0.84765  0.13894  1.0000
  H   H3172     1.0  0.53916  0.78150  0.16081  1.0000
  H   H3173     1.0  0.56095  0.77083  0.15164  1.0000
  H   H3174     1.0  0.57598  0.78872  0.15882  1.0000
  H   H3175     1.0  0.57073  0.81224  0.15318  1.0000
  H   H3176     1.0  0.52794  0.81182  0.15372  1.0000
  H   H3177     1.0  0.53414  0.81534  0.13035  1.0000
  H   H3178     1.0  0.56154  0.80286  0.11481  1.0000
  H   H3179     1.0  0.57302  0.81434  0.12250  1.0000
  H   H3180     1.0  0.40855  0.84018  0.06771  1.0000
  C   C1824     1.0  0.41136  0.66227  0.40441  1.0000
  H   H3181     1.0  0.53015  0.78847  0.13143  1.0000
  H   H3182     1.0  0.55210  0.77731  0.12176  1.0000
  H   H3183     1.0  0.55232  0.83725  0.12938  1.0000
  H   H3184     1.0  0.54552  0.83438  0.15306  1.0000
  H   H3185     1.0  0.40012  0.97704  0.05864  1.0000
  H   H3186     1.0  0.59711  0.69560  0.47220  1.0000
  H   H3187     1.0  0.44993  0.64448  0.24730  1.0000
  C   C1825     1.0  0.52521  0.66710  0.48445  1.0000
  C   C1826     1.0  0.42075  0.59082  0.41341  1.0000
  H   H3188     1.0  0.41556  0.78474  0.23307  1.0000
  C   C1827     1.0  0.45972  0.96769  0.01172  1.0000
  H   H3189     1.0  0.41485  0.81463  0.21205  1.0000
  H   H3190     1.0  0.53087  0.75755  0.13101  1.0000
  H   H3191     1.0  0.54791  0.74918  0.14383  1.0000
  H   H3192     1.0  0.52578  0.76037  0.15352  1.0000
  H   H3193     1.0  0.51347  0.84451  0.15018  1.0000
  H   H3194     1.0  0.52689  0.86084  0.13879  1.0000
  H   H3195     1.0  0.52108  0.84855  0.12619  1.0000
  H   H3196     1.0  0.40441  0.56018  0.34259  1.0000
  H   H3197     1.0  0.41407  0.67974  0.37058  1.0000
  H   H3198     1.0  0.49161  0.52573  0.31785  1.0000
  H   H3199     1.0  0.57801  0.76236  0.02765  1.0000
  C   C1828     1.0  0.41558  0.56571  0.40551  1.0000
  Fe  Fe215     1.0  0.40875  0.93383  0.01888  1.0000
  C   C1829     1.0  0.43046  0.65142  0.23063  1.0000
  C   C1830     1.0  0.43932  0.63898  0.24553  1.0000
  N   N101      1.0  0.40249  0.81394  0.07743  1.0000
  H   H3200     1.0  0.52240  0.81417  0.03907  1.0000
  H   H3201     1.0  0.43095  0.67520  0.23813  1.0000
  H   H3202     1.0  0.43607  0.69201  0.20937  1.0000
  H   H3203     1.0  0.58164  0.92778  0.11317  1.0000
  S   S414      1.0  0.40046  0.95467  0.99552  1.0000
  H   H3204     1.0  0.44103  0.65307  0.21837  1.0000
  H   H3205     1.0  0.43122  0.51756  0.46816  1.0000
  H   H3206     1.0  0.57466  0.93949  0.03685  1.0000
  C   C1831     1.0  0.58083  0.93509  0.09933  1.0000
  C   C1832     1.0  0.45209  0.53475  0.47690  1.0000
  C   C1833     1.0  0.45609  0.98829  0.00894  1.0000
  N   N102      1.0  0.45717  0.85281  0.10353  1.0000
  H   H3207     1.0  0.47287  0.74466  0.36904  1.0000
  C   C1834     1.0  0.45725  0.87074  0.10646  1.0000
  C   C1835     1.0  0.47531  0.84078  0.10456  1.0000
  C   C1836     1.0  0.44360  0.84398  0.11785  1.0000
  C   C1837     1.0  0.52238  0.69493  0.49296  1.0000
  H   H3208     1.0  0.44836  0.50704  0.48720  1.0000
  C   C1838     1.0  0.48334  0.84105  0.12016  1.0000
  C   C1839     1.0  0.44447  0.88725  0.09782  1.0000
  C   C1840     1.0  0.44321  0.90359  0.10484  1.0000
  H   H3209     1.0  0.42033  0.53629  0.44068  1.0000
  H   H3210     1.0  0.45461  0.70504  0.48861  1.0000
  C   C1841     1.0  0.49771  0.82437  0.12415  1.0000
  C   C1842     1.0  0.41540  0.64452  0.41794  1.0000
  H   H3211     1.0  0.45870  0.96352  0.99998  1.0000
  H   H3212     1.0  0.45464  0.87032  0.12097  1.0000
  H   H3213     1.0  0.47065  0.87392  0.10070  1.0000
  H   H3214     1.0  0.48526  0.84428  0.09209  1.0000
  H   H3215     1.0  0.47482  0.82673  0.10549  1.0000
  S   S415      1.0  0.41332  0.90434  0.02022  1.0000
  H   H3216     1.0  0.44715  0.84080  0.13102  1.0000
  C   C1843     1.0  0.57315  0.90838  0.06121  1.0000
  C   C1844     1.0  0.40480  0.64755  0.38363  1.0000
  H   H3217     1.0  0.41762  0.97475  0.13037  1.0000
  C   C1845     1.0  0.58534  0.78668  0.12363  1.0000
  H   H3218     1.0  0.47313  0.84206  0.13255  1.0000
  H   H3219     1.0  0.48956  0.85275  0.11672  1.0000
  H   H3220     1.0  0.44951  0.89052  0.08323  1.0000
  H   H3221     1.0  0.40750  0.61414  0.30144  1.0000
  H   H3222     1.0  0.43231  0.91447  0.10031  1.0000
  H   H3223     1.0  0.44009  0.90052  0.11958  1.0000
  H   H3224     1.0  0.45588  0.90833  0.09978  1.0000
  H   H3225     1.0  0.42733  0.86900  0.19974  1.0000
  C   C1846     1.0  0.55908  0.98646  0.12514  1.0000
  C   C1847     1.0  0.42235  0.85009  0.17832  1.0000
  H   H3226     1.0  0.41614  0.80048  0.09917  1.0000
  H   H3227     1.0  0.42423  0.65523  0.35923  1.0000
  H   H3228     1.0  0.50910  0.82379  0.11256  1.0000
  H   H3229     1.0  0.50238  0.82468  0.13588  1.0000
  H   H3230     1.0  0.49225  0.81220  0.12749  1.0000
  C   C1848     1.0  0.42602  0.57807  0.40295  1.0000
  H   H3231     1.0  0.58539  0.53741  0.37232  1.0000
  H   H3232     1.0  0.40779  0.62505  0.48884  1.0000
  H   H3233     1.0  0.51274  0.69278  0.47095  1.0000
  N   N103      1.0  0.57635  0.52103  0.36046  1.0000
  C   C1849     1.0  0.54339  0.92437  0.07332  1.0000
  H   H3234     1.0  0.58197  0.81653  0.01629  1.0000
  H   H3235     1.0  0.45025  0.96194  0.02327  1.0000
  C   C1850     1.0  0.58326  0.77221  0.03126  1.0000
  C   C1851     1.0  0.40427  0.83044  0.06301  1.0000
  C   C1852     1.0  0.41368  0.53861  0.45419  1.0000
  C   C1853     1.0  0.42168  0.82249  0.20026  1.0000
  H   H3236     1.0  0.43169  0.67735  0.19882  1.0000
  C   C1854     1.0  0.40007  0.67981  0.37797  1.0000
  C   C1855     1.0  0.41321  0.83984  0.19337  1.0000
  S   S416      1.0  0.43679  0.67244  0.48834  1.0000
  H   H3237     1.0  0.44228  0.64606  0.41787  1.0000
  H   H3238     1.0  0.59553  0.64859  0.49012  1.0000
  H   H3239     1.0  0.42267  0.56454  0.46690  1.0000
  N   N104      1.0  0.58713  0.67311  0.47158  1.0000
  C   C1856     1.0  0.58565  0.52312  0.37362  1.0000
  H   H3240     1.0  0.50747  0.90946  0.06951  1.0000
  H   H3241     1.0  0.40043  0.69853  0.39372  1.0000
  H   H3242     1.0  0.56658  0.49703  0.37508  1.0000
  H   H3243     1.0  0.53590  0.95692  0.05235  1.0000
  H   H3244     1.0  0.48026  0.94438  0.01852  1.0000
  C   C1857     1.0  0.52495  0.53947  0.37683  1.0000
  H   H3245     1.0  0.53923  0.95792  0.02034  1.0000
  C   C1858     1.0  0.54924  0.95688  0.04348  1.0000
  H   H3246     1.0  0.41133  0.66723  0.24847  1.0000
  H   H3247     1.0  0.46360  0.54104  0.47427  1.0000
  H   H3248     1.0  0.57421  0.77510  0.04386  1.0000
  H   H3249     1.0  0.54668  0.78785  0.04057  1.0000
  C   C1859     1.0  0.57024  0.70096  0.45229  1.0000
  C   C1860     1.0  0.43597  0.56097  0.45806  1.0000
  C   C1861     1.0  0.40824  0.56664  0.29767  1.0000
  C   C1862     1.0  0.47854  0.95912  0.01488  1.0000
  H   H3250     1.0  0.57519  0.79268  0.18962  1.0000
  H   H3251     1.0  0.52003  0.91464  0.99757  1.0000
  N   N105      1.0  0.47546  0.88328  0.17035  1.0000
  C   C1863     1.0  0.48291  0.88225  0.15109  1.0000
  C   C1864     1.0  0.48433  0.86653  0.18170  1.0000
  C   C1865     1.0  0.45554  0.88508  0.17432  1.0000
  C   C1866     1.0  0.47925  0.89915  0.17435  1.0000
  C   C1867     1.0  0.49893  0.90115  0.16840  1.0000
  C   C1868     1.0  0.47598  0.89866  0.13720  1.0000
  C   C1869     1.0  0.44579  0.88649  0.19370  1.0000
  C   C1870     1.0  0.47817  0.84927  0.18306  1.0000
  C   C1871     1.0  0.48960  0.83291  0.19289  1.0000
  C   C1872     1.0  0.50147  0.91597  0.17560  1.0000
  C   C1873     1.0  0.48726  0.89793  0.11852  1.0000
  C   C1874     1.0  0.42689  0.88338  0.19788  1.0000
  H   H3252     1.0  0.47984  0.87065  0.14826  1.0000
  H   H3253     1.0  0.49772  0.87981  0.14811  1.0000
  H   H3254     1.0  0.49903  0.86386  0.17657  1.0000
  H   H3255     1.0  0.48250  0.86820  0.19550  1.0000
  H   H3256     1.0  0.45212  0.87407  0.17075  1.0000
  H   H3257     1.0  0.44926  0.89736  0.16575  1.0000
  H   H3258     1.0  0.47080  0.91181  0.16847  1.0000
  H   H3259     1.0  0.47528  0.89862  0.18892  1.0000
  H   H3260     1.0  0.50296  0.90460  0.15367  1.0000
  H   H3261     1.0  0.50814  0.88872  0.17334  1.0000
  H   H3262     1.0  0.46202  0.89904  0.13698  1.0000
  H   H3263     1.0  0.47633  0.91127  0.14016  1.0000
  H   H3264     1.0  0.44479  0.90008  0.19551  1.0000
  H   H3265     1.0  0.45288  0.87674  0.20365  1.0000
  H   H3266     1.0  0.46413  0.85000  0.19053  1.0000
  H   H3267     1.0  0.47913  0.84703  0.16972  1.0000
  H   H3268     1.0  0.50371  0.83093  0.18550  1.0000
  H   H3269     1.0  0.48887  0.83436  0.20652  1.0000
  H   H3270     1.0  0.56590  0.64739  0.47288  1.0000
  H   H3271     1.0  0.49279  0.92886  0.17070  1.0000
  H   H3272     1.0  0.49823  0.91287  0.19037  1.0000
  H   H3273     1.0  0.51555  0.91741  0.17106  1.0000
  H   H3274     1.0  0.48686  0.88581  0.11453  1.0000
  H   H3275     1.0  0.48202  0.90984  0.10886  1.0000
  H   H3276     1.0  0.50133  0.89793  0.11794  1.0000
  H   H3277     1.0  0.58921  0.64005  0.46352  1.0000
  H   H3278     1.0  0.48294  0.68321  0.49204  1.0000
  Fe  Fe216     1.0  0.59781  0.51477  0.28384  1.0000
  H   H3279     1.0  0.40772  0.55293  0.45337  1.0000
  H   H3280     1.0  0.43085  0.97693  0.04097  1.0000
  H   H3281     1.0  0.40810  0.78149  0.20605  1.0000
  H   H3282     1.0  0.58615  0.97329  0.12725  1.0000
  C   C1875     1.0  0.41939  0.80631  0.08465  1.0000
  H   H3283     1.0  0.58945  0.79049  0.09484  1.0000
  H   H3284     1.0  0.44026  0.86249  0.08418  1.0000
  C   C1876     1.0  0.41754  0.82762  0.04540  1.0000
  H   H3285     1.0  0.46890  0.50914  0.47110  1.0000
  H   H3286     1.0  0.46883  0.55653  0.43175  1.0000
  C   C1877     1.0  0.43338  0.79115  0.07675  1.0000
  C   C1878     1.0  0.45036  0.78643  0.08402  1.0000
  H   H3287     1.0  0.43184  0.64226  0.47741  1.0000
  H   H3288     1.0  0.51814  0.70930  0.49055  1.0000
  C   C1879     1.0  0.42255  0.56985  0.30260  1.0000
  S   S417      1.0  0.40823  0.91940  0.13977  1.0000
  H   H3289     1.0  0.41438  0.81797  0.03965  1.0000
  H   H3290     1.0  0.42622  0.81710  0.08353  1.0000
  H   H3291     1.0  0.41555  0.84017  0.14756  1.0000
  C   C1880     1.0  0.48384  0.53316  0.42228  1.0000
  S   S418      1.0  0.41126  0.79360  0.13918  1.0000
  H   H3292     1.0  0.52684  0.80538  0.01939  1.0000
  H   H3293     1.0  0.58646  0.58534  0.39862  1.0000
  H   H3294     1.0  0.40238  0.51726  0.33607  1.0000
  H   H3295     1.0  0.43130  0.82274  0.04762  1.0000
  H   H3296     1.0  0.40338  0.82840  0.10601  1.0000
  H   H3297     1.0  0.48825  0.51861  0.42726  1.0000
  H   H3298     1.0  0.55572  0.96545  0.04745  1.0000
  H   H3299     1.0  0.40240  0.89955  0.11632  1.0000
  H   H3300     1.0  0.42788  0.77891  0.08058  1.0000
  H   H3301     1.0  0.43715  0.79479  0.06206  1.0000
  H   H3302     1.0  0.45708  0.79785  0.07972  1.0000
  H   H3303     1.0  0.44722  0.78266  0.09879  1.0000
  H   H3304     1.0  0.45977  0.77493  0.07893  1.0000
  H   H3305     1.0  0.40327  0.64270  0.42829  1.0000
  H   H3306     1.0  0.41277  0.83084  0.13058  1.0000
  H   H3307     1.0  0.41993  0.62473  0.36080  1.0000
  H   H3308     1.0  0.46302  0.86300  0.07521  1.0000
  C   C1881     1.0  0.45933  0.51436  0.48240  1.0000
  H   H3309     1.0  0.42056  0.63292  0.41153  1.0000
  H   H3310     1.0  0.53939  0.51471  0.36965  1.0000
  H   H3311     1.0  0.41869  0.63714  0.30779  1.0000
  H   H3312     1.0  0.53706  0.90632  0.02170  1.0000
  H   H3313     1.0  0.43654  0.69594  0.16796  1.0000
  H   H3314     1.0  0.44289  0.62582  0.35771  1.0000
  H   H3315     1.0  0.41565  0.97589  0.02822  1.0000
  H   H3316     1.0  0.55764  0.54553  0.36534  1.0000
  H   H3317     1.0  0.48865  0.96270  0.00265  1.0000
  H   H3318     1.0  0.45291  0.64930  0.27577  1.0000
  C   C1882     1.0  0.54647  0.96557  0.02461  1.0000
  H   H3319     1.0  0.59459  0.93539  0.09141  1.0000
  C   C1883     1.0  0.47199  0.54201  0.43740  1.0000
  C   C1884     1.0  0.41187  0.84343  0.13443  1.0000
  C   C1885     1.0  0.54982  0.80033  0.03134  1.0000
  H   H3320     1.0  0.45482  0.82894  0.05606  1.0000
  C   C1886     1.0  0.51646  0.91155  0.07683  1.0000
  C   C1887     1.0  0.55781  0.53290  0.36182  1.0000
  C   C1888     1.0  0.45446  0.53523  0.44483  1.0000
  H   H3321     1.0  0.59017  0.77256  0.99723  1.0000
  H   H3322     1.0  0.42483  0.65558  0.43482  1.0000
  C   C1889     1.0  0.57045  0.68205  0.46436  1.0000
  H   H3323     1.0  0.51466  0.50154  0.29220  1.0000
  H   H3324     1.0  0.58045  0.70033  0.43977  1.0000
  C   C1890     1.0  0.46572  0.65361  0.27256  1.0000
  H   H3325     1.0  0.57123  0.89867  0.07420  1.0000
  H   H3326     1.0  0.50274  0.90295  0.00926  1.0000
  H   H3327     1.0  0.43091  0.88506  0.10013  1.0000
  H   H3328     1.0  0.52304  0.87550  0.01798  1.0000
  H   H3329     1.0  0.45018  0.59963  0.45596  1.0000
  C   C1891     1.0  0.44180  0.59205  0.45323  1.0000
  H   H3330     1.0  0.42054  0.71498  0.22293  1.0000
  C   C1892     1.0  0.40025  0.69874  0.22985  1.0000
  N   N106      1.0  0.44274  0.54092  0.46149  1.0000
  H   H3331     1.0  0.59141  0.86511  0.12865  1.0000
  H   H3332     1.0  0.42287  0.86662  0.12547  1.0000
  C   C1893     1.0  0.56936  0.93575  0.07238  1.0000
  H   H3333     1.0  0.41391  0.71714  0.19631  1.0000
  C   C1894     1.0  0.40041  0.78090  0.13268  1.0000
  H   H3334     1.0  0.52169  0.54623  0.36362  1.0000
  H   H3335     1.0  0.43198  0.63178  0.43729  1.0000
  H   H3336     1.0  0.53551  0.93667  0.07804  1.0000
  H   H3337     1.0  0.47144  0.51824  0.32096  1.0000
  H   H3338     1.0  0.47639  0.64443  0.26524  1.0000
  C   C1895     1.0  0.45397  0.85491  0.08523  1.0000
  S   S419      1.0  0.40623  0.69233  0.32562  1.0000
  H   H3339     1.0  0.56296  0.80853  0.00414  1.0000
  C   C1896     1.0  0.39889  0.67512  0.21642  1.0000
  H   H3340     1.0  0.53968  0.90881  0.05592  1.0000
  H   H3341     1.0  0.51689  0.89937  0.03531  1.0000
  H   H3342     1.0  0.54853  0.70026  0.44080  1.0000
  H   H3343     1.0  0.44338  0.59437  0.43860  1.0000
  H   H3344     1.0  0.52632  0.54955  0.38331  1.0000
  H   H3345     1.0  0.42786  0.71965  0.16486  1.0000
  S   S420      1.0  0.40182  0.72346  0.28931  1.0000
  H   H3346     1.0  0.57281  0.71017  0.45903  1.0000
  H   H3347     1.0  0.42434  0.66537  0.39631  1.0000
  S   S421      1.0  0.41475  0.67343  0.28300  1.0000
  H   H3348     1.0  0.59036  0.74815  0.06249  1.0000
  H   H3349     1.0  0.55816  0.92527  0.10022  1.0000
  C   C1897     1.0  0.42074  0.66972  0.23546  1.0000
  H   H3350     1.0  0.43401  0.55919  0.30476  1.0000
  H   H3351     1.0  0.40663  0.66499  0.20843  1.0000
  H   H3352     1.0  0.45972  0.85069  0.05070  1.0000
  H   H3353     1.0  0.54161  0.71152  0.45917  1.0000
  H   H3354     1.0  0.58131  0.52426  0.33194  1.0000
  H   H3355     1.0  0.42775  0.59731  0.45923  1.0000
  H   H3356     1.0  0.47984  0.53931  0.44771  1.0000
  C   C1898     1.0  0.58999  0.68536  0.48160  1.0000
  C   C1899     1.0  0.57796  0.51604  0.39350  1.0000
  H   H3357     1.0  0.40490  0.75207  0.16461  1.0000
  H   H3358     1.0  0.44722  0.54017  0.43374  1.0000
  C   C1900     1.0  0.40253  0.78138  0.24051  1.0000
  H   H3359     1.0  0.40062  0.89494  0.09604  1.0000
  C   C1901     1.0  0.48546  0.51728  0.31338  1.0000
  C   C1902     1.0  0.54209  0.52506  0.37485  1.0000
  H   H3360     1.0  0.44379  0.83080  0.11563  1.0000
  C   C1903     1.0  0.45190  0.84149  0.06076  1.0000
  H   H3361     1.0  0.55469  0.80748  0.03850  1.0000
  H   H3362     1.0  0.40985  0.71272  0.36221  1.0000
  H   H3363     1.0  0.47321  0.71559  0.48369  1.0000
  H   H3364     1.0  0.48678  0.76083  0.36080  1.0000
  H   H3365     1.0  0.50859  0.92086  0.08561  1.0000
  H   H3366     1.0  0.47570  0.67729  0.25655  1.0000
  N   N107      1.0  0.50901  0.70438  0.34493  1.0000
  C   C1904     1.0  0.50281  0.71089  0.32756  1.0000
  C   C1905     1.0  0.52846  0.70493  0.34126  1.0000
  C   C1906     1.0  0.50607  0.68571  0.35294  1.0000
  C   C1907     1.0  0.49869  0.71598  0.35800  1.0000
  C   C1908     1.0  0.49819  0.73621  0.35134  1.0000
  C   C1909     1.0  0.48253  0.71324  0.32894  1.0000
  C   C1910     1.0  0.51317  0.67611  0.37013  1.0000
  C   C1911     1.0  0.54167  0.69129  0.33064  1.0000
  C   C1912     1.0  0.56086  0.69334  0.32756  1.0000
  H   H3367     1.0  0.46187  0.56810  0.45551  1.0000
  C   C1913     1.0  0.47774  0.72036  0.31067  1.0000
  C   C1914     1.0  0.51161  0.65663  0.37543  1.0000
  H   H3368     1.0  0.50964  0.70140  0.31865  1.0000
  H   H3369     1.0  0.50669  0.72372  0.32017  1.0000
  H   H3370     1.0  0.53056  0.71836  0.33357  1.0000
  H   H3371     1.0  0.53278  0.70314  0.35389  1.0000
  H   H3372     1.0  0.51180  0.67721  0.34296  1.0000
  H   H3373     1.0  0.49156  0.68576  0.35658  1.0000
  H   H3374     1.0  0.48478  0.71422  0.36263  1.0000
  H   H3375     1.0  0.50416  0.71167  0.37028  1.0000
  H   H3376     1.0  0.49229  0.74178  0.33940  1.0000
  H   H3377     1.0  0.51181  0.73883  0.34804  1.0000
  H   H3378     1.0  0.47848  0.70028  0.33447  1.0000
  H   H3379     1.0  0.47444  0.72273  0.33744  1.0000
  H   H3380     1.0  0.50521  0.68252  0.38136  1.0000
  H   H3381     1.0  0.52736  0.67629  0.36853  1.0000
  H   H3382     1.0  0.54119  0.67739  0.33788  1.0000
  H   H3383     1.0  0.53861  0.69326  0.31742  1.0000
  H   H3384     1.0  0.57005  0.68344  0.31997  1.0000
  H   H3385     1.0  0.56232  0.70689  0.31978  1.0000
  H   H3386     1.0  0.56479  0.69097  0.34046  1.0000
  C   C1915     1.0  0.55278  0.79996  0.17642  1.0000
  C   C1916     1.0  0.44752  0.57225  0.46123  1.0000
  H   H3387     1.0  0.40433  0.76665  0.24465  1.0000
  H   H3388     1.0  0.46318  0.72177  0.31213  1.0000
  H   H3389     1.0  0.48101  0.73366  0.30452  1.0000
  H   H3390     1.0  0.48495  0.71101  0.30171  1.0000
  H   H3391     1.0  0.49761  0.65573  0.37704  1.0000
  H   H3392     1.0  0.52028  0.64920  0.36519  1.0000
  H   H3393     1.0  0.51572  0.65023  0.38831  1.0000
  C   C1917     1.0  0.57604  0.98541  0.12805  1.0000
  C   C1918     1.0  0.40766  0.60084  0.30056  1.0000
  H   H3394     1.0  0.41912  0.85843  0.10798  1.0000
  C   C1919     1.0  0.55213  0.70915  0.44720  1.0000
  H   H3395     1.0  0.53833  0.97933  0.02430  1.0000
  H   H3396     1.0  0.54445  0.91407  0.08572  1.0000
  H   H3397     1.0  0.46083  0.67078  0.24733  1.0000
  C   C1920     1.0  0.42976  0.62679  0.36713  1.0000
  H   H3398     1.0  0.54433  0.50505  0.28543  1.0000
  C   C1921     1.0  0.58393  0.65577  0.48406  1.0000
  C   C1922     1.0  0.43277  0.70749  0.17444  1.0000
  H   H3399     1.0  0.40205  0.60801  0.35446  1.0000
  H   H3400     1.0  0.41124  0.92319  0.17411  1.0000
  C   C1923     1.0  0.42170  0.92833  0.16386  1.0000
  S   S422      1.0  0.42708  0.89903  0.05710  1.0000
  H   H3401     1.0  0.43750  0.84772  0.06186  1.0000
  H   H3402     1.0  0.41897  0.53450  0.48014  1.0000
  H   H3403     1.0  0.57926  0.91178  0.09185  1.0000
  H   H3404     1.0  0.55862  0.68307  0.47557  1.0000
  H   H3405     1.0  0.56053  0.94893  0.07387  1.0000
  N   N108      1.0  0.56176  0.92663  0.06282  1.0000
  C   C1924     1.0  0.46346  0.67190  0.25987  1.0000
  C   C1925     1.0  0.57150  0.92566  0.09145  1.0000
  H   H3406     1.0  0.40799  0.75121  0.10648  1.0000
  H   H3407     1.0  0.40859  0.79436  0.06111  1.0000
  H   H3408     1.0  0.47608  0.61695  0.27854  1.0000
  H   H3409     1.0  0.52166  0.89859  0.08522  1.0000
  C   C1926     1.0  0.47105  0.65445  0.28946  1.0000
  H   H3410     1.0  0.46183  0.66593  0.29468  1.0000
  H   H3411     1.0  0.45196  0.68142  0.26591  1.0000
  C   C1927     1.0  0.51626  0.90156  0.00028  1.0000
  H   H3412     1.0  0.48425  0.65824  0.28484  1.0000
  H   H3413     1.0  0.57413  0.61577  0.48349  1.0000
  H   H3414     1.0  0.42936  0.63708  0.25828  1.0000
  H   H3415     1.0  0.50918  0.60558  0.27126  1.0000
  H   H3416     1.0  0.41991  0.89104  0.18698  1.0000
  C   C1928     1.0  0.41376  0.98314  0.14038  1.0000
  H   H3417     1.0  0.48456  0.82087  0.19403  1.0000
  H   H3418     1.0  0.43369  0.56615  0.44426  1.0000
  H   H3419     1.0  0.41613  0.86366  0.17322  1.0000
  H   H3420     1.0  0.40637  0.73339  0.24507  1.0000
  H   H3421     1.0  0.40371  0.85014  0.02810  1.0000
  H   H3422     1.0  0.58516  0.80175  0.03653  1.0000
  H   H3423     1.0  0.40115  0.75151  0.19653  1.0000
  C   C1929     1.0  0.40445  0.52893  0.33966  1.0000
  C   C1930     1.0  0.59753  0.55150  0.31676  1.0000
  H   H3424     1.0  0.59324  0.61750  0.49026  1.0000
  C   C1931     1.0  0.41085  0.70974  0.23470  1.0000
  H   H3425     1.0  0.40865  0.55342  0.29628  1.0000
  N   N109      1.0  0.58299  0.78891  0.01677  1.0000
  H   H3426     1.0  0.58975  0.54942  0.30814  1.0000
  C   C1932     1.0  0.57940  0.64238  0.47591  1.0000
  H   H3427     1.0  0.59583  0.73611  0.04482  1.0000
  C   C1933     1.0  0.56273  0.80306  0.18880  1.0000
  C   C1934     1.0  0.41949  0.98454  0.03464  1.0000
  H   H3428     1.0  0.42106  0.64459  0.22852  1.0000
  H   H3429     1.0  0.40333  0.78025  0.17720  1.0000
  H   H3430     1.0  0.42718  0.84305  0.01925  1.0000
  H   H3431     1.0  0.59388  0.52829  0.40316  1.0000
  H   H3432     1.0  0.58194  0.77353  0.12598  1.0000
  H   H3433     1.0  0.57187  0.50204  0.26294  1.0000
  H   H3434     1.0  0.39969  0.80816  0.18580  1.0000
  H   H3435     1.0  0.57319  0.94892  0.09980  1.0000
  H   H3436     1.0  0.40472  0.95209  0.10799  1.0000
  H   H3437     1.0  0.41645  0.53308  0.33029  1.0000
  C   C1935     1.0  0.59351  0.90713  0.05435  1.0000
  H   H3438     1.0  0.54915  0.78678  0.18216  1.0000
  H   H3439     1.0  0.59648  0.91605  0.04112  1.0000
  H   H3440     1.0  0.40344  0.51413  0.46289  1.0000
  H   H3441     1.0  0.59851  0.56571  0.31304  1.0000
  C   C1936     1.0  0.59091  0.51503  0.40491  1.0000
  H   H3442     1.0  0.40576  0.67275  0.41236  1.0000
  N   N110      1.0  0.41125  0.68308  0.22183  1.0000
  H   H3443     1.0  0.59651  0.54953  0.34426  1.0000
  H   H3444     1.0  0.55415  0.80242  0.20237  1.0000
  C   C1937     1.0  0.57942  0.62431  0.48880  1.0000
  Fe  Fe217     1.0  0.40114  0.90248  0.04929  1.0000
  H   H3445     1.0  0.59365  0.78592  0.13302  1.0000
  C   C1938     1.0  0.58842  0.54680  0.33638  1.0000
  H   H3446     1.0  0.59832  0.88394  0.04280  1.0000
  S   S423      1.0  0.39960  0.60625  0.44032  1.0000
  N   N111      1.0  0.39912  0.66322  0.39252  1.0000
  S   S424      1.0  0.40070  0.58998  0.49071  1.0000
  C   C1939     1.0  0.43131  0.99073  0.99376  1.0000
  C   C1940     1.0  0.51538  0.49598  0.30645  1.0000
  H   H3447     1.0  0.48102  0.51605  0.49326  1.0000
  H   H3448     1.0  0.59142  0.73056  0.76616  1.0000
  C   C1941     1.0  0.51761  0.85138  0.97301  1.0000
  H   H3449     1.0  0.42862  0.52422  0.53660  1.0000
  C   C1942     1.0  0.59416  0.90666  0.86289  1.0000
  C   C1943     1.0  0.59647  0.68270  0.69481  1.0000
  H   H3450     1.0  0.57598  0.89427  0.95197  1.0000
  H   H3451     1.0  0.42553  0.64913  0.55999  1.0000
  C   C1944     1.0  0.47579  0.69042  0.50285  1.0000
  H   H3452     1.0  0.57904  0.91345  0.75880  1.0000
  S   S425      1.0  0.58173  0.89001  0.87187  1.0000
  C   C1945     1.0  0.40487  0.50121  0.55664  1.0000
  C   C1946     1.0  0.46909  0.51004  0.49759  1.0000
  H   H3453     1.0  0.50948  0.50226  0.69418  1.0000
  C   C1947     1.0  0.59063  0.85674  0.96971  1.0000
  C   C1948     1.0  0.57702  0.73605  0.62005  1.0000
  C   C1949     1.0  0.49254  0.63067  0.52242  1.0000
  H   H3454     1.0  0.47655  0.69208  0.53916  1.0000
  C   C1950     1.0  0.46446  0.70783  0.49448  1.0000
  H   H3455     1.0  0.52734  0.90358  0.95495  1.0000
  S   S426      1.0  0.56598  0.58669  0.65642  1.0000
  H   H3456     1.0  0.57809  0.54600  0.58850  1.0000
  H   H3457     1.0  0.59424  0.93328  0.79392  1.0000
  H   H3458     1.0  0.51727  0.51037  0.67091  1.0000
  H   H3459     1.0  0.58370  0.96603  0.92947  1.0000
  S   S427      1.0  0.57395  0.72259  0.65630  1.0000
  Fe  Fe218     1.0  0.56181  0.69856  0.57145  1.0000
  S   S428      1.0  0.53622  0.69304  0.56951  1.0000
  S   S429      1.0  0.56594  0.72211  0.57958  1.0000
  H   H3460     1.0  0.42374  0.98327  0.96399  1.0000
  S   S430      1.0  0.56111  0.65809  0.55270  1.0000
  H   H3461     1.0  0.58745  0.55284  0.55692  1.0000
  Fe  Fe219     1.0  0.55027  0.68709  0.54259  1.0000
  S   S431      1.0  0.53688  0.69853  0.51888  1.0000
  Fe  Fe220     1.0  0.54846  0.66438  0.57964  1.0000
  S   S432      1.0  0.53015  0.64842  0.60020  1.0000
  S   S433      1.0  0.57462  0.69558  0.54341  1.0000
  H   H3462     1.0  0.59033  0.60606  0.58316  1.0000
  C   C1951     1.0  0.48762  0.66455  0.53523  1.0000
  H   H3463     1.0  0.45729  0.71599  0.50456  1.0000
  H   H3464     1.0  0.57749  0.56732  0.52820  1.0000
  H   H3465     1.0  0.56517  0.53197  0.60422  1.0000
  H   H3466     1.0  0.56986  0.83681  0.84647  1.0000
  C   C1952     1.0  0.46401  0.67902  0.51775  1.0000
  C   C1953     1.0  0.40608  0.66414  0.50975  1.0000
  H   H3467     1.0  0.58654  0.67450  0.70249  1.0000
  C   C1954     1.0  0.57433  0.72166  0.63433  1.0000
  N   N112      1.0  0.51556  0.89745  0.98309  1.0000
  Fe  Fe221     1.0  0.59699  0.52712  0.64200  1.0000
  C   C1955     1.0  0.57065  0.72100  0.60031  1.0000
  H   H3468     1.0  0.45454  0.67653  0.51130  1.0000
  H   H3469     1.0  0.57410  0.91475  0.83302  1.0000
  H   H3470     1.0  0.47272  0.93296  0.96188  1.0000
  H   H3471     1.0  0.52930  0.86968  0.98953  1.0000
  S   S434      1.0  0.58022  0.55124  0.62796  1.0000
  H   H3472     1.0  0.41665  0.51636  0.56844  1.0000
  C   C1956     1.0  0.55640  0.60342  0.64023  1.0000
  C   C1957     1.0  0.56684  0.61001  0.62378  1.0000
  C   C1958     1.0  0.55894  0.62401  0.61139  1.0000
  C   C1959     1.0  0.54053  0.63096  0.61524  1.0000
  C   C1960     1.0  0.53010  0.62403  0.63147  1.0000
  C   C1961     1.0  0.53806  0.61054  0.64406  1.0000
  C   C1962     1.0  0.55309  0.64828  0.64934  1.0000
  H   H3473     1.0  0.56703  0.62932  0.59884  1.0000
  H   H3474     1.0  0.51586  0.62927  0.63445  1.0000
  H   H3475     1.0  0.52996  0.60544  0.65671  1.0000
  C   C1963     1.0  0.56943  0.53686  0.58964  1.0000
  Fe  Fe222     1.0  0.59436  0.84737  0.92886  1.0000
  C   C1964     1.0  0.51801  0.52537  0.57360  1.0000
  H   H3476     1.0  0.45360  0.63555  0.52900  1.0000
  H   H3477     1.0  0.49690  0.90579  0.96547  1.0000
  C   C1965     1.0  0.44671  0.64632  0.53637  1.0000
  H   H3478     1.0  0.40554  0.67505  0.51561  1.0000
  H   H3479     1.0  0.59057  0.67072  0.50900  1.0000
  Fe  Fe223     1.0  0.58433  0.66708  0.55586  1.0000
  N   N113      1.0  0.47370  0.66164  0.52739  1.0000
  H   H3480     1.0  0.55913  0.89633  0.94001  1.0000
  C   C1966     1.0  0.40804  0.50798  0.51004  1.0000
  H   H3481     1.0  0.56933  0.79013  0.76676  1.0000
  H   H3482     1.0  0.55632  0.52626  0.64269  1.0000
  H   H3483     1.0  0.53006  0.52467  0.63278  1.0000
  C   C1967     1.0  0.58241  0.75576  0.78649  1.0000
  H   H3484     1.0  0.47038  0.94994  0.97373  1.0000
  H   H3485     1.0  0.44037  0.62730  0.56131  1.0000
  C   C1968     1.0  0.49961  0.61904  0.50862  1.0000
  H   H3486     1.0  0.56061  0.91532  0.94744  1.0000
  S   S435      1.0  0.52125  0.49769  0.62185  1.0000
  H   H3487     1.0  0.43810  0.96421  0.97492  1.0000
  C   C1969     1.0  0.43747  0.97776  0.96628  1.0000
  H   H3488     1.0  0.58255  0.83944  0.79040  1.0000
  H   H3489     1.0  0.52655  0.87503  0.95756  1.0000
  H   H3490     1.0  0.55712  0.76468  0.82766  1.0000
  Fe  Fe224     1.0  0.59459  0.73411  0.66172  1.0000
  C   C1970     1.0  0.48288  0.64968  0.51436  1.0000
  H   H3491     1.0  0.59708  0.51171  0.60253  1.0000
  H   H3492     1.0  0.50416  0.63136  0.52713  1.0000
  C   C1971     1.0  0.53740  0.58430  0.60862  1.0000
  C   C1972     1.0  0.56513  0.84499  0.98818  1.0000
  Fe  Fe225     1.0  0.59646  0.86926  0.89136  1.0000
  H   H3493     1.0  0.55140  0.88027  0.97112  1.0000
  H   H3494     1.0  0.50159  0.93461  0.96767  1.0000
  C   C1973     1.0  0.54936  0.89492  0.96853  1.0000
  H   H3495     1.0  0.58333  0.76435  0.75154  1.0000
  S   S436      1.0  0.59541  0.87600  0.91709  1.0000
  H   H3496     1.0  0.51463  0.54541  0.58811  1.0000
  H   H3497     1.0  0.57343  0.97615  0.78305  1.0000
  C   C1974     1.0  0.59453  0.73591  0.73773  1.0000
  H   H3498     1.0  0.45717  0.98551  0.97476  1.0000
  C   C1975     1.0  0.57021  0.88998  0.82962  1.0000
  H   H3499     1.0  0.46313  0.49785  0.67293  1.0000
  H   H3500     1.0  0.57535  0.57217  0.56559  1.0000
  H   H3501     1.0  0.55972  0.85945  0.84761  1.0000
  H   H3502     1.0  0.58510  0.98432  0.79442  1.0000
  H   H3503     1.0  0.46690  0.64213  0.55161  1.0000
  C   C1976     1.0  0.43435  0.51102  0.54427  1.0000
  H   H3504     1.0  0.58599  0.74127  0.79244  1.0000
  H   H3505     1.0  0.57228  0.91523  0.81074  1.0000
  H   H3506     1.0  0.49330  0.65559  0.50391  1.0000
  H   H3507     1.0  0.54779  0.50725  0.67661  1.0000
  H   H3508     1.0  0.43818  0.50112  0.53574  1.0000
  C   C1977     1.0  0.59406  0.83645  0.81311  1.0000
  H   H3509     1.0  0.50073  0.66654  0.56380  1.0000
  C   C1978     1.0  0.58089  0.81308  0.76109  1.0000
  C   C1979     1.0  0.49615  0.67951  0.55503  1.0000
  H   H3510     1.0  0.50459  0.53086  0.57041  1.0000
  H   H3511     1.0  0.53036  0.52234  0.68824  1.0000
  H   H3512     1.0  0.55455  0.83831  0.98975  1.0000
  H   H3513     1.0  0.51596  0.84746  0.96134  1.0000
  H   H3514     1.0  0.46347  0.92940  0.98559  1.0000
  C   C1980     1.0  0.57695  0.99086  0.91147  1.0000
  C   C1981     1.0  0.55825  0.55599  0.56240  1.0000
  C   C1982     1.0  0.56196  0.90064  0.95088  1.0000
  H   H3515     1.0  0.54970  0.58466  0.58124  1.0000
  H   H3516     1.0  0.57451  0.50909  0.58732  1.0000
  H   H3517     1.0  0.46011  0.51521  0.50923  1.0000
  H   H3518     1.0  0.59814  0.83914  0.85046  1.0000
  H   H3519     1.0  0.56271  0.57007  0.59690  1.0000
  C   C1983     1.0  0.53548  0.50815  0.68726  1.0000
  C   C1984     1.0  0.54144  0.55923  0.59304  1.0000
  H   H3520     1.0  0.57389  0.83034  0.87767  1.0000
  H   H3521     1.0  0.56808  0.77972  0.79707  1.0000
  H   H3522     1.0  0.58500  0.79352  0.74585  1.0000
  H   H3523     1.0  0.55089  0.83890  0.87594  1.0000
  H   H3524     1.0  0.57287  0.85928  0.81805  1.0000
  C   C1985     1.0  0.57215  0.98633  0.79067  1.0000
  H   H3525     1.0  0.54696  0.56711  0.55895  1.0000
  H   H3526     1.0  0.44652  0.51202  0.54785  1.0000
  H   H3527     1.0  0.53843  0.64369  0.50069  1.0000
  C   C1986     1.0  0.47356  0.93535  0.97466  1.0000
  H   H3528     1.0  0.48838  0.61682  0.50436  1.0000
  S   S437      1.0  0.57479  0.83994  0.95429  1.0000
  H   H3529     1.0  0.57156  0.92858  0.86597  1.0000
  H   H3530     1.0  0.47333  0.64866  0.50696  1.0000
  S   S438      1.0  0.59452  0.98652  0.82650  1.0000
  C   C1987     1.0  0.59270  0.79908  0.98261  1.0000
  C   C1988     1.0  0.52974  0.90420  0.96784  1.0000
  C   C1989     1.0  0.43336  0.63871  0.55241  1.0000
  H   H3531     1.0  0.56453  0.88604  0.84404  1.0000
  H   H3532     1.0  0.59359  0.81740  0.75406  1.0000
  C   C1990     1.0  0.48111  0.67859  0.54703  1.0000
  C   C1991     1.0  0.42024  0.65981  0.49578  1.0000
  H   H3533     1.0  0.58728  0.81697  0.80326  1.0000
  N   N114      1.0  0.51563  0.68799  0.63389  1.0000
  C   C1992     1.0  0.52963  0.67089  0.63377  1.0000
  C   C1993     1.0  0.50482  0.69006  0.62030  1.0000
  C   C1994     1.0  0.52527  0.70322  0.62778  1.0000
  C   C1995     1.0  0.50380  0.68886  0.65209  1.0000
  C   C1996     1.0  0.49974  0.67099  0.66440  1.0000
  C   C1997     1.0  0.54363  0.66784  0.64514  1.0000
  C   C1998     1.0  0.51337  0.72233  0.62628  1.0000
  C   C1999     1.0  0.49294  0.67645  0.62409  1.0000
  C   C2000     1.0  0.48494  0.67855  0.60808  1.0000
  C   C2001     1.0  0.48518  0.67429  0.68082  1.0000
  H   H3534     1.0  0.48356  0.62376  0.53373  1.0000
  C   C2002     1.0  0.52445  0.73624  0.62316  1.0000
  H   H3535     1.0  0.53727  0.67040  0.61992  1.0000
  H   H3536     1.0  0.52343  0.65915  0.63806  1.0000
  H   H3537     1.0  0.49543  0.70322  0.61883  1.0000
  H   H3538     1.0  0.51387  0.68969  0.60698  1.0000
  H   H3539     1.0  0.53438  0.70258  0.61452  1.0000
  H   H3540     1.0  0.53384  0.70210  0.63710  1.0000
  H   H3541     1.0  0.50980  0.69456  0.65978  1.0000
  H   H3542     1.0  0.49083  0.69830  0.65072  1.0000
  H   H3543     1.0  0.51179  0.66252  0.66916  1.0000
  H   H3544     1.0  0.49536  0.66310  0.65762  1.0000
  H   H3545     1.0  0.55402  0.67548  0.63760  1.0000
  H   H3546     1.0  0.43891  0.65716  0.52773  1.0000
  H   H3547     1.0  0.50294  0.72358  0.63855  1.0000
  H   H3548     1.0  0.50684  0.72592  0.61479  1.0000
  H   H3549     1.0  0.50047  0.66253  0.62704  1.0000
  H   H3550     1.0  0.48163  0.67879  0.63548  1.0000
  H   H3551     1.0  0.47639  0.66875  0.61116  1.0000
  H   H3552     1.0  0.47669  0.69218  0.60481  1.0000
  H   H3553     1.0  0.49571  0.67601  0.59630  1.0000
  H   H3554     1.0  0.47245  0.68200  0.67690  1.0000
  H   H3555     1.0  0.48290  0.66133  0.68960  1.0000
  H   H3556     1.0  0.48925  0.68170  0.68846  1.0000
  H   H3557     1.0  0.54294  0.59567  0.60851  1.0000
  H   H3558     1.0  0.52912  0.99109  0.82684  1.0000
  C   C2003     1.0  0.54121  0.51335  0.63334  1.0000
  H   H3559     1.0  0.53177  0.73338  0.63399  1.0000
  H   H3560     1.0  0.53416  0.73648  0.61022  1.0000
  H   H3561     1.0  0.51557  0.74968  0.62276  1.0000
  H   H3562     1.0  0.54072  0.52437  0.59624  1.0000
  H   H3563     1.0  0.58236  0.96426  0.90772  1.0000
  H   H3564     1.0  0.45552  0.68743  0.52727  1.0000
  C   C2004     1.0  0.57709  0.84780  0.97181  1.0000
  C   C2005     1.0  0.56229  0.75683  0.81709  1.0000
  C   C2006     1.0  0.49228  0.92744  0.97833  1.0000
  S   S439      1.0  0.57272  0.67038  0.58395  1.0000
  H   H3565     1.0  0.50764  0.68301  0.54434  1.0000
  H   H3566     1.0  0.59133  0.86443  0.80113  1.0000
  H   H3567     1.0  0.52718  0.51997  0.56217  1.0000
  H   H3568     1.0  0.53712  0.57518  0.62192  1.0000
  H   H3569     1.0  0.44664  0.97674  0.95320  1.0000
  C   C2007     1.0  0.58235  0.79386  0.76015  1.0000
  C   C2008     1.0  0.59644  0.93752  0.85763  1.0000
  H   H3570     1.0  0.55277  0.91621  0.82856  1.0000
  H   H3571     1.0  0.49904  0.66836  0.52454  1.0000
  H   H3572     1.0  0.55112  0.52331  0.57384  1.0000
  C   C2009     1.0  0.58127  0.52053  0.58208  1.0000
  H   H3573     1.0  0.58720  0.95178  0.81581  1.0000
  C   C2010     1.0  0.56997  0.84794  0.85224  1.0000
  C   C2011     1.0  0.42082  0.50541  0.56117  1.0000
  H   H3574     1.0  0.54372  0.66021  0.52042  1.0000
  H   H3575     1.0  0.58423  0.90253  0.78027  1.0000
  H   H3576     1.0  0.58103  0.60461  0.62078  1.0000
  H   H3577     1.0  0.50266  0.87765  0.96527  1.0000
  H   H3578     1.0  0.56586  0.58696  0.53715  1.0000
  N   N115      1.0  0.55337  0.54646  0.58162  1.0000
  C   C2012     1.0  0.56726  0.91029  0.82515  1.0000
  H   H3579     1.0  0.53723  0.55168  0.60688  1.0000
  H   H3580     1.0  0.53106  0.84440  0.97551  1.0000
  H   H3581     1.0  0.55365  0.99355  0.83925  1.0000
  C   C2013     1.0  0.59032  0.88123  0.82553  1.0000
  C   C2014     1.0  0.57533  0.76598  0.80189  1.0000
  H   H3582     1.0  0.59460  0.63652  0.53806  1.0000
  C   C2015     1.0  0.58223  0.83119  0.80409  1.0000
  H   H3583     1.0  0.52359  0.58957  0.60641  1.0000
  H   H3584     1.0  0.52895  0.56589  0.58819  1.0000
  C   C2016     1.0  0.52474  0.54003  0.57714  1.0000
  C   C2017     1.0  0.54311  0.53271  0.58255  1.0000
  H   H3585     1.0  0.57618  0.74734  0.59242  1.0000
  C   C2018     1.0  0.54918  0.57468  0.59402  1.0000
  H   H3586     1.0  0.58381  0.52352  0.56734  1.0000
  H   H3587     1.0  0.56026  0.54692  0.55328  1.0000
  H   H3588     1.0  0.51690  0.51432  0.58550  1.0000
  C   C2019     1.0  0.56422  0.84226  0.87243  1.0000
  H   H3589     1.0  0.52889  0.91854  0.96686  1.0000
  C   C2020     1.0  0.51571  0.87156  0.96909  1.0000
  C   C2021     1.0  0.57495  0.73580  0.60317  1.0000
  C   C2022     1.0  0.57057  0.70666  0.63133  1.0000
  C   C2023     1.0  0.55615  0.51433  0.63887  1.0000
  H   H3590     1.0  0.52543  0.55077  0.56496  1.0000
  H   H3591     1.0  0.56334  0.85328  0.87887  1.0000
  H   H3592     1.0  0.48565  0.69389  0.50806  1.0000
  H   H3593     1.0  0.56872  0.69545  0.64230  1.0000
  H   H3594     1.0  0.54342  0.63985  0.65727  1.0000
  C   C2024     1.0  0.44274  0.99006  0.97471  1.0000
  H   H3595     1.0  0.50865  0.62539  0.49682  1.0000
  H   H3596     1.0  0.58613  0.76710  0.80748  1.0000
  Fe  Fe226     1.0  0.58730  0.56590  0.64436  1.0000
  H   H3597     1.0  0.58944  0.93650  0.92337  1.0000
  C   C2025     1.0  0.57054  0.49973  0.64000  1.0000
  H   H3598     1.0  0.57061  0.75727  0.78083  1.0000
  H   H3599     1.0  0.55347  0.89874  0.97891  1.0000
  H   H3600     1.0  0.59017  0.95134  0.85773  1.0000
  H   H3601     1.0  0.56265  0.88634  0.82188  1.0000
  C   C2026     1.0  0.49759  0.90712  0.97874  1.0000
  C   C2027     1.0  0.46017  0.65330  0.54223  1.0000
  C   C2028     1.0  0.58889  0.85212  0.84686  1.0000
  H   H3602     1.0  0.55082  0.75591  0.81226  1.0000
  H   H3603     1.0  0.56155  0.98435  0.80290  1.0000
  C   C2029     1.0  0.59274  0.92174  0.90380  1.0000
  C   C2030     1.0  0.53680  0.66733  0.50980  1.0000
  H   H3604     1.0  0.53762  0.67238  0.65781  1.0000
  C   C2031     1.0  0.56914  0.70616  0.61429  1.0000
  H   H3605     1.0  0.46997  0.67522  0.55821  1.0000
  H   H3606     1.0  0.59614  0.88539  0.83452  1.0000
  H   H3607     1.0  0.57089  0.62591  0.50204  1.0000
  H   H3608     1.0  0.50724  0.60588  0.51448  1.0000
  H   H3609     1.0  0.56911  0.74324  0.82299  1.0000
  H   H3610     1.0  0.49136  0.68993  0.56304  1.0000
  H   H3611     1.0  0.49347  0.65188  0.54365  1.0000
  C   C2032     1.0  0.57534  0.56373  0.55671  1.0000
  H   H3612     1.0  0.45203  0.66310  0.55046  1.0000
  C   C2033     1.0  0.53379  0.65800  0.49860  1.0000
  C   C2034     1.0  0.59006  0.90644  0.76586  1.0000
  H   H3613     1.0  0.58009  0.74147  0.73808  1.0000
  C   C2035     1.0  0.51676  0.87774  0.98552  1.0000
  C   C2036     1.0  0.58593  0.92469  0.86216  1.0000
  S   S440      1.0  0.58911  0.50043  0.64775  1.0000
  H   H3614     1.0  0.57772  0.81440  0.77514  1.0000
  H   H3615     1.0  0.58977  0.58005  0.53407  1.0000
  H   H3616     1.0  0.42142  0.50757  0.51100  1.0000
  H   H3617     1.0  0.58594  0.93316  0.89478  1.0000
  H   H3618     1.0  0.47529  0.49866  0.65010  1.0000
  H   H3619     1.0  0.56637  0.69455  0.61202  1.0000
  H   H3620     1.0  0.57983  0.74772  0.62222  1.0000
  H   H3621     1.0  0.57007  0.82203  0.75455  1.0000
  H   H3622     1.0  0.58263  0.91410  0.91228  1.0000
  C   C2037     1.0  0.57715  0.57519  0.53785  1.0000
  H   H3623     1.0  0.56828  0.83283  0.81190  1.0000
  C   C2038     1.0  0.53148  0.68591  0.50673  1.0000
  H   H3624     1.0  0.55999  0.64360  0.63684  1.0000
  H   H3625     1.0  0.48683  0.90097  0.98844  1.0000
  H   H3626     1.0  0.59508  0.93072  0.76788  1.0000
  H   H3627     1.0  0.56238  0.99148  0.91613  1.0000
  H   H3628     1.0  0.58959  0.86008  0.85603  1.0000
  H   H3629     1.0  0.59520  0.70173  0.50544  1.0000
  N   N116      1.0  0.59510  0.86122  0.82774  1.0000
  C   C2039     1.0  0.59213  0.86282  0.98406  1.0000
  H   H3630     1.0  0.53893  0.50031  0.70012  1.0000
  H   H3631     1.0  0.42393  0.63392  0.54775  1.0000
  H   H3632     1.0  0.58013  0.80034  0.97840  1.0000
  C   C2040     1.0  0.58765  0.85622  0.81475  1.0000
  H   H3633     1.0  0.56323  0.64666  0.65715  1.0000
  C   C2041     1.0  0.54052  0.49786  0.62869  1.0000
  H   H3634     1.0  0.59624  0.88760  0.81175  1.0000
  H   H3635     1.0  0.58957  0.69497  0.68674  1.0000
  C   C2042     1.0  0.59763  0.78090  0.76876  1.0000
  S   S441      1.0  0.59260  0.84135  0.90356  1.0000
  C   C2043     1.0  0.52128  0.50127  0.68310  1.0000
  H   H3636     1.0  0.59250  0.81211  0.98513  1.0000
  C   C2044     1.0  0.58714  0.97148  0.91497  1.0000
  H   H3637     1.0  0.50728  0.84706  0.98472  1.0000
  C   C2045     1.0  0.59660  0.75764  0.75481  1.0000
  S   S442      1.0  0.59711  0.73267  0.68957  1.0000
  H   H3638     1.0  0.49218  0.93024  0.99120  1.0000
  H   H3639     1.0  0.59427  0.82737  0.82631  1.0000
  C   C2046     1.0  0.40730  0.63591  0.49472  1.0000
  H   H3640     1.0  0.59659  0.80254  0.85953  1.0000
  H   H3641     1.0  0.59712  0.89424  0.76067  1.0000
  H   H3642     1.0  0.59718  0.78483  0.78116  1.0000
  H   H3643     1.0  0.57284  0.65854  0.49556  1.0000
  S   S443      1.0  0.40057  0.54182  0.51469  1.0000
  H   H3644     1.0  0.59861  0.62606  0.57225  1.0000
  H   H3645     1.0  0.40047  0.51195  0.54561  1.0000
  N   N117      1.0  0.59780  0.76132  0.77200  1.0000
  H   H3646     1.0  0.59749  0.72162  0.73718  1.0000
  H   H3647     1.0  0.60001  0.48808  0.37282  1.0000
  Fe  Fe227     1.0  0.65143  0.19352  0.15636  1.0000
  S   S444      1.0  0.63299  0.17795  0.15414  1.0000
  S   S445      1.0  0.68087  0.18294  0.15365  1.0000
  H   H3648     1.0  0.61114  0.43233  0.35130  1.0000
  C   C2047     1.0  0.76870  0.05634  0.05580  1.0000
  H   H3649     1.0  0.77006  0.19358  0.14175  1.0000
  S   S446      1.0  0.63600  0.19950  0.18260  1.0000
  S   S447      1.0  0.73835  0.06123  0.01308  1.0000
  S   S448      1.0  0.70325  0.07623  0.04284  1.0000
  H   H3650     1.0  0.71315  0.02747  0.16430  1.0000
  Fe  Fe228     1.0  0.72049  0.04999  0.03832  1.0000
  S   S449      1.0  0.73247  0.02944  0.05969  1.0000
  Fe  Fe229     1.0  0.77379  0.15623  0.10048  1.0000
  S   S450      1.0  0.75588  0.15140  0.08587  1.0000
  S   S451      1.0  0.77099  0.14818  0.13004  1.0000
  H   H3651     1.0  0.77165  0.07968  0.46874  1.0000
  S   S452      1.0  0.77526  0.17801  0.05059  1.0000
  Fe  Fe230     1.0  0.75236  0.18055  0.07411  1.0000
  S   S453      1.0  0.72415  0.19561  0.07429  1.0000
  Fe  Fe231     1.0  0.77977  0.14871  0.06357  1.0000
  S   S454      1.0  0.78441  0.12513  0.05066  1.0000
  S   S455      1.0  0.76823  0.18567  0.09063  1.0000
  Fe  Fe232     1.0  0.72508  0.08191  0.22540  1.0000
  S   S456      1.0  0.72055  0.06741  0.20694  1.0000
  S   S457      1.0  0.74987  0.07327  0.23724  1.0000
  Fe  Fe233     1.0  0.68850  0.10641  0.22659  1.0000
  S   S458      1.0  0.68078  0.09472  0.20795  1.0000
  S   S459      1.0  0.66922  0.12678  0.24103  1.0000
  Fe  Fe234     1.0  0.69278  0.06844  0.22338  1.0000
  S   S460      1.0  0.67898  0.04527  0.23244  1.0000
  Fe  Fe235     1.0  0.70889  0.09466  0.19258  1.0000
  S   S461      1.0  0.71486  0.09946  0.16270  1.0000
  S   S462      1.0  0.69831  0.08005  0.24350  1.0000
  S   S463      1.0  0.71559  0.10918  0.20968  1.0000
  Fe  Fe236     1.0  0.62515  0.03031  0.17012  1.0000
  S   S464      1.0  0.62170  0.03144  0.19880  1.0000
  Fe  Fe237     1.0  0.65320  0.01867  0.13912  1.0000
  H   H3652     1.0  0.74092  0.46785  0.23042  1.0000
  S   S465      1.0  0.64556  0.04344  0.14974  1.0000
  S   S466      1.0  0.77366  0.13095  0.31505  1.0000
  Fe  Fe238     1.0  0.76804  0.17050  0.42938  1.0000
  S   S467      1.0  0.74974  0.16049  0.41924  1.0000
  S   S468      1.0  0.76575  0.16489  0.45888  1.0000
  Fe  Fe239     1.0  0.78611  0.18715  0.39242  1.0000
  S   S469      1.0  0.76975  0.17813  0.37935  1.0000
  H   H3653     1.0  0.73323  0.36633  0.41805  1.0000
  Fe  Fe240     1.0  0.74689  0.18734  0.40051  1.0000
  S   S470      1.0  0.72308  0.20697  0.39176  1.0000
  Fe  Fe241     1.0  0.77449  0.15243  0.39912  1.0000
  C   C2048     1.0  0.74856  0.11626  0.46877  1.0000
  S   S471      1.0  0.76310  0.19793  0.41240  1.0000
  H   H3654     1.0  0.69521  0.42372  0.47185  1.0000
  Fe  Fe242     1.0  0.66813  0.28197  0.27631  1.0000
  H   H3655     1.0  0.61918  0.41102  0.26475  1.0000
  S   S472      1.0  0.68620  0.27206  0.29618  1.0000
  H   H3656     1.0  0.73105  0.47301  0.18458  1.0000
  H   H3657     1.0  0.66351  0.15728  0.00343  1.0000
  S   S473      1.0  0.67632  0.27488  0.24937  1.0000
  H   H3658     1.0  0.62541  0.15643  0.08298  1.0000
  S   S474      1.0  0.61907  0.39521  0.38856  1.0000
  Fe  Fe243     1.0  0.63104  0.47224  0.41615  1.0000
  S   S475      1.0  0.64677  0.47668  0.38814  1.0000
  H   H3659     1.0  0.61030  0.28106  0.24147  1.0000
  H   H3660     1.0  0.75430  0.37261  0.40730  1.0000
  C   C2049     1.0  0.73944  0.13119  0.47887  1.0000
  H   H3661     1.0  0.60374  0.45945  0.36504  1.0000
  H   H3662     1.0  0.68226  0.39691  0.46500  1.0000
  C   C2050     1.0  0.62569  0.37670  0.44820  1.0000
  Fe  Fe244     1.0  0.67055  0.46370  0.40046  1.0000
  S   S476      1.0  0.69345  0.44493  0.38646  1.0000
  C   C2051     1.0  0.65976  0.27433  0.36874  1.0000
  S   S477      1.0  0.65466  0.45759  0.42849  1.0000
  Fe  Fe245     1.0  0.71980  0.30387  0.38785  1.0000
  S   S478      1.0  0.69195  0.32016  0.39036  1.0000
  S   S479      1.0  0.72567  0.27901  0.40867  1.0000
  Fe  Fe246     1.0  0.73392  0.33018  0.35579  1.0000
  S   S480      1.0  0.70720  0.34899  0.35590  1.0000
  S   S481      1.0  0.75718  0.33447  0.33313  1.0000
  Fe  Fe247     1.0  0.70456  0.34360  0.38538  1.0000
  S   S482      1.0  0.69106  0.36331  0.40333  1.0000
  Fe  Fe248     1.0  0.69711  0.32411  0.36073  1.0000
  S   S483      1.0  0.67611  0.32520  0.34622  1.0000
  S   S484      1.0  0.73230  0.32684  0.38496  1.0000
  S   S485      1.0  0.72396  0.30573  0.35856  1.0000
  Fe  Fe249     1.0  0.69966  0.40314  0.23274  1.0000
  S   S486      1.0  0.72246  0.39392  0.21147  1.0000
  S   S487      1.0  0.67211  0.41164  0.22757  1.0000
  Fe  Fe250     1.0  0.72343  0.39881  0.25788  1.0000
  S   S488      1.0  0.74840  0.38892  0.23904  1.0000
  S   S489      1.0  0.72304  0.40418  0.28400  1.0000
  Fe  Fe251     1.0  0.73668  0.41083  0.21848  1.0000
  S   S490      1.0  0.75284  0.42825  0.19694  1.0000
  Fe  Fe252     1.0  0.73177  0.37293  0.23399  1.0000
  S   S491      1.0  0.74159  0.34446  0.23125  1.0000
  S   S492      1.0  0.71295  0.42197  0.23777  1.0000
  S   S493      1.0  0.70774  0.38078  0.25487  1.0000
  H   H3663     1.0  0.62694  0.09108  0.16776  1.0000
  H   H3664     1.0  0.75569  0.24603  0.26050  1.0000
  H   H3665     1.0  0.67117  0.43069  0.25388  1.0000
  C   C2052     1.0  0.74928  0.35426  0.31901  1.0000
  C   C2053     1.0  0.75146  0.35491  0.30089  1.0000
  C   C2054     1.0  0.74333  0.37025  0.29004  1.0000
  C   C2055     1.0  0.73334  0.38497  0.29728  1.0000
  C   C2056     1.0  0.73136  0.38432  0.31534  1.0000
  C   C2057     1.0  0.73932  0.36897  0.32619  1.0000
  H   H3666     1.0  0.75883  0.34337  0.29544  1.0000
  H   H3667     1.0  0.74458  0.37054  0.27619  1.0000
  H   H3668     1.0  0.72325  0.39541  0.32112  1.0000
  H   H3669     1.0  0.73751  0.36841  0.34023  1.0000
  C   C2058     1.0  0.62924  0.37138  0.43005  1.0000
  H   H3670     1.0  0.70478  0.16556  0.20578  1.0000
  C   C2059     1.0  0.66110  0.02464  0.04384  1.0000
  C   C2060     1.0  0.69148  0.42277  0.38933  1.0000
  C   C2061     1.0  0.67738  0.41627  0.40175  1.0000
  C   C2062     1.0  0.67728  0.39805  0.40565  1.0000
  C   C2063     1.0  0.69081  0.38630  0.39654  1.0000
  C   C2064     1.0  0.70437  0.39296  0.38329  1.0000
  C   C2065     1.0  0.70485  0.41112  0.37990  1.0000
  H   H3671     1.0  0.66688  0.42516  0.40885  1.0000
  H   H3672     1.0  0.66666  0.39303  0.41580  1.0000
  H   H3673     1.0  0.71485  0.38398  0.37620  1.0000
  H   H3674     1.0  0.71580  0.41605  0.37023  1.0000
  C   C2066     1.0  0.61447  0.41432  0.39746  1.0000
  H   H3675     1.0  0.60243  0.12208  0.03787  1.0000
  S   S494      1.0  0.62252  0.08003  0.11715  1.0000
  H   H3676     1.0  0.73986  0.11686  0.45978  1.0000
  C   C2067     1.0  0.62598  0.43521  0.40625  1.0000
  C   C2068     1.0  0.62884  0.42001  0.39943  1.0000
  C   C2069     1.0  0.69372  0.16897  0.04229  1.0000
  C   C2070     1.0  0.72288  0.43284  0.32233  1.0000
  H   H3677     1.0  0.63717  0.43953  0.40756  1.0000
  H   H3678     1.0  0.64227  0.41255  0.39583  1.0000
  S   S495      1.0  0.60551  0.16664  0.20260  1.0000
  C   C2071     1.0  0.69686  0.32690  0.21953  1.0000
  C   C2072     1.0  0.69434  0.34417  0.22195  1.0000
  C   C2073     1.0  0.70811  0.34958  0.22544  1.0000
  C   C2074     1.0  0.72449  0.33770  0.22655  1.0000
  C   C2075     1.0  0.72719  0.32049  0.22378  1.0000
  C   C2076     1.0  0.71330  0.31502  0.22047  1.0000
  H   H3679     1.0  0.68169  0.35333  0.22124  1.0000
  H   H3680     1.0  0.70589  0.36290  0.22745  1.0000
  H   H3681     1.0  0.73990  0.31134  0.22434  1.0000
  H   H3682     1.0  0.74922  0.10337  0.47858  1.0000
  C   C2077     1.0  0.68329  0.28650  0.31048  1.0000
  C   C2078     1.0  0.69564  0.28356  0.32113  1.0000
  C   C2079     1.0  0.69395  0.29554  0.33189  1.0000
  C   C2080     1.0  0.67944  0.31011  0.33255  1.0000
  C   C2081     1.0  0.66678  0.31256  0.32246  1.0000
  C   C2082     1.0  0.66882  0.30096  0.31131  1.0000
  H   H3683     1.0  0.70662  0.27210  0.32091  1.0000
  H   H3684     1.0  0.70357  0.29326  0.33996  1.0000
  H   H3685     1.0  0.65531  0.32354  0.32333  1.0000
  H   H3686     1.0  0.65913  0.30321  0.30338  1.0000
  C   C2083     1.0  0.72240  0.22729  0.39679  1.0000
  C   C2084     1.0  0.72058  0.24313  0.38385  1.0000
  C   C2085     1.0  0.72096  0.25921  0.38759  1.0000
  C   C2086     1.0  0.72351  0.25943  0.40416  1.0000
  C   C2087     1.0  0.72519  0.24362  0.41713  1.0000
  C   C2088     1.0  0.72449  0.22763  0.41351  1.0000
  H   H3687     1.0  0.71950  0.24289  0.37077  1.0000
  H   H3688     1.0  0.71971  0.27129  0.37750  1.0000
  H   H3689     1.0  0.72712  0.24371  0.42999  1.0000
  H   H3690     1.0  0.72565  0.21549  0.42366  1.0000
  H   H3691     1.0  0.67892  0.01561  0.16557  1.0000
  S   S496      1.0  0.72517  0.11430  0.01677  1.0000
  H   H3692     1.0  0.63017  0.25387  0.38350  1.0000
  C   C2089     1.0  0.78893  0.10660  0.23690  1.0000
  H   H3693     1.0  0.70221  0.45314  0.34531  1.0000
  C   C2090     1.0  0.77564  0.12854  0.33689  1.0000
  H   H3694     1.0  0.66778  0.03483  0.00720  1.0000
  C   C2091     1.0  0.65849  0.41073  0.45530  1.0000
  H   H3695     1.0  0.60536  0.31533  0.46761  1.0000
  C   C2092     1.0  0.76727  0.14003  0.36384  1.0000
  C   C2093     1.0  0.76489  0.14105  0.34682  1.0000
  C   C2094     1.0  0.79687  0.36480  0.25377  1.0000
  H   H3696     1.0  0.64609  0.11124  0.06062  1.0000
  H   H3697     1.0  0.75907  0.14982  0.37139  1.0000
  H   H3698     1.0  0.75508  0.15182  0.34117  1.0000
  C   C2095     1.0  0.60826  0.32784  0.30120  1.0000
  C   C2096     1.0  0.71559  0.40603  0.45567  1.0000
  C   C2097     1.0  0.77512  0.42610  0.21867  1.0000
  C   C2098     1.0  0.77371  0.42617  0.20157  1.0000
  C   C2099     1.0  0.78912  0.42421  0.18813  1.0000
  C   C2100     1.0  0.60277  0.19438  0.08810  1.0000
  H   H3699     1.0  0.76324  0.42785  0.22904  1.0000
  H   H3700     1.0  0.79578  0.36174  0.18377  1.0000
  C   C2101     1.0  0.76447  0.08665  0.23692  1.0000
  C   C2102     1.0  0.76247  0.10459  0.22813  1.0000
  C   C2103     1.0  0.77487  0.11441  0.22788  1.0000
  H   H3701     1.0  0.79691  0.30523  0.20490  1.0000
  H   H3702     1.0  0.64711  0.13687  0.99789  1.0000
  C   C2104     1.0  0.77868  0.07883  0.24567  1.0000
  H   H3703     1.0  0.75160  0.11077  0.22131  1.0000
  H   H3704     1.0  0.77348  0.12819  0.22087  1.0000
  H   H3705     1.0  0.61669  0.44050  0.24485  1.0000
  H   H3706     1.0  0.71278  0.48512  0.24112  1.0000
  C   C2105     1.0  0.66373  0.04196  0.22186  1.0000
  C   C2106     1.0  0.66243  0.05031  0.20423  1.0000
  C   C2107     1.0  0.65022  0.04653  0.19650  1.0000
  C   C2108     1.0  0.63903  0.03481  0.20657  1.0000
  C   C2109     1.0  0.64042  0.02667  0.22413  1.0000
  C   C2110     1.0  0.65285  0.02998  0.23159  1.0000
  H   H3707     1.0  0.67089  0.05951  0.19656  1.0000
  H   H3708     1.0  0.64907  0.05307  0.18300  1.0000
  H   H3709     1.0  0.65377  0.02345  0.24518  1.0000
  H   H3710     1.0  0.78354  0.21584  0.08489  1.0000
  C   C2111     1.0  0.75463  0.13550  0.13859  1.0000
  C   C2112     1.0  0.74258  0.13745  0.15465  1.0000
  C   C2113     1.0  0.73002  0.12667  0.16189  1.0000
  C   C2114     1.0  0.72970  0.11378  0.15321  1.0000
  C   C2115     1.0  0.74147  0.11213  0.13692  1.0000
  C   C2116     1.0  0.75388  0.12308  0.12957  1.0000
  H   H3711     1.0  0.74281  0.14740  0.16141  1.0000
  H   H3712     1.0  0.72044  0.12852  0.17404  1.0000
  H   H3713     1.0  0.74120  0.10220  0.13017  1.0000
  H   H3714     1.0  0.76319  0.12165  0.11714  1.0000
  C   C2117     1.0  0.71819  0.02392  0.08038  1.0000
  C   C2118     1.0  0.72421  0.00847  0.09235  1.0000
  H   H3715     1.0  0.61257  0.16942  0.04130  1.0000
  C   C2119     1.0  0.69592  0.01324  0.11334  1.0000
  C   C2120     1.0  0.69004  0.02917  0.10177  1.0000
  C   C2121     1.0  0.70116  0.03446  0.08516  1.0000
  H   H3716     1.0  0.66667  0.01439  0.00259  1.0000
  H   H3717     1.0  0.77377  0.07540  0.30728  1.0000
  H   H3718     1.0  0.67680  0.03708  0.10542  1.0000
  H   H3719     1.0  0.69649  0.04649  0.07601  1.0000
  H   H3720     1.0  0.61673  0.19827  0.24258  1.0000
  C   C2122     1.0  0.73951  0.13288  0.03178  1.0000
  C   C2123     1.0  0.75230  0.13544  0.03951  1.0000
  C   C2124     1.0  0.76790  0.12240  0.04109  1.0000
  H   H3721     1.0  0.65189  0.07423  0.25277  1.0000
  H   H3722     1.0  0.72796  0.14338  0.02986  1.0000
  H   H3723     1.0  0.75031  0.14769  0.04385  1.0000
  C   C2125     1.0  0.62368  0.13159  0.01764  1.0000
  H   H3724     1.0  0.76305  0.09738  0.40588  1.0000
  C   C2126     1.0  0.61006  0.06200  0.23701  1.0000
  H   H3725     1.0  0.60753  0.40211  0.44083  1.0000
  C   C2127     1.0  0.63983  0.26275  0.21133  1.0000
  C   C2128     1.0  0.64394  0.22975  0.41170  1.0000
  H   H3726     1.0  0.77700  0.13889  0.48862  1.0000
  C   C2129     1.0  0.63398  0.25726  0.34430  1.0000
  H   H3727     1.0  0.71151  0.39327  0.46297  1.0000
  H   H3728     1.0  0.67859  0.11871  0.06907  1.0000
  S   S497      1.0  0.70228  0.04444  0.02458  1.0000
  C   C2130     1.0  0.62660  0.09216  0.24855  1.0000
  H   H3729     1.0  0.72121  0.44440  0.26301  1.0000
  H   H3730     1.0  0.61733  0.17574  0.25524  1.0000
  C   C2131     1.0  0.65147  0.13676  0.23020  1.0000
  C   C2132     1.0  0.63383  0.13759  0.23975  1.0000
  C   C2133     1.0  0.61965  0.14605  0.23107  1.0000
  C   C2134     1.0  0.62314  0.15434  0.21303  1.0000
  C   C2135     1.0  0.64078  0.15350  0.20356  1.0000
  C   C2136     1.0  0.65494  0.14448  0.21208  1.0000
  H   H3731     1.0  0.63116  0.13176  0.25384  1.0000
  H   H3732     1.0  0.62899  0.13244  0.09002  1.0000
  H   H3733     1.0  0.64353  0.16000  0.18969  1.0000
  H   H3734     1.0  0.66858  0.14405  0.20485  1.0000
  C   C2137     1.0  0.69239  0.18555  0.13143  1.0000
  C   C2138     1.0  0.68368  0.19521  0.11761  1.0000
  C   C2139     1.0  0.69340  0.19813  0.09998  1.0000
  C   C2140     1.0  0.71178  0.19118  0.09616  1.0000
  C   C2141     1.0  0.72033  0.18109  0.10996  1.0000
  C   C2142     1.0  0.71068  0.17833  0.12756  1.0000
  H   H3735     1.0  0.66951  0.20058  0.12047  1.0000
  H   H3736     1.0  0.68669  0.20586  0.08935  1.0000
  H   H3737     1.0  0.73448  0.17570  0.10727  1.0000
  H   H3738     1.0  0.71745  0.17072  0.13819  1.0000
  C   C2143     1.0  0.71989  0.48981  0.20455  1.0000
  C   C2144     1.0  0.66453  0.40636  0.36407  1.0000
  H   H3739     1.0  0.65834  0.46232  0.25614  1.0000
  H   H3740     1.0  0.69351  0.37805  0.32633  1.0000
  H   H3741     1.0  0.68505  0.38988  0.34888  1.0000
  H   H3742     1.0  0.65147  0.41567  0.36330  1.0000
  H   H3743     1.0  0.67281  0.41290  0.36826  1.0000
  H   H3744     1.0  0.63112  0.00907  0.05482  1.0000
  C   C2145     1.0  0.61830  0.09028  0.20358  1.0000
  H   H3745     1.0  0.69925  0.34010  0.31512  1.0000
  H   H3746     1.0  0.69747  0.24063  0.13647  1.0000
  H   H3747     1.0  0.64178  0.05028  0.06083  1.0000
  H   H3748     1.0  0.71048  0.26328  0.12827  1.0000
  H   H3749     1.0  0.61604  0.19434  0.07996  1.0000
  N   N118      1.0  0.72829  0.23388  0.10896  1.0000
  H   H3750     1.0  0.63021  0.14576  0.10461  1.0000
  H   H3751     1.0  0.69502  0.17074  0.06866  1.0000
  C   C2146     1.0  0.65192  0.11012  0.01380  1.0000
  C   C2147     1.0  0.73168  0.45220  0.25606  1.0000
  H   H3752     1.0  0.71048  0.15031  0.24410  1.0000
  C   C2148     1.0  0.62329  0.14521  0.09453  1.0000
  H   H3753     1.0  0.67985  0.41285  0.33755  1.0000
  H   H3754     1.0  0.71530  0.30168  0.21847  1.0000
  C   C2149     1.0  0.73378  0.27129  0.12885  1.0000
  H   H3755     1.0  0.73254  0.28277  0.11737  1.0000
  H   H3756     1.0  0.72726  0.27620  0.14129  1.0000
  H   H3757     1.0  0.74815  0.26569  0.12895  1.0000
  H   H3758     1.0  0.61906  0.10534  0.25137  1.0000
  H   H3759     1.0  0.68099  0.22789  0.37344  1.0000
  H   H3760     1.0  0.64246  0.08926  0.26782  1.0000
  C   C2150     1.0  0.77019  0.36794  0.17539  1.0000
  C   C2151     1.0  0.64865  0.05962  0.08010  1.0000
  C   C2152     1.0  0.64688  0.46328  0.21784  1.0000
  C   C2153     1.0  0.69801  0.45309  0.18884  1.0000
  S   S498      1.0  0.59896  0.38193  0.35718  1.0000
  H   H3761     1.0  0.66358  0.12832  0.03554  1.0000
  H   H3762     1.0  0.66758  0.09621  0.06065  1.0000
  H   H3763     1.0  0.74283  0.35110  0.19344  1.0000
  H   H3764     1.0  0.74790  0.24854  0.10778  1.0000
  C   C2154     1.0  0.65367  0.44536  0.21686  1.0000
  H   H3765     1.0  0.60054  0.05631  0.08287  1.0000
  H   H3766     1.0  0.76288  0.37118  0.18856  1.0000
  H   H3767     1.0  0.76423  0.37875  0.16521  1.0000
  C   C2155     1.0  0.73553  0.39153  0.42221  1.0000
  C   C2156     1.0  0.70348  0.46489  0.21296  1.0000
  Fe  Fe253     1.0  0.63293  0.30592  0.26924  1.0000
  H   H3768     1.0  0.70866  0.18316  0.05049  1.0000
  C   C2157     1.0  0.70384  0.17051  0.05532  1.0000
  S   S499      1.0  0.70183  0.08534  0.00047  1.0000
  H   H3769     1.0  0.65396  0.10238  0.08100  1.0000
  H   H3770     1.0  0.71563  0.15932  0.05636  1.0000
  H   H3771     1.0  0.62327  0.33048  0.20151  1.0000
  H   H3772     1.0  0.65478  0.28802  0.39976  1.0000
  C   C2158     1.0  0.78283  0.30457  0.20631  1.0000
  H   H3773     1.0  0.70904  0.40178  0.41666  1.0000
  H   H3774     1.0  0.66365  0.02306  0.08651  1.0000
  H   H3775     1.0  0.70257  0.47713  0.35719  1.0000
  H   H3776     1.0  0.60805  0.40398  0.31325  1.0000
  C   C2159     1.0  0.64456  0.28866  0.37682  1.0000
  N   N119      1.0  0.74561  0.10108  0.29281  1.0000
  C   C2160     1.0  0.75278  0.08178  0.29164  1.0000
  C   C2161     1.0  0.72615  0.10588  0.29189  1.0000
  C   C2162     1.0  0.75625  0.11243  0.27765  1.0000
  C   C2163     1.0  0.74722  0.10424  0.31001  1.0000
  C   C2164     1.0  0.73914  0.09204  0.32730  1.0000
  N   N120      1.0  0.61265  0.09447  0.22187  1.0000
  C   C2165     1.0  0.74981  0.13289  0.27620  1.0000
  C   C2166     1.0  0.72225  0.10674  0.27360  1.0000
  C   C2167     1.0  0.70221  0.11109  0.27438  1.0000
  C   C2168     1.0  0.74233  0.09627  0.34359  1.0000
  Fe  Fe254     1.0  0.68677  0.07208  0.02627  1.0000
  C   C2169     1.0  0.75977  0.14322  0.25915  1.0000
  H   H3777     1.0  0.75287  0.07998  0.27830  1.0000
  H   H3778     1.0  0.74378  0.07329  0.30113  1.0000
  H   H3779     1.0  0.71893  0.09605  0.30186  1.0000
  H   H3780     1.0  0.71947  0.11886  0.29580  1.0000
  H   H3781     1.0  0.75677  0.10931  0.26479  1.0000
  H   H3782     1.0  0.77043  0.10918  0.27883  1.0000
  H   H3783     1.0  0.76145  0.10311  0.30999  1.0000
  H   H3784     1.0  0.74060  0.11816  0.31130  1.0000
  H   H3785     1.0  0.74527  0.07777  0.32746  1.0000
  H   H3786     1.0  0.72453  0.09407  0.32873  1.0000
  H   H3787     1.0  0.79539  0.37514  0.20872  1.0000
  C   C2170     1.0  0.78813  0.11448  0.34432  1.0000
  H   H3788     1.0  0.75232  0.13672  0.28750  1.0000
  H   H3789     1.0  0.73539  0.13745  0.27619  1.0000
  H   H3790     1.0  0.72791  0.11723  0.26307  1.0000
  H   H3791     1.0  0.72794  0.09383  0.26942  1.0000
  H   H3792     1.0  0.69582  0.10061  0.28420  1.0000
  H   H3793     1.0  0.69584  0.12422  0.27796  1.0000
  H   H3794     1.0  0.69989  0.11167  0.26112  1.0000
  H   H3795     1.0  0.75687  0.09393  0.34297  1.0000
  H   H3796     1.0  0.70616  0.04849  0.13725  1.0000
  C   C2171     1.0  0.78256  0.12634  0.17744  1.0000
  H   H3797     1.0  0.74349  0.24491  0.04561  1.0000
  C   C2172     1.0  0.68157  0.48172  0.31237  1.0000
  H   H3798     1.0  0.73185  0.44967  0.23009  1.0000
  H   H3799     1.0  0.77440  0.13887  0.25821  1.0000
  H   H3800     1.0  0.75642  0.14118  0.24736  1.0000
  H   H3801     1.0  0.75586  0.15767  0.25915  1.0000
  C   C2173     1.0  0.66438  0.43979  0.24387  1.0000
  H   H3802     1.0  0.68210  0.18040  0.04179  1.0000
  H   H3803     1.0  0.76564  0.16197  0.16723  1.0000
  H   H3804     1.0  0.68131  0.39290  0.44412  1.0000
  Fe  Fe255     1.0  0.71841  0.05762  0.99944  1.0000
  H   H3805     1.0  0.74193  0.38511  0.43376  1.0000
  H   H3806     1.0  0.61864  0.10281  0.08352  1.0000
  H   H3807     1.0  0.64682  0.02753  0.01400  1.0000
  H   H3808     1.0  0.65782  0.46100  0.32790  1.0000
  H   H3809     1.0  0.64163  0.40387  0.21683  1.0000
  H   H3810     1.0  0.63951  0.29917  0.36589  1.0000
  C   C2174     1.0  0.70337  0.02494  0.15822  1.0000
  C   C2175     1.0  0.67688  0.14867  0.00412  1.0000
  C   C2176     1.0  0.61421  0.32733  0.43963  1.0000
  C   C2177     1.0  0.78970  0.36989  0.17240  1.0000
  H   H3811     1.0  0.74752  0.13157  0.48806  1.0000
  H   H3812     1.0  0.65471  0.42104  0.46340  1.0000
  C   C2178     1.0  0.60216  0.11337  0.22129  1.0000
  H   H3813     1.0  0.72645  0.42472  0.31209  1.0000
  H   H3814     1.0  0.75346  0.02340  0.09035  1.0000
  H   H3815     1.0  0.77605  0.35971  0.14585  1.0000
  N   N121      1.0  0.67238  0.19068  0.22124  1.0000
  C   C2179     1.0  0.67956  0.19746  0.20169  1.0000
  C   C2180     1.0  0.65313  0.19007  0.22324  1.0000
  C   C2181     1.0  0.67277  0.20289  0.23257  1.0000
  C   C2182     1.0  0.69092  0.20754  0.23062  1.0000
  C   C2183     1.0  0.67092  0.21695  0.19373  1.0000
  C   C2184     1.0  0.68852  0.22306  0.23944  1.0000
  C   C2185     1.0  0.67996  0.22288  0.17433  1.0000
  H   H3816     1.0  0.67804  0.18864  0.19372  1.0000
  H   H3817     1.0  0.69409  0.19676  0.19882  1.0000
  H   H3818     1.0  0.65209  0.18257  0.21379  1.0000
  H   H3819     1.0  0.64503  0.20364  0.21968  1.0000
  H   H3820     1.0  0.66268  0.21555  0.23021  1.0000
  H   H3821     1.0  0.69765  0.21149  0.21655  1.0000
  H   H3822     1.0  0.69976  0.19592  0.23743  1.0000
  H   H3823     1.0  0.65669  0.21827  0.19398  1.0000
  H   H3824     1.0  0.67191  0.22643  0.20113  1.0000
  H   H3825     1.0  0.70174  0.22559  0.23875  1.0000
  H   H3826     1.0  0.68055  0.23540  0.23248  1.0000
  H   H3827     1.0  0.68162  0.22002  0.25364  1.0000
  H   H3828     1.0  0.67844  0.21441  0.16612  1.0000
  H   H3829     1.0  0.67350  0.23687  0.16919  1.0000
  H   H3830     1.0  0.69436  0.22213  0.17305  1.0000
  H   H3831     1.0  0.78267  0.36148  0.22677  1.0000
  H   H3832     1.0  0.60695  0.08801  0.19950  1.0000
  H   H3833     1.0  0.61961  0.37574  0.27800  1.0000
  H   H3834     1.0  0.67337  0.00503  0.20654  1.0000
  C   C2186     1.0  0.78164  0.27252  0.42549  1.0000
  H   H3835     1.0  0.63433  0.03934  0.08333  1.0000
  H   H3836     1.0  0.62070  0.09199  0.04679  1.0000
  C   C2187     1.0  0.77288  0.22154  0.33164  1.0000
  H   H3837     1.0  0.62936  0.39562  0.33286  1.0000
  C   C2188     1.0  0.65104  0.29768  0.38775  1.0000
  H   H3838     1.0  0.73056  0.46258  0.26339  1.0000
  C   C2189     1.0  0.68478  0.15310  0.01765  1.0000
  C   C2190     1.0  0.75641  0.22310  0.34684  1.0000
  C   C2191     1.0  0.77293  0.03983  0.08615  1.0000
  H   H3839     1.0  0.66611  0.24099  0.39562  1.0000
  H   H3840     1.0  0.76402  0.23622  0.41637  1.0000
  H   H3841     1.0  0.71644  0.43035  0.46282  1.0000
  H   H3842     1.0  0.73042  0.40269  0.45289  1.0000
  H   H3843     1.0  0.77678  0.19329  0.33488  1.0000
  H   H3844     1.0  0.64882  0.21701  0.40707  1.0000
  C   C2192     1.0  0.65140  0.24470  0.39766  1.0000
  H   H3845     1.0  0.77957  0.23860  0.15369  1.0000
  Fe  Fe256     1.0  0.62134  0.48024  0.29860  1.0000
  H   H3846     1.0  0.61738  0.40051  0.45916  1.0000
  H   H3847     1.0  0.77021  0.42461  0.27194  1.0000
  H   H3848     1.0  0.76809  0.22443  0.31915  1.0000
  H   H3849     1.0  0.63846  0.27273  0.18361  1.0000
  H   H3850     1.0  0.69262  0.44230  0.19922  1.0000
  Fe  Fe257     1.0  0.61865  0.20405  0.13994  1.0000
  H   H3851     1.0  0.77998  0.23196  0.33091  1.0000
  H   H3852     1.0  0.64911  0.16695  0.24522  1.0000
  H   H3853     1.0  0.66564  0.10675  0.00692  1.0000
  H   H3854     1.0  0.65237  0.44067  0.20588  1.0000
  H   H3855     1.0  0.75553  0.49344  0.19099  1.0000
  C   C2193     1.0  0.78015  0.12630  0.37108  1.0000
  H   H3856     1.0  0.69102  0.45655  0.17769  1.0000
  H   H3857     1.0  0.62227  0.36388  0.22142  1.0000
  C   C2194     1.0  0.62169  0.39609  0.30910  1.0000
  H   H3858     1.0  0.74773  0.23659  0.34428  1.0000
  H   H3859     1.0  0.74855  0.21310  0.34807  1.0000
  H   H3860     1.0  0.76039  0.22097  0.35970  1.0000
  H   H3861     1.0  0.67618  0.13444  0.00747  1.0000
  H   H3862     1.0  0.69513  0.44120  0.32163  1.0000
  H   H3863     1.0  0.68594  0.12104  0.03782  1.0000
  S   S500      1.0  0.65700  0.07600  0.03426  1.0000
  H   H3864     1.0  0.65726  0.13365  0.06904  1.0000
  C   C2195     1.0  0.69516  0.49109  0.29744  1.0000
  C   C2196     1.0  0.60767  0.33086  0.33574  1.0000
  C   C2197     1.0  0.67024  0.47046  0.34427  1.0000
  H   H3865     1.0  0.66923  0.03499  0.03843  1.0000
  H   H3866     1.0  0.79120  0.16607  0.33660  1.0000
  H   H3867     1.0  0.79106  0.04824  0.29652  1.0000
  S   S501      1.0  0.64651  0.48749  0.28111  1.0000
  N   N122      1.0  0.73946  0.29408  0.27817  1.0000
  C   C2198     1.0  0.73978  0.29407  0.29694  1.0000
  C   C2199     1.0  0.72164  0.30455  0.27395  1.0000
  C   C2200     1.0  0.74087  0.27507  0.27721  1.0000
  C   C2201     1.0  0.75484  0.30098  0.26467  1.0000
  C   C2202     1.0  0.76133  0.31612  0.26828  1.0000
  C   C2203     1.0  0.75596  0.28128  0.30419  1.0000
  C   C2204     1.0  0.73841  0.27256  0.25947  1.0000
  C   C2205     1.0  0.71399  0.32270  0.27936  1.0000
  C   C2206     1.0  0.69585  0.33125  0.27447  1.0000
  C   C2207     1.0  0.77787  0.32036  0.25431  1.0000
  C   C2208     1.0  0.75747  0.28534  0.32125  1.0000
  H   H3868     1.0  0.72762  0.29030  0.30619  1.0000
  H   H3869     1.0  0.73908  0.30772  0.29841  1.0000
  H   H3870     1.0  0.72212  0.30703  0.25949  1.0000
  H   H3871     1.0  0.71120  0.29658  0.28061  1.0000
  H   H3872     1.0  0.73072  0.26904  0.28815  1.0000
  H   H3873     1.0  0.75409  0.26666  0.27926  1.0000
  H   H3874     1.0  0.76680  0.28992  0.26315  1.0000
  H   H3875     1.0  0.75162  0.30577  0.25124  1.0000
  H   H3876     1.0  0.76523  0.31238  0.28132  1.0000
  H   H3877     1.0  0.75095  0.32853  0.26801  1.0000
  H   H3878     1.0  0.75434  0.26728  0.30743  1.0000
  H   H3879     1.0  0.76866  0.28220  0.29430  1.0000
  H   H3880     1.0  0.74773  0.27880  0.24793  1.0000
  H   H3881     1.0  0.72454  0.27861  0.25765  1.0000
  H   H3882     1.0  0.71179  0.32093  0.29396  1.0000
  H   H3883     1.0  0.72286  0.33207  0.27245  1.0000
  H   H3884     1.0  0.69685  0.33292  0.26004  1.0000
  H   H3885     1.0  0.68610  0.32280  0.28186  1.0000
  H   H3886     1.0  0.69085  0.34454  0.27791  1.0000
  H   H3887     1.0  0.75968  0.09216  0.02260  1.0000
  C   C2209     1.0  0.61477  0.39642  0.24725  1.0000
  C   C2210     1.0  0.78545  0.38932  0.26926  1.0000
  H   H3888     1.0  0.74547  0.28324  0.33188  1.0000
  H   H3889     1.0  0.76940  0.27628  0.32582  1.0000
  C   C2211     1.0  0.61770  0.36442  0.24955  1.0000
  C   C2212     1.0  0.66002  0.38481  0.20254  1.0000
  H   H3890     1.0  0.64242  0.15391  0.02658  1.0000
  H   H3891     1.0  0.63599  0.41047  0.24473  1.0000
  H   H3892     1.0  0.65913  0.39426  0.18959  1.0000
  H   H3893     1.0  0.67201  0.38562  0.20658  1.0000
  H   H3894     1.0  0.61971  0.34094  0.45705  1.0000
  H   H3895     1.0  0.78173  0.07979  0.28358  1.0000
  C   C2213     1.0  0.65126  0.35570  0.39761  1.0000
  C   C2214     1.0  0.65128  0.35327  0.37927  1.0000
  C   C2215     1.0  0.61977  0.31714  0.32822  1.0000
  H   H3896     1.0  0.64019  0.37777  0.42122  1.0000
  H   H3897     1.0  0.66102  0.35106  0.42930  1.0000
  H   H3898     1.0  0.65118  0.36986  0.39630  1.0000
  H   H3899     1.0  0.66388  0.34761  0.40123  1.0000
  H   H3900     1.0  0.63797  0.37230  0.45364  1.0000
  H   H3901     1.0  0.68630  0.32555  0.42929  1.0000
  H   H3902     1.0  0.63908  0.36163  0.37467  1.0000
  H   H3903     1.0  0.72615  0.12899  0.48681  1.0000
  H   H3904     1.0  0.78144  0.24429  0.35685  1.0000
  C   C2216     1.0  0.67403  0.40150  0.34620  1.0000
  H   H3905     1.0  0.62912  0.23309  0.41465  1.0000
  C   C2217     1.0  0.61819  0.26757  0.33568  1.0000
  H   H3906     1.0  0.69001  0.24767  0.36796  1.0000
  H   H3907     1.0  0.63737  0.14656  0.05020  1.0000
  H   H3908     1.0  0.66220  0.39417  0.37428  1.0000
  C   C2218     1.0  0.77507  0.15963  0.17604  1.0000
  S   S502      1.0  0.63449  0.02844  0.12053  1.0000
  H   H3909     1.0  0.62384  0.22701  0.23792  1.0000
  C   C2219     1.0  0.76626  0.08436  0.41516  1.0000
  H   H3910     1.0  0.78082  0.24096  0.09896  1.0000
  S   S503      1.0  0.67476  0.48958  0.40309  1.0000
  H   H3911     1.0  0.68048  0.47465  0.20023  1.0000
  H   H3912     1.0  0.70960  0.17724  0.21955  1.0000
  H   H3913     1.0  0.65195  0.33911  0.37962  1.0000
  H   H3914     1.0  0.67692  0.36512  0.33212  1.0000
  N   N123      1.0  0.70911  0.41283  0.43850  1.0000
  H   H3915     1.0  0.70290  0.17023  0.02902  1.0000
  H   H3916     1.0  0.69687  0.22153  0.34357  1.0000
  H   H3917     1.0  0.77536  0.12446  0.19159  1.0000
  H   H3918     1.0  0.69443  0.45767  0.22406  1.0000
  H   H3919     1.0  0.73480  0.37867  0.17325  1.0000
  C   C2220     1.0  0.77590  0.23040  0.43862  1.0000
  C   C2221     1.0  0.65814  0.10727  0.06643  1.0000
  H   H3920     1.0  0.68191  0.36569  0.29884  1.0000
  H   H3921     1.0  0.63164  0.01788  0.23212  1.0000
  N   N124      1.0  0.77886  0.10307  0.44968  1.0000
  S   S504      1.0  0.62445  0.45509  0.31916  1.0000
  N   N125      1.0  0.68613  0.47584  0.33051  1.0000
  H   H3922     1.0  0.65485  0.38134  0.23937  1.0000
  H   H3923     1.0  0.65488  0.38629  0.34711  1.0000
  C   C2222     1.0  0.77693  0.05356  0.29532  1.0000
  H   H3924     1.0  0.64455  0.18741  0.25254  1.0000
  C   C2223     1.0  0.64316  0.38972  0.21646  1.0000
  H   H3925     1.0  0.63837  0.44508  0.35205  1.0000
  H   H3926     1.0  0.71481  0.46655  0.32787  1.0000
  H   H3927     1.0  0.63510  0.46713  0.35544  1.0000
  H   H3928     1.0  0.79661  0.24866  0.13755  1.0000
  C   C2224     1.0  0.76797  0.28896  0.43046  1.0000
  H   H3929     1.0  0.61718  0.37804  0.42434  1.0000
  H   H3930     1.0  0.70071  0.02811  0.19533  1.0000
  C   C2225     1.0  0.73574  0.47808  0.19374  1.0000
  H   H3931     1.0  0.78736  0.06820  0.07318  1.0000
  C   C2226     1.0  0.76746  0.07652  0.09530  1.0000
  H   H3932     1.0  0.72071  0.24129  0.07322  1.0000
  H   H3933     1.0  0.65083  0.05518  0.09388  1.0000
  H   H3934     1.0  0.66861  0.19701  0.24692  1.0000
  C   C2227     1.0  0.60256  0.43445  0.34215  1.0000
  H   H3935     1.0  0.60530  0.35414  0.44269  1.0000
  C   C2228     1.0  0.79343  0.23573  0.09090  1.0000
  H   H3936     1.0  0.76225  0.21102  0.11376  1.0000
  C   C2229     1.0  0.66077  0.39736  0.33762  1.0000
  H   H3937     1.0  0.64811  0.08663  0.17409  1.0000
  C   C2230     1.0  0.77053  0.10682  0.03484  1.0000
  H   H3938     1.0  0.62291  0.35734  0.40697  1.0000
  H   H3939     1.0  0.75947  0.26173  0.38812  1.0000
  H   H3940     1.0  0.61081  0.05751  0.05955  1.0000
  H   H3941     1.0  0.64022  0.30878  0.39202  1.0000
  H   H3942     1.0  0.66312  0.35732  0.36953  1.0000
  H   H3943     1.0  0.67756  0.31961  0.45300  1.0000
  C   C2231     1.0  0.68246  0.37592  0.32172  1.0000
  C   C2232     1.0  0.68225  0.17185  0.22755  1.0000
  C   C2233     1.0  0.70259  0.16699  0.21972  1.0000
  C   C2234     1.0  0.64361  0.35551  0.27300  1.0000
  C   C2235     1.0  0.66259  0.02926  0.07251  1.0000
  C   C2236     1.0  0.77788  0.23362  0.41826  1.0000
  C   C2237     1.0  0.70987  0.41886  0.46862  1.0000
  C   C2238     1.0  0.68857  0.49345  0.22101  1.0000
  H   H3944     1.0  0.79445  0.32269  0.13365  1.0000
  C   C2239     1.0  0.66271  0.43370  0.22967  1.0000
  H   H3945     1.0  0.66036  0.06479  0.07131  1.0000
  H   H3946     1.0  0.67433  0.03556  0.06628  1.0000
  H   H3947     1.0  0.66908  0.26847  0.37791  1.0000
  C   C2240     1.0  0.77253  0.07179  0.07671  1.0000
  C   C2241     1.0  0.67313  0.13019  0.04239  1.0000
  H   H3948     1.0  0.64958  0.40923  0.33712  1.0000
  H   H3949     1.0  0.66153  0.37111  0.20075  1.0000
  S   S505      1.0  0.79840  0.15089  0.07946  1.0000
  C   C2242     1.0  0.64345  0.18148  0.24199  1.0000
  H   H3950     1.0  0.62598  0.40007  0.29445  1.0000
  H   H3951     1.0  0.67671  0.16212  0.22413  1.0000
  H   H3952     1.0  0.60833  0.26854  0.27368  1.0000
  C   C2243     1.0  0.79036  0.38916  0.17094  1.0000
  C   C2244     1.0  0.62353  0.18412  0.24279  1.0000
  H   H3953     1.0  0.77051  0.10409  0.08661  1.0000
  H   H3954     1.0  0.77359  0.09348  0.10887  1.0000
  H   H3955     1.0  0.78304  0.09118  0.47653  1.0000
  C   C2245     1.0  0.67863  0.40326  0.45192  1.0000
  H   H3956     1.0  0.74258  0.46639  0.20233  1.0000
  H   H3957     1.0  0.67443  0.14597  0.17449  1.0000
  C   C2246     1.0  0.63520  0.34969  0.41175  1.0000
  H   H3958     1.0  0.78733  0.19952  0.34841  1.0000
  C   C2247     1.0  0.70097  0.23049  0.34946  1.0000
  H   H3959     1.0  0.68271  0.30339  0.43940  1.0000
  H   H3960     1.0  0.65409  0.41669  0.44251  1.0000
  H   H3961     1.0  0.77258  0.09801  0.16041  1.0000
  H   H3962     1.0  0.78066  0.07206  0.43583  1.0000
  C   C2248     1.0  0.70570  0.35154  0.30846  1.0000
  C   C2249     1.0  0.65060  0.34335  0.43695  1.0000
  H   H3963     1.0  0.78281  0.09692  0.03546  1.0000
  H   H3964     1.0  0.66216  0.12747  0.14291  1.0000
  H   H3965     1.0  0.67711  0.12271  0.17510  1.0000
  H   H3966     1.0  0.68903  0.43829  0.29547  1.0000
  H   H3967     1.0  0.71612  0.45492  0.21050  1.0000
  H   H3968     1.0  0.71397  0.35277  0.31701  1.0000
  N   N126      1.0  0.63350  0.35163  0.43046  1.0000
  C   C2250     1.0  0.70261  0.46098  0.33139  1.0000
  C   C2251     1.0  0.74178  0.25282  0.25931  1.0000
  H   H3969     1.0  0.68002  0.16847  0.24234  1.0000
  C   C2252     1.0  0.62019  0.31815  0.20028  1.0000
  S   S506      1.0  0.60526  0.46352  0.42051  1.0000
  Fe  Fe258     1.0  0.66573  0.30392  0.23928  1.0000
  C   C2253     1.0  0.76966  0.25083  0.38283  1.0000
  S   S507      1.0  0.60724  0.33126  0.35783  1.0000
  H   H3970     1.0  0.75868  0.10639  0.17960  1.0000
  H   H3971     1.0  0.61933  0.08188  0.25731  1.0000
  H   H3972     1.0  0.75610  0.09516  0.44656  1.0000
  H   H3973     1.0  0.72006  0.42405  0.33571  1.0000
  C   C2254     1.0  0.61996  0.39693  0.44607  1.0000
  H   H3974     1.0  0.62229  0.27822  0.32429  1.0000
  C   C2255     1.0  0.67154  0.13643  0.16839  1.0000
  H   H3975     1.0  0.69477  0.13816  0.14777  1.0000
  H   H3976     1.0  0.64005  0.10793  0.16063  1.0000
  H   H3977     1.0  0.63956  0.38390  0.26785  1.0000
  H   H3978     1.0  0.64467  0.25176  0.33378  1.0000
  C   C2256     1.0  0.77808  0.00607  0.09522  1.0000
  C   C2257     1.0  0.64437  0.37762  0.23515  1.0000
  C   C2258     1.0  0.72990  0.46065  0.23683  1.0000
  C   C2259     1.0  0.74971  0.48873  0.18241  1.0000
  C   C2260     1.0  0.79538  0.36621  0.22205  1.0000
  C   C2261     1.0  0.77792  0.08541  0.42705  1.0000
  H   H3979     1.0  0.63630  0.33571  0.41119  1.0000
  C   C2262     1.0  0.65839  0.32343  0.43657  1.0000
  H   H3980     1.0  0.65687  0.13836  0.17033  1.0000
  H   H3981     1.0  0.72333  0.10806  0.09579  1.0000
  N   N127      1.0  0.66822  0.39281  0.31954  1.0000
  C   C2263     1.0  0.72482  0.25704  0.12777  1.0000
  H   H3982     1.0  0.63100  0.30672  0.20414  1.0000
  C   C2264     1.0  0.69533  0.04272  0.14718  1.0000
  H   H3983     1.0  0.73635  0.08756  0.35590  1.0000
  H   H3984     1.0  0.73750  0.14428  0.46940  1.0000
  C   C2265     1.0  0.65801  0.16262  0.04049  1.0000
  C   C2266     1.0  0.63539  0.26262  0.19542  1.0000
  H   H3985     1.0  0.68948  0.40724  0.30961  1.0000
  H   H3986     1.0  0.66080  0.43078  0.31673  1.0000
  H   H3987     1.0  0.72618  0.24616  0.13967  1.0000
  Fe  Fe259     1.0  0.62489  0.05211  0.13325  1.0000
  C   C2267     1.0  0.78664  0.15695  0.46464  1.0000
  H   H3988     1.0  0.67379  0.46472  0.35751  1.0000
  C   C2268     1.0  0.71137  0.14926  0.23030  1.0000
  H   H3989     1.0  0.70475  0.13851  0.23081  1.0000
  H   H3990     1.0  0.73969  0.25144  0.24660  1.0000
  H   H3991     1.0  0.76584  0.13102  0.44748  1.0000
  H   H3992     1.0  0.72909  0.26184  0.09953  1.0000
  H   H3993     1.0  0.77209  0.12951  0.16961  1.0000
  H   H3994     1.0  0.71839  0.35120  0.16619  1.0000
  H   H3995     1.0  0.70951  0.37485  0.16377  1.0000
  H   H3996     1.0  0.65900  0.17579  0.03137  1.0000
  H   H3997     1.0  0.78612  0.39952  0.25667  1.0000
  H   H3998     1.0  0.62532  0.02517  0.06839  1.0000
  H   H3999     1.0  0.64876  0.34431  0.45097  1.0000
  H   H4000     1.0  0.72453  0.22014  0.13687  1.0000
  C   C2269     1.0  0.68027  0.13988  0.14868  1.0000
  H   H4001     1.0  0.71065  0.12455  0.12264  1.0000
  H   H4002     1.0  0.68301  0.11338  0.14619  1.0000
  C   C2270     1.0  0.69167  0.36859  0.30464  1.0000
  H   H4003     1.0  0.65288  0.37477  0.31795  1.0000
  H   H4004     1.0  0.65013  0.36364  0.23349  1.0000
  H   H4005     1.0  0.73231  0.24622  0.27044  1.0000
  H   H4006     1.0  0.75365  0.08052  0.42331  1.0000
  C   C2271     1.0  0.70875  0.23723  0.10861  1.0000
  H   H4007     1.0  0.65771  0.34036  0.29369  1.0000
  C   C2272     1.0  0.64478  0.24822  0.38017  1.0000
  H   H4008     1.0  0.77196  0.29347  0.44050  1.0000
  C   C2273     1.0  0.70161  0.13434  0.11434  1.0000
  C   C2274     1.0  0.78105  0.33033  0.13144  1.0000
  C   C2275     1.0  0.66176  0.45670  0.34095  1.0000
  H   H4009     1.0  0.70245  0.44885  0.44283  1.0000
  S   S508      1.0  0.66000  0.31129  0.26560  1.0000
  C   C2276     1.0  0.60098  0.08202  0.23387  1.0000
  H   H4010     1.0  0.65586  0.35281  0.26262  1.0000
  H   H4011     1.0  0.63731  0.35510  0.30138  1.0000
  H   H4012     1.0  0.70065  0.14718  0.11785  1.0000
  H   H4013     1.0  0.67494  0.15383  0.14286  1.0000
  C   C2277     1.0  0.67684  0.40712  0.30625  1.0000
  H   H4014     1.0  0.72567  0.14555  0.22384  1.0000
  C   C2278     1.0  0.67674  0.43925  0.29100  1.0000
  C   C2279     1.0  0.63200  0.37425  0.26737  1.0000
  H   H4015     1.0  0.71478  0.34900  0.29579  1.0000
  H   H4016     1.0  0.60951  0.12877  0.12650  1.0000
  H   H4017     1.0  0.79353  0.26031  0.37882  1.0000
  H   H4018     1.0  0.61663  0.22637  0.20976  1.0000
  H   H4019     1.0  0.78305  0.04114  0.02611  1.0000
  H   H4020     1.0  0.69678  0.21981  0.13262  1.0000
  C   C2280     1.0  0.67677  0.12691  0.13935  1.0000
  H   H4021     1.0  0.69879  0.37828  0.29454  1.0000
  C   C2281     1.0  0.66561  0.42635  0.30394  1.0000
  H   H4022     1.0  0.66879  0.45306  0.29017  1.0000
  Fe  Fe260     1.0  0.62181  0.22430  0.16701  1.0000
  N   N128      1.0  0.62734  0.37837  0.24935  1.0000
  H   H4023     1.0  0.73099  0.42670  0.42878  1.0000
  H   H4024     1.0  0.78073  0.17166  0.17294  1.0000
  N   N129      1.0  0.66323  0.01538  0.06259  1.0000
  H   H4025     1.0  0.69896  0.14573  0.01604  1.0000
  C   C2282     1.0  0.64919  0.35373  0.29030  1.0000
  H   H4026     1.0  0.74192  0.40272  0.41410  1.0000
  H   H4027     1.0  0.70429  0.25096  0.10099  1.0000
  C   C2283     1.0  0.67738  0.31771  0.43980  1.0000
  C   C2284     1.0  0.78774  0.24895  0.38769  1.0000
  Fe  Fe261     1.0  0.61613  0.18646  0.17898  1.0000
  C   C2285     1.0  0.65693  0.17445  0.09521  1.0000
  H   H4028     1.0  0.76098  0.04766  0.05370  1.0000
  C   C2286     1.0  0.72724  0.12110  0.09111  1.0000
  H   H4029     1.0  0.65894  0.32046  0.42365  1.0000
  H   H4030     1.0  0.76066  0.48007  0.17465  1.0000
  C   C2287     1.0  0.78500  0.20258  0.33472  1.0000
  C   C2288     1.0  0.75591  0.19682  0.14056  1.0000
  H   H4031     1.0  0.65411  0.42745  0.29815  1.0000
  N   N130      1.0  0.68363  0.12943  0.11940  1.0000
  H   H4032     1.0  0.66481  0.16697  0.11999  1.0000
  H   H4033     1.0  0.73742  0.12102  0.09826  1.0000
  H   H4034     1.0  0.75347  0.22811  0.09038  1.0000
  H   H4035     1.0  0.68084  0.40413  0.29274  1.0000
  H   H4036     1.0  0.65693  0.36386  0.28879  1.0000
  H   H4037     1.0  0.67830  0.48660  0.23075  1.0000
  H   H4038     1.0  0.70928  0.45429  0.30501  1.0000
  C   C2289     1.0  0.61807  0.34403  0.44305  1.0000
  C   C2290     1.0  0.69535  0.23431  0.12675  1.0000
  C   C2291     1.0  0.73910  0.22892  0.09161  1.0000
  H   H4039     1.0  0.75554  0.22465  0.12999  1.0000
  C   C2292     1.0  0.71109  0.13630  0.09437  1.0000
  H   H4040     1.0  0.69690  0.10166  0.12097  1.0000
  H   H4041     1.0  0.70201  0.13740  0.08565  1.0000
  C   C2293     1.0  0.65380  0.38905  0.31289  1.0000
  H   H4042     1.0  0.65518  0.16525  0.05409  1.0000
  H   H4043     1.0  0.61305  0.05742  0.22443  1.0000
  H   H4044     1.0  0.75833  0.25594  0.35975  1.0000
  C   C2294     1.0  0.70673  0.44744  0.42883  1.0000
  H   H4045     1.0  0.73338  0.12296  0.07667  1.0000
  S   S509      1.0  0.60840  0.32536  0.27987  1.0000
  C   C2295     1.0  0.73314  0.25042  0.11024  1.0000
  H   H4046     1.0  0.63355  0.41420  0.31511  1.0000
  C   C2296     1.0  0.74815  0.35046  0.17920  1.0000
  C   C2297     1.0  0.68624  0.11162  0.11474  1.0000
  H   H4047     1.0  0.68298  0.16601  0.10081  1.0000
  H   H4048     1.0  0.66471  0.10065  0.13501  1.0000
  H   H4049     1.0  0.65728  0.39108  0.29812  1.0000
  H   H4050     1.0  0.63601  0.34503  0.27556  1.0000
  H   H4051     1.0  0.77294  0.06694  0.17782  1.0000
  H   H4052     1.0  0.75330  0.18532  0.13709  1.0000
  C   C2298     1.0  0.79490  0.22147  0.08300  1.0000
  C   C2299     1.0  0.64456  0.08803  0.25386  1.0000
  H   H4053     1.0  0.76153  0.31531  0.19243  1.0000
  H   H4054     1.0  0.67218  0.14038  0.09597  1.0000
  H   H4055     1.0  0.64032  0.47239  0.20762  1.0000
  H   H4056     1.0  0.78774  0.03777  0.08291  1.0000
  H   H4057     1.0  0.71604  0.14891  0.08991  1.0000
  H   H4058     1.0  0.68413  0.07609  0.12020  1.0000
  S   S510      1.0  0.67958  0.32051  0.21479  1.0000
  H   H4059     1.0  0.65019  0.31511  0.44735  1.0000
  H   H4060     1.0  0.74718  0.19881  0.15360  1.0000
  H   H4061     1.0  0.68067  0.43627  0.27752  1.0000
  H   H4062     1.0  0.73451  0.43854  0.32112  1.0000
  H   H4063     1.0  0.71212  0.01767  0.00352  1.0000
  C   C2300     1.0  0.78856  0.14356  0.47994  1.0000
  H   H4064     1.0  0.79802  0.36578  0.16001  1.0000
  C   C2301     1.0  0.66971  0.16283  0.10711  1.0000
  H   H4065     1.0  0.69100  0.11260  0.10016  1.0000
  H   H4066     1.0  0.60862  0.33108  0.42748  1.0000
  C   C2302     1.0  0.73301  0.21822  0.12375  1.0000
  H   H4067     1.0  0.73010  0.20612  0.12172  1.0000
  H   H4068     1.0  0.66135  0.17163  0.08166  1.0000
  C   C2303     1.0  0.63441  0.39968  0.31831  1.0000
  C   C2304     1.0  0.64087  0.15781  0.03922  1.0000
  C   C2305     1.0  0.67018  0.14281  0.10951  1.0000
  C   C2306     1.0  0.66937  0.10348  0.12034  1.0000
  C   C2307     1.0  0.75257  0.21361  0.12609  1.0000
  C   C2308     1.0  0.67320  0.08588  0.11445  1.0000
  H   H4069     1.0  0.65654  0.18874  0.09408  1.0000
  H   H4070     1.0  0.65642  0.14098  0.11621  1.0000
  H   H4071     1.0  0.76742  0.32222  0.15837  1.0000
  C   C2309     1.0  0.73642  0.36633  0.16852  1.0000
  H   H4072     1.0  0.75891  0.29930  0.31899  1.0000
  H   H4073     1.0  0.74541  0.33797  0.17808  1.0000
  H   H4074     1.0  0.71109  0.36112  0.18550  1.0000
  C   C2310     1.0  0.71782  0.46133  0.41847  1.0000
  H   H4075     1.0  0.74254  0.36874  0.15410  1.0000
  H   H4076     1.0  0.66278  0.30323  0.37970  1.0000
  H   H4077     1.0  0.74129  0.05977  0.09650  1.0000
  C   C2311     1.0  0.71773  0.36311  0.17118  1.0000
  C   C2312     1.0  0.69511  0.46955  0.19643  1.0000
  H   H4078     1.0  0.70719  0.09443  0.07488  1.0000
  H   H4079     1.0  0.63317  0.28290  0.38551  1.0000
  H   H4080     1.0  0.64639  0.27283  0.21168  1.0000
  H   H4081     1.0  0.62111  0.38176  0.31299  1.0000
  C   C2313     1.0  0.62498  0.17359  0.04062  1.0000
  H   H4082     1.0  0.76382  0.11233  0.42892  1.0000
  H   H4083     1.0  0.62813  0.07737  0.20383  1.0000
  H   H4084     1.0  0.62333  0.17854  0.05279  1.0000
  H   H4085     1.0  0.76213  0.26635  0.41499  1.0000
  H   H4086     1.0  0.74489  0.44295  0.25617  1.0000
  H   H4087     1.0  0.62137  0.18035  0.23129  1.0000
  H   H4088     1.0  0.77505  0.32459  0.24076  1.0000
  H   H4089     1.0  0.62888  0.30761  0.33579  1.0000
  C   C2314     1.0  0.71449  0.08158  0.08173  1.0000
  C   C2315     1.0  0.64953  0.00423  0.07247  1.0000
  H   H4090     1.0  0.70869  0.07069  0.08100  1.0000
  H   H4091     1.0  0.68103  0.02674  0.18082  1.0000
  H   H4092     1.0  0.60695  0.27363  0.34543  1.0000
  C   C2316     1.0  0.62722  0.23689  0.22602  1.0000
  S   S511      1.0  0.64057  0.27686  0.28169  1.0000
  H   H4093     1.0  0.62635  0.31672  0.43770  1.0000
  H   H4094     1.0  0.73925  0.09020  0.07310  1.0000
  H   H4095     1.0  0.60941  0.28741  0.21293  1.0000
  H   H4096     1.0  0.68495  0.42379  0.42873  1.0000
  C   C2317     1.0  0.68864  0.01678  0.17266  1.0000
  H   H4097     1.0  0.65139  0.39983  0.46264  1.0000
  H   H4098     1.0  0.66106  0.08017  0.11913  1.0000
  H   H4099     1.0  0.75457  0.28577  0.43622  1.0000
  H   H4100     1.0  0.78604  0.39786  0.15877  1.0000
  Fe  Fe262     1.0  0.64790  0.27250  0.25355  1.0000
  C   C2318     1.0  0.62711  0.24944  0.19467  1.0000
  H   H4101     1.0  0.64319  0.17220  0.10103  1.0000
  H   H4102     1.0  0.67106  0.44355  0.34182  1.0000
  C   C2319     1.0  0.66691  0.12312  0.06266  1.0000
  C   C2320     1.0  0.64447  0.09744  0.02759  1.0000
  H   H4103     1.0  0.65291  0.09744  0.24516  1.0000
  H   H4104     1.0  0.73918  0.05032  0.07991  1.0000
  C   C2321     1.0  0.63598  0.09700  0.17172  1.0000
  H   H4105     1.0  0.67688  0.08801  0.09973  1.0000
  Fe  Fe263     1.0  0.79173  0.18057  0.06856  1.0000
  C   C2322     1.0  0.77142  0.25501  0.36272  1.0000
  H   H4106     1.0  0.68523  0.16746  0.01293  1.0000
  H   H4107     1.0  0.64591  0.23508  0.37716  1.0000
  C   C2323     1.0  0.77616  0.09142  0.09515  1.0000
  C   C2324     1.0  0.64569  0.04442  0.07374  1.0000
  N   N131      1.0  0.78707  0.24840  0.40691  1.0000
  C   C2325     1.0  0.76747  0.11853  0.45793  1.0000
  H   H4108     1.0  0.78908  0.30852  0.25480  1.0000
  S   S512      1.0  0.61089  0.15319  0.01218  1.0000
  N   N132      1.0  0.69492  0.99908  0.18437  1.0000
  C   C2326     1.0  0.62312  0.23652  0.21007  1.0000
  H   H4109     1.0  0.64688  0.25684  0.40330  1.0000
  H   H4110     1.0  0.69458  0.45087  0.42329  1.0000
  C   C2327     1.0  0.74178  0.11699  0.02622  1.0000
  C   C2328     1.0  0.62932  0.09223  0.22856  1.0000
  S   S513      1.0  0.78414  0.12565  0.39178  1.0000
  H   H4111     1.0  0.71173  0.22245  0.35652  1.0000
  C   C2329     1.0  0.70648  0.44757  0.31925  1.0000
  C   C2330     1.0  0.77203  0.07359  0.29464  1.0000
  C   C2331     1.0  0.66152  0.02305  0.01243  1.0000
  H   H4112     1.0  0.67502  0.25817  0.34072  1.0000
  H   H4113     1.0  0.66771  0.28160  0.35670  1.0000
  H   H4114     1.0  0.67985  0.47037  0.30798  1.0000
  H   H4115     1.0  0.62945  0.30501  0.30541  1.0000
  H   H4116     1.0  0.65832  0.11264  0.11431  1.0000
  H   H4117     1.0  0.67374  0.25633  0.11914  1.0000
  H   H4118     1.0  0.70639  0.24095  0.33865  1.0000
  H   H4119     1.0  0.61616  0.11624  0.18486  1.0000
  H   H4120     1.0  0.76715  0.30002  0.41855  1.0000
  C   C2332     1.0  0.62671  0.10438  0.18845  1.0000
  H   H4121     1.0  0.68114  0.14920  0.06208  1.0000
  C   C2333     1.0  0.64145  0.12714  0.00869  1.0000
  H   H4122     1.0  0.76834  0.04654  0.30703  1.0000
  H   H4123     1.0  0.63675  0.07071  0.07975  1.0000
  H   H4124     1.0  0.67304  0.23515  0.11543  1.0000
  H   H4125     1.0  0.79124  0.33574  0.18513  1.0000
  H   H4126     1.0  0.76769  0.15759  0.19014  1.0000
  H   H4127     1.0  0.79310  0.42432  0.23531  1.0000
  C   C2334     1.0  0.76947  0.41487  0.28489  1.0000
  H   H4128     1.0  0.76484  0.23819  0.38824  1.0000
  H   H4129     1.0  0.69988  0.14004  0.04690  1.0000
  H   H4130     1.0  0.61347  0.25842  0.33060  1.0000
  C   C2335     1.0  0.60596  0.44530  0.32525  1.0000
  C   C2336     1.0  0.68766  0.15094  0.04773  1.0000
  C   C2337     1.0  0.67610  0.24172  0.12452  1.0000
  C   C2338     1.0  0.60512  0.08579  0.10587  1.0000
  H   H4131     1.0  0.79682  0.23681  0.38367  1.0000
  C   C2339     1.0  0.77668  0.26624  0.41105  1.0000
  H   H4132     1.0  0.68785  0.05231  0.15584  1.0000
  H   H4133     1.0  0.76968  0.42163  0.29525  1.0000
  H   H4134     1.0  0.69385  0.01235  0.21532  1.0000
  S   S514      1.0  0.64057  0.24949  0.24724  1.0000
  S   S515      1.0  0.63864  0.21916  0.14057  1.0000
  H   H4135     1.0  0.73789  0.21545  0.09126  1.0000
  H   H4136     1.0  0.64728  0.03226  0.04349  1.0000
  H   H4137     1.0  0.71712  0.02543  0.21819  1.0000
  C   C2340     1.0  0.65704  0.45762  0.24518  1.0000
  H   H4138     1.0  0.71274  0.08186  0.09590  1.0000
  H   H4139     1.0  0.75910  0.07548  0.19704  1.0000
  H   H4140     1.0  0.78412  0.38992  0.29716  1.0000
  C   C2341     1.0  0.75743  0.10402  0.02766  1.0000
  C   C2342     1.0  0.71726  0.42833  0.42686  1.0000
  H   H4141     1.0  0.75566  0.34186  0.14596  1.0000
  H   H4142     1.0  0.64849  0.22790  0.42418  1.0000
  H   H4143     1.0  0.71247  0.44809  0.18377  1.0000
  C   C2343     1.0  0.74741  0.23596  0.05787  1.0000
  H   H4144     1.0  0.78541  0.36190  0.29319  1.0000
  H   H4145     1.0  0.69446  0.47793  0.27707  1.0000
  H   H4146     1.0  0.76114  0.23675  0.05779  1.0000
  C   C2344     1.0  0.73423  0.07872  0.07268  1.0000
  H   H4147     1.0  0.70670  0.22810  0.10130  1.0000
  H   H4148     1.0  0.73485  0.38390  0.39825  1.0000
  C   C2345     1.0  0.79197  0.42393  0.22227  1.0000
  H   H4149     1.0  0.79355  0.22130  0.13037  1.0000
  H   H4150     1.0  0.66685  0.23916  0.13765  1.0000
  H   H4151     1.0  0.64687  0.27903  0.34045  1.0000
  C   C2346     1.0  0.62151  0.41167  0.25026  1.0000
  H   H4152     1.0  0.76399  0.06965  0.04775  1.0000
  C   C2347     1.0  0.60336  0.14684  0.10237  1.0000
  C   C2348     1.0  0.76273  0.07834  0.18227  1.0000
  C   C2349     1.0  0.63559  0.24995  0.22677  1.0000
  C   C2350     1.0  0.78859  0.05026  0.04706  1.0000
  H   H4153     1.0  0.62869  0.27767  0.35912  1.0000
  H   H4154     1.0  0.77802  0.27714  0.39893  1.0000
  H   H4155     1.0  0.78155  0.39403  0.18279  1.0000
  N   N133      1.0  0.67544  0.14921  0.03702  1.0000
  H   H4156     1.0  0.73459  0.25554  0.07362  1.0000
  H   H4157     1.0  0.62964  0.24605  0.35482  1.0000
  H   H4158     1.0  0.73517  0.07884  0.05854  1.0000
  C   C2351     1.0  0.74479  0.06077  0.08186  1.0000
  C   C2352     1.0  0.79021  0.11323  0.36151  1.0000
  H   H4159     1.0  0.75504  0.21521  0.44554  1.0000
  H   H4160     1.0  0.74746  0.22209  0.05763  1.0000
  H   H4161     1.0  0.66543  0.23910  0.34926  1.0000
  C   C2353     1.0  0.64075  0.26949  0.35198  1.0000
  H   H4162     1.0  0.63677  0.10885  0.19245  1.0000
  C   C2354     1.0  0.66957  0.24936  0.35332  1.0000
  C   C2355     1.0  0.73423  0.24160  0.07426  1.0000
  H   H4163     1.0  0.70111  0.46765  0.24618  1.0000
  S   S516      1.0  0.66090  0.49215  0.45413  1.0000
  C   C2356     1.0  0.68518  0.23893  0.36256  1.0000
  S   S517      1.0  0.79304  0.16059  0.41054  1.0000
  S   S518      1.0  0.63786  0.30124  0.24166  1.0000
  H   H4164     1.0  0.78504  0.22086  0.41402  1.0000
  H   H4165     1.0  0.65943  0.48246  0.34591  1.0000
  H   H4166     1.0  0.77535  0.05074  0.28304  1.0000
  C   C2357     1.0  0.62017  0.31572  0.31100  1.0000
  N   N134      1.0  0.76474  0.05717  0.07514  1.0000
  C   C2358     1.0  0.62656  0.10178  0.03617  1.0000
  H   H4167     1.0  0.63904  0.07974  0.22597  1.0000
  H   H4168     1.0  0.78236  0.26211  0.43779  1.0000
  H   H4169     1.0  0.71027  0.38575  0.43688  1.0000
  H   H4170     1.0  0.73617  0.11040  0.34434  1.0000
  N   N135      1.0  0.65377  0.26014  0.36401  1.0000
  C   C2359     1.0  0.63066  0.01092  0.06823  1.0000
  H   H4171     1.0  0.62661  0.35095  0.25129  1.0000
  H   H4172     1.0  0.75668  0.41041  0.28850  1.0000
  N   N136      1.0  0.76790  0.35008  0.17436  1.0000
  Fe  Fe264     1.0  0.61442  0.01628  0.14289  1.0000
  H   H4173     1.0  0.68621  0.04074  0.13990  1.0000
  C   C2360     1.0  0.71171  0.47386  0.23614  1.0000
  H   H4174     1.0  0.77203  0.06484  0.10548  1.0000
  C   C2361     1.0  0.76836  0.09966  0.43825  1.0000
  H   H4175     1.0  0.63647  0.10311  0.22105  1.0000
  Fe  Fe265     1.0  0.65692  0.48478  0.43006  1.0000
  H   H4176     1.0  0.78804  0.42471  0.17481  1.0000
  H   H4177     1.0  0.64808  0.44835  0.36846  1.0000
  C   C2362     1.0  0.77673  0.33616  0.18819  1.0000
  C   C2363     1.0  0.76899  0.33488  0.14878  1.0000
  C   C2364     1.0  0.79068  0.08879  0.24591  1.0000
  Fe  Fe266     1.0  0.71992  0.08755  0.01687  1.0000
  H   H4178     1.0  0.77132  0.33980  0.20143  1.0000
  H   H4179     1.0  0.76886  0.04026  0.10050  1.0000
  C   C2365     1.0  0.68901  0.41817  0.44169  1.0000
  S   S519      1.0  0.61567  0.20312  0.11250  1.0000
  H   H4180     1.0  0.78361  0.36105  0.25868  1.0000
  S   S520      1.0  0.63420  0.00454  0.16079  1.0000
  C   C2366     1.0  0.77545  0.31666  0.19033  1.0000
  H   H4181     1.0  0.77546  0.26797  0.35662  1.0000
  H   H4182     1.0  0.78366  0.31155  0.17842  1.0000
  C   C2367     1.0  0.64483  0.45422  0.35513  1.0000
  S   S521      1.0  0.64073  0.49214  0.23233  1.0000
  H   H4183     1.0  0.78242  0.29057  0.20712  1.0000
  H   H4184     1.0  0.61134  0.40065  0.23399  1.0000
  H   H4185     1.0  0.76885  0.08426  0.06691  1.0000
  C   C2368     1.0  0.64851  0.46944  0.23199  1.0000
  H   H4186     1.0  0.78255  0.34266  0.12110  1.0000
  H   H4187     1.0  0.77083  0.02140  0.07077  1.0000
  C   C2369     1.0  0.77667  0.34687  0.15586  1.0000
  H   H4188     1.0  0.75284  0.08121  0.09949  1.0000
  C   C2370     1.0  0.76787  0.02289  0.08472  1.0000
  H   H4189     1.0  0.77219  0.38584  0.27213  1.0000
  C   C2371     1.0  0.78271  0.08697  0.46444  1.0000
  H   H4190     1.0  0.77420  0.12118  0.46715  1.0000
  H   H4191     1.0  0.79485  0.27620  0.42044  1.0000
  S   S522      1.0  0.62083  0.25013  0.17476  1.0000
  H   H4192     1.0  0.77517  0.32200  0.12647  1.0000
  H   H4193     1.0  0.71056  0.01595  0.14893  1.0000
  C   C2372     1.0  0.71507  0.39786  0.42855  1.0000
  S   S523      1.0  0.60338  0.04093  0.15444  1.0000
  H   H4194     1.0  0.62262  0.05931  0.24166  1.0000
  H   H4195     1.0  0.79167  0.21549  0.29897  1.0000
  H   H4196     1.0  0.63061  0.40347  0.43680  1.0000
  S   S524      1.0  0.60165  0.99746  0.13578  1.0000
  H   H4197     1.0  0.61049  0.12304  0.21297  1.0000
  H   H4198     1.0  0.76688  0.21185  0.46285  1.0000
  N   N137      1.0  0.70636  0.48043  0.21834  1.0000
  C   C2373     1.0  0.61623  0.11883  0.03123  1.0000
  H   H4199     1.0  0.77355  0.07421  0.40710  1.0000
  H   H4200     1.0  0.62684  0.18459  0.02877  1.0000
  C   C2374     1.0  0.78526  0.39895  0.28382  1.0000
  H   H4201     1.0  0.76635  0.24182  0.44370  1.0000
  H   H4202     1.0  0.63168  0.38890  0.21171  1.0000
  H   H4203     1.0  0.79120  0.34108  0.15499  1.0000
  H   H4204     1.0  0.78885  0.22840  0.44230  1.0000
  H   H4205     1.0  0.79083  0.11654  0.14748  1.0000
  C   C2375     1.0  0.76965  0.09553  0.17513  1.0000
  H   H4206     1.0  0.77463  0.30856  0.21881  1.0000
  H   H4207     1.0  0.68370  0.42918  0.44893  1.0000
  H   H4208     1.0  0.75065  0.07982  0.17715  1.0000
  C   C2376     1.0  0.60866  0.44463  0.41164  1.0000
  H   H4209     1.0  0.73009  0.45885  0.42363  1.0000
  H   H4210     1.0  0.78961  0.19306  0.30461  1.0000
  H   H4211     1.0  0.60602  0.14688  0.23849  1.0000
  C   C2377     1.0  0.78636  0.09424  0.18221  1.0000
  H   H4212     1.0  0.72155  0.46106  0.40409  1.0000
  H   H4213     1.0  0.70911  0.48433  0.29843  1.0000
  C   C2378     1.0  0.73966  0.37775  0.41079  1.0000
  H   H4214     1.0  0.78200  0.33139  0.25700  1.0000
  H   H4215     1.0  0.70987  0.47482  0.41997  1.0000
  C   C2379     1.0  0.60647  0.09800  0.08960  1.0000
  H   H4216     1.0  0.71886  0.42849  0.41250  1.0000
  H   H4217     1.0  0.78611  0.38833  0.23474  1.0000
  C   C2380     1.0  0.76836  0.21381  0.44827  1.0000
  H   H4218     1.0  0.61493  0.37081  0.45808  1.0000
  C   C2381     1.0  0.71568  0.40959  0.48620  1.0000
  H   H4219     1.0  0.77750  0.20177  0.44401  1.0000
  H   H4220     1.0  0.73040  0.40474  0.48391  1.0000
  C   C2382     1.0  0.79009  0.14344  0.17301  1.0000
  H   H4221     1.0  0.70075  0.47996  0.18577  1.0000
  H   H4222     1.0  0.78193  0.09317  0.19685  1.0000
  H   H4223     1.0  0.78053  0.06489  0.25219  1.0000
  H   H4224     1.0  0.78586  0.06393  0.01998  1.0000
  H   H4225     1.0  0.60301  0.49059  0.34915  1.0000
  C   C2383     1.0  0.79726  0.37652  0.23475  1.0000
  C   C2384     1.0  0.79068  0.05029  0.02747  1.0000
  C   C2385     1.0  0.79416  0.23680  0.14820  1.0000
  H   H4226     1.0  0.67963  0.48817  0.36376  1.0000
  H   H4227     1.0  0.79426  0.03654  0.05369  1.0000
  H   H4228     1.0  0.60619  0.36389  0.26119  1.0000
  H   H4229     1.0  0.79437  0.33189  0.31380  1.0000
  C   C2386     1.0  0.71313  0.00315  0.10874  1.0000
  H   H4230     1.0  0.79083  0.08800  0.09014  1.0000
  H   H4231     1.0  0.79500  0.33561  0.28146  1.0000
  H   H4232     1.0  0.61997  0.31934  0.18616  1.0000
  H   H4233     1.0  0.68107  0.00750  0.02721  1.0000
  S   S525      1.0  0.60021  0.21176  0.16505  1.0000
  H   H4234     1.0  0.79756  0.40415  0.28078  1.0000
  C   C2387     1.0  0.70479  0.01468  0.20354  1.0000
  H   H4235     1.0  0.72531  0.00192  0.21910  1.0000
  H   H4236     1.0  0.61464  0.43178  0.22715  1.0000
  C   C2388     1.0  0.61184  0.43007  0.24183  1.0000
  H   H4237     1.0  0.60456  0.03648  0.25249  1.0000
  S   S526      1.0  0.60618  0.48787  0.27687  1.0000
  H   H4238     1.0  0.77512  0.00659  0.10950  1.0000
  H   H4239     1.0  0.79078  0.04959  0.47662  1.0000
  C   C2389     1.0  0.70936  0.99983  0.19289  1.0000
  H   H4240     1.0  0.79664  0.05937  0.04763  1.0000
  H   H4241     1.0  0.60820  0.33863  0.23879  1.0000
  H   H4242     1.0  0.60176  0.39570  0.25685  1.0000
  C   C2390     1.0  0.68161  0.00331  0.06152  1.0000
  C   C2391     1.0  0.66639  0.01259  0.03015  1.0000
  C   C2392     1.0  0.61082  0.36626  0.23267  1.0000
  C   C2393     1.0  0.69228  0.48929  0.35386  1.0000
  H   H4243     1.0  0.73208  0.01797  0.19904  1.0000
  C   C2394     1.0  0.72087  0.01493  0.21033  1.0000
  H   H4244     1.0  0.79267  0.00451  0.08977  1.0000
  C   C2395     1.0  0.68946  0.49183  0.33481  1.0000
  C   C2396     1.0  0.69289  0.49160  0.27895  1.0000
  H   H4245     1.0  0.66835  0.49118  0.31293  1.0000
  H   H4246     1.0  0.79223  0.11934  0.42627  1.0000
  H   H4247     1.0  0.79045  0.08862  0.41824  1.0000
  N   N138      1.0  0.79590  0.10944  0.17401  1.0000
  H   H4248     1.0  0.60214  0.37951  0.22900  1.0000
  H   H4249     1.0  0.60339  0.11897  0.11250  1.0000
  H   H4250     1.0  0.60022  0.15774  0.13490  1.0000
  H   H4251     1.0  0.65639  0.00494  0.18594  1.0000
  H   H4252     1.0  0.79719  0.14635  0.15891  1.0000
  H   H4253     1.0  0.79756  0.20862  0.15167  1.0000
  S   S527      1.0  0.68197  0.00471  0.13310  1.0000
  H   H4254     1.0  0.79531  0.08122  0.18073  1.0000
  H   H4255     1.0  0.60544  0.10574  0.14749  1.0000
  H   H4256     1.0  0.68799  0.00286  0.08675  1.0000
  C   C2397     1.0  0.60214  0.31566  0.21236  1.0000
  H   H4257     1.0  0.69201  0.01100  0.05358  1.0000
  H   H4258     1.0  0.72189  0.00117  0.18274  1.0000
  H   H4259     1.0  0.73732  0.00027  0.08871  1.0000
  H   H4260     1.0  0.79633  0.10467  0.33674  1.0000
  C   C2398     1.0  0.60044  0.31950  0.45505  1.0000
  C   C2399     1.0  0.79557  0.10878  0.43796  1.0000
  C   C2400     1.0  0.59992  0.35226  0.23553  1.0000
  C   C2401     1.0  0.59973  0.13107  0.11814  1.0000
  H   H4261     1.0  0.61558  0.00293  0.09520  1.0000
  H   H4262     1.0  0.64796  0.00241  0.08711  1.0000
  H   H4263     1.0  0.60427  0.00472  0.07793  1.0000
  H   H4264     1.0  0.59885  0.13870  0.15273  1.0000
  H   H4265     1.0  0.60290  0.31537  0.22606  1.0000
  C   C2402     1.0  0.61744  0.00046  0.08171  1.0000
  H   H4266     1.0  0.65974  0.00110  0.03528  1.0000
  H   H4267     1.0  0.70914  0.39815  0.49297  1.0000
  H   H4268     1.0  0.65524  0.45020  0.52191  1.0000
  H   H4269     1.0  0.67425  0.47189  0.51350  1.0000
  C   C2403     1.0  0.61803  0.17923  0.92418  1.0000
  H   H4270     1.0  0.67267  0.00353  0.89401  1.0000
  C   C2404     1.0  0.66081  0.47536  0.52195  1.0000
  H   H4271     1.0  0.63891  0.03351  0.96424  1.0000
  C   C2405     1.0  0.64609  0.04605  0.92557  1.0000
  H   H4272     1.0  0.67389  0.49010  0.54231  1.0000
  H   H4273     1.0  0.71294  0.00327  0.94663  1.0000
  S   S528      1.0  0.64335  0.02466  0.84339  1.0000
  S   S529      1.0  0.72294  0.04673  0.97452  1.0000
  H   H4274     1.0  0.60602  0.05819  0.75092  1.0000
  C   C2406     1.0  0.64413  0.00653  0.90240  1.0000
  H   H4275     1.0  0.79264  0.00534  0.52283  1.0000
  H   H4276     1.0  0.61972  0.04433  0.94370  1.0000
  H   H4277     1.0  0.62446  0.06629  0.93709  1.0000
  H   H4278     1.0  0.60988  0.13070  0.98531  1.0000
  C   C2407     1.0  0.64353  0.01854  0.86614  1.0000
  C   C2408     1.0  0.62759  0.01767  0.87880  1.0000
  C   C2409     1.0  0.62787  0.01196  0.89693  1.0000
  H   H4279     1.0  0.68974  0.16618  0.98098  1.0000
  H   H4280     1.0  0.66013  0.07629  0.96754  1.0000
  H   H4281     1.0  0.64553  0.06146  0.95222  1.0000
  H   H4282     1.0  0.61504  0.02160  0.87458  1.0000
  H   H4283     1.0  0.61550  0.01145  0.90668  1.0000
  C   C2410     1.0  0.64906  0.02626  0.95454  1.0000
  H   H4284     1.0  0.66952  0.00143  0.95647  1.0000
  C   C2411     1.0  0.67566  0.02991  0.93017  1.0000
  H   H4285     1.0  0.65109  0.05678  0.91474  1.0000
  Fe  Fe267     1.0  0.61362  0.00250  0.80745  1.0000
  C   C2412     1.0  0.61564  0.05854  0.91780  1.0000
  H   H4286     1.0  0.70309  0.01876  0.90281  1.0000
  H   H4287     1.0  0.68891  0.49146  0.51234  1.0000
  H   H4288     1.0  0.73183  0.47102  0.71446  1.0000
  C   C2413     1.0  0.66009  0.00761  0.88982  1.0000
  H   H4289     1.0  0.67868  0.04590  0.90268  1.0000
  H   H4290     1.0  0.75082  0.47697  0.71768  1.0000
  C   C2414     1.0  0.62606  0.05389  0.93253  1.0000
  H   H4291     1.0  0.61633  0.04638  0.91316  1.0000
  H   H4292     1.0  0.66172  0.47088  0.53614  1.0000
  H   H4293     1.0  0.64157  0.01926  0.94972  1.0000
  C   C2415     1.0  0.70432  0.03065  0.90669  1.0000
  C   C2416     1.0  0.64919  0.46466  0.51867  1.0000
  C   C2417     1.0  0.71713  0.02237  0.95904  1.0000
  H   H4294     1.0  0.68477  0.04385  0.95353  1.0000
  H   H4295     1.0  0.72095  0.03139  0.94656  1.0000
  H   H4296     1.0  0.66539  0.04344  0.97165  1.0000
  H   H4297     1.0  0.68195  0.06509  0.97179  1.0000
  C   C2418     1.0  0.65892  0.05508  0.94540  1.0000
  H   H4298     1.0  0.61235  0.15815  0.94645  1.0000
  H   H4299     1.0  0.62531  0.18468  0.93081  1.0000
  H   H4300     1.0  0.67402  0.01840  0.92582  1.0000
  H   H4301     1.0  0.60140  0.06430  0.92293  1.0000
  H   H4302     1.0  0.64818  0.46838  0.50447  1.0000
  C   C2419     1.0  0.65077  0.00055  0.98143  1.0000
  H   H4303     1.0  0.62109  0.06846  0.90632  1.0000
  H   H4304     1.0  0.61114  0.19032  0.91490  1.0000
  C   C2420     1.0  0.66154  0.01097  0.96501  1.0000
  C   C2421     1.0  0.65974  0.01397  0.87169  1.0000
  C   C2422     1.0  0.67123  0.05119  0.95862  1.0000
  S   S530      1.0  0.60408  0.02599  0.82051  1.0000
  H   H4305     1.0  0.68477  0.02403  0.93953  1.0000
  H   H4306     1.0  0.64277  0.00935  0.99069  1.0000
  H   H4307     1.0  0.65724  0.48168  0.57394  1.0000
  H   H4308     1.0  0.71131  0.03904  0.89478  1.0000
  H   H4309     1.0  0.60009  0.11336  0.98400  1.0000
  C   C2423     1.0  0.67329  0.06840  0.96201  1.0000
  H   H4310     1.0  0.64675  0.03517  0.91898  1.0000
  Fe  Fe268     1.0  0.62433  0.01207  0.83724  1.0000
  S   S531      1.0  0.64418  0.99856  0.92505  1.0000
  H   H4311     1.0  0.67101  0.01582  0.96940  1.0000
  C   C2424     1.0  0.71684  0.02668  0.97509  1.0000
  C   C2425     1.0  0.68591  0.04139  0.91372  1.0000
  H   H4312     1.0  0.62791  0.16993  0.91632  1.0000
  H   H4313     1.0  0.71250  0.02635  0.91697  1.0000
  N   N139      1.0  0.65770  0.03929  0.93919  1.0000
  H   H4314     1.0  0.67971  0.07656  0.94952  1.0000
  H   H4315     1.0  0.66309  0.06564  0.93384  1.0000
  H   H4316     1.0  0.74198  0.00544  0.91766  1.0000
  H   H4317     1.0  0.68794  0.05318  0.91710  1.0000
  C   C2426     1.0  0.65274  0.49563  0.51738  1.0000
  S   S532      1.0  0.61846  0.00295  0.77826  1.0000
  H   H4318     1.0  0.71173  0.41915  0.49513  1.0000
  C   C2427     1.0  0.73647  0.48175  0.71719  1.0000
  H   H4319     1.0  0.63558  0.46705  0.52720  1.0000
  C   C2428     1.0  0.71256  0.00647  0.95903  1.0000
  H   H4320     1.0  0.72891  0.48454  0.73039  1.0000
  H   H4321     1.0  0.67207  0.01466  0.86189  1.0000
  H   H4322     1.0  0.68259  0.14885  0.97595  1.0000
  C   C2429     1.0  0.68860  0.15201  0.98544  1.0000
  H   H4323     1.0  0.70215  0.14332  0.98519  1.0000
  C   C2430     1.0  0.60461  0.16929  0.93798  1.0000
  C   C2431     1.0  0.70787  0.99876  0.99108  1.0000
  C   C2432     1.0  0.71207  0.01479  0.99111  1.0000
  H   H4324     1.0  0.59890  0.18499  0.95736  1.0000
  H   H4325     1.0  0.74245  0.49528  0.68989  1.0000
  H   H4326     1.0  0.71129  0.49491  0.69604  1.0000
  S   S533      1.0  0.60627  0.99652  0.85858  1.0000
  H   H4327     1.0  0.60090  0.80319  0.10188  1.0000
  H   H4328     1.0  0.61124  0.54320  0.31424  1.0000
  C   C2433     1.0  0.69822  0.50522  0.35576  1.0000
  Fe  Fe269     1.0  0.66420  0.59818  0.48730  1.0000
  N   N140      1.0  0.64240  0.56087  0.41547  1.0000
  C   C2434     1.0  0.62678  0.53653  0.43763  1.0000
  C   C2435     1.0  0.61106  0.57516  0.40830  1.0000
  H   H4329     1.0  0.60352  0.50539  0.40117  1.0000
  H   H4330     1.0  0.74605  0.70700  0.42452  1.0000
  H   H4331     1.0  0.66722  0.54295  0.42004  1.0000
  H   H4332     1.0  0.69162  0.50422  0.42866  1.0000
  S   S534      1.0  0.69919  0.55500  0.44764  1.0000
  C   C2436     1.0  0.70638  0.96560  0.18315  1.0000
  H   H4333     1.0  0.68271  0.52638  0.38710  1.0000
  S   S535      1.0  0.68733  0.60118  0.46407  1.0000
  H   H4334     1.0  0.67598  0.56502  0.39104  1.0000
  H   H4335     1.0  0.68992  0.50677  0.24135  1.0000
  C   C2437     1.0  0.67126  0.51004  0.45152  1.0000
  H   H4336     1.0  0.74466  0.68051  0.48584  1.0000
  C   C2438     1.0  0.66138  0.57712  0.42487  1.0000
  H   H4337     1.0  0.76752  0.73295  0.46184  1.0000
  H   H4338     1.0  0.66974  0.60148  0.40875  1.0000
  C   C2439     1.0  0.67925  0.99435  0.19884  1.0000
  H   H4339     1.0  0.66805  0.98299  0.18280  1.0000
  H   H4340     1.0  0.73331  0.73162  0.45206  1.0000
  H   H4341     1.0  0.70153  0.49597  0.32556  1.0000
  H   H4342     1.0  0.65264  0.60450  0.42864  1.0000
  H   H4343     1.0  0.62616  0.66683  0.46667  1.0000
  H   H4344     1.0  0.70314  0.49800  0.26878  1.0000
  H   H4345     1.0  0.60382  0.56851  0.42124  1.0000
  C   C2440     1.0  0.67300  0.53519  0.46247  1.0000
  C   C2441     1.0  0.68829  0.53773  0.44937  1.0000
  C   C2442     1.0  0.69490  0.52648  0.43715  1.0000
  S   S536      1.0  0.61057  0.50612  0.30741  1.0000
  H   H4346     1.0  0.60011  0.51677  0.37051  1.0000
  H   H4347     1.0  0.70671  0.52836  0.42692  1.0000
  C   C2443     1.0  0.60008  0.74544  0.05011  1.0000
  C   C2444     1.0  0.64691  0.52867  0.35280  1.0000
  C   C2445     1.0  0.65465  0.54120  0.33912  1.0000
  C   C2446     1.0  0.68634  0.51281  0.43810  1.0000
  C   C2447     1.0  0.64906  0.52882  0.31706  1.0000
  C   C2448     1.0  0.64086  0.51653  0.33076  1.0000
  C   C2449     1.0  0.63990  0.51637  0.34865  1.0000
  H   H4348     1.0  0.66001  0.55078  0.34226  1.0000
  S   S537      1.0  0.66851  0.56871  0.49097  1.0000
  C   C2450     1.0  0.63016  0.56409  0.40292  1.0000
  H   H4349     1.0  0.73530  0.70834  0.45659  1.0000
  N   N141      1.0  0.74747  0.71707  0.47300  1.0000
  C   C2451     1.0  0.60012  0.57747  0.39448  1.0000
  H   H4350     1.0  0.67822  0.50352  0.33278  1.0000
  C   C2452     1.0  0.61390  0.81561  0.02473  1.0000
  H   H4351     1.0  0.62250  0.56418  0.43964  1.0000
  C   C2453     1.0  0.65593  0.54112  0.32132  1.0000
  C   C2454     1.0  0.71605  0.73335  0.48737  1.0000
  H   H4352     1.0  0.70462  0.98950  0.00354  1.0000
  C   C2455     1.0  0.66355  0.99182  0.19243  1.0000
  H   H4353     1.0  0.65524  0.53497  0.40938  1.0000
  C   C2456     1.0  0.73086  0.71606  0.48751  1.0000
  S   S538      1.0  0.65176  0.52875  0.29452  1.0000
  H   H4354     1.0  0.72452  0.70562  0.48664  1.0000
  H   H4355     1.0  0.72077  0.74433  0.48943  1.0000
  H   H4356     1.0  0.77669  0.75275  0.47584  1.0000
  H   H4357     1.0  0.67045  0.53552  0.23159  1.0000
  C   C2457     1.0  0.62059  0.65927  0.46051  1.0000
  H   H4358     1.0  0.60556  0.82927  0.02190  1.0000
  C   C2458     1.0  0.68710  0.53835  0.38737  1.0000
  H   H4359     1.0  0.71603  0.96339  0.19164  1.0000
  Fe  Fe270     1.0  0.64939  0.50186  0.39331  1.0000
  H   H4360     1.0  0.66351  0.55656  0.38072  1.0000
  C   C2459     1.0  0.66472  0.52125  0.46374  1.0000
  C   C2460     1.0  0.76148  0.70042  0.47714  1.0000
  H   H4361     1.0  0.75613  0.68282  0.46294  1.0000
  H   H4362     1.0  0.67539  0.59415  0.43031  1.0000
  C   C2461     1.0  0.68693  0.99338  0.07952  1.0000
  H   H4363     1.0  0.67703  0.98550  0.08812  1.0000
  H   H4364     1.0  0.68772  0.51755  0.35362  1.0000
  H   H4365     1.0  0.63856  0.98304  0.20310  1.0000
  H   H4366     1.0  0.69542  0.54282  0.37411  1.0000
  C   C2462     1.0  0.65012  0.98366  0.20798  1.0000
  H   H4367     1.0  0.65308  0.51929  0.47412  1.0000
  Fe  Fe271     1.0  0.70290  0.59751  0.48517  1.0000
  H   H4368     1.0  0.64715  0.64760  0.44746  1.0000
  H   H4369     1.0  0.62226  0.98594  0.08222  1.0000
  H   H4370     1.0  0.65634  0.96994  0.21417  1.0000
  H   H4371     1.0  0.72714  0.95611  0.16158  1.0000
  H   H4372     1.0  0.61329  0.73893  0.05351  1.0000
  H   H4373     1.0  0.61690  0.69565  0.49135  1.0000
  C   C2463     1.0  0.75879  0.73445  0.48929  1.0000
  H   H4374     1.0  0.61770  0.88740  0.04778  1.0000
  H   H4375     1.0  0.71329  0.50019  0.19447  1.0000
  Fe  Fe272     1.0  0.69267  0.57108  0.46918  1.0000
  H   H4376     1.0  0.68365  0.98224  0.20879  1.0000
  H   H4377     1.0  0.60909  0.77949  0.10370  1.0000
  H   H4378     1.0  0.70878  0.97409  0.08974  1.0000
  Fe  Fe273     1.0  0.63061  0.49733  0.25991  1.0000
  S   S539      1.0  0.62120  0.52496  0.26505  1.0000
  H   H4379     1.0  0.63481  0.58763  0.42013  1.0000
  H   H4380     1.0  0.70489  0.95458  0.16155  1.0000
  C   C2464     1.0  0.63365  0.55378  0.43441  1.0000
  H   H4381     1.0  0.69537  0.53477  0.39749  1.0000
  H   H4382     1.0  0.69346  0.98641  0.16416  1.0000
  H   H4383     1.0  0.62813  0.81642  0.01950  1.0000
  H   H4384     1.0  0.62896  0.55123  0.40089  1.0000
  H   H4385     1.0  0.66750  0.54410  0.47150  1.0000
  H   H4386     1.0  0.63377  0.50675  0.35918  1.0000
  S   S540      1.0  0.64635  0.52875  0.37488  1.0000
  H   H4387     1.0  0.64321  0.55051  0.44327  1.0000
  H   H4388     1.0  0.60102  0.51916  0.34048  1.0000
  H   H4389     1.0  0.62975  0.64729  0.43724  1.0000
  C   C2465     1.0  0.60924  0.80327  0.01585  1.0000
  H   H4390     1.0  0.69876  0.51729  0.21884  1.0000
  S   S541      1.0  0.71067  0.56765  0.48784  1.0000
  S   S542      1.0  0.63566  0.61245  0.48838  1.0000
  H   H4391     1.0  0.67425  0.56854  0.41981  1.0000
  H   H4392     1.0  0.76364  0.69865  0.49072  1.0000
  H   H4393     1.0  0.65124  0.58515  0.40056  1.0000
  H   H4394     1.0  0.77468  0.70168  0.46820  1.0000
  C   C2466     1.0  0.67023  0.52347  0.22731  1.0000
  H   H4395     1.0  0.60524  0.68329  0.44773  1.0000
  H   H4396     1.0  0.66226  0.55065  0.31080  1.0000
  H   H4397     1.0  0.76499  0.72930  0.43626  1.0000
  H   H4398     1.0  0.69309  0.50512  0.29861  1.0000
  H   H4399     1.0  0.61147  0.58863  0.40931  1.0000
  H   H4400     1.0  0.60838  0.77912  0.00011  1.0000
  C   C2467     1.0  0.60146  0.76281  0.03632  1.0000
  C   C2468     1.0  0.71431  0.95313  0.17013  1.0000
  H   H4401     1.0  0.69398  0.96159  0.19166  1.0000
  C   C2469     1.0  0.67092  0.55323  0.39150  1.0000
  H   H4402     1.0  0.61181  0.81041  0.03934  1.0000
  H   H4403     1.0  0.71686  0.93909  0.17763  1.0000
  C   C2470     1.0  0.66492  0.59550  0.42295  1.0000
  C   C2471     1.0  0.75730  0.68275  0.47647  1.0000
  H   H4404     1.0  0.76878  0.70537  0.44129  1.0000
  H   H4405     1.0  0.62411  0.53060  0.46643  1.0000
  H   H4406     1.0  0.63601  0.57116  0.38944  1.0000
  C   C2472     1.0  0.68818  0.51029  0.22745  1.0000
  H   H4407     1.0  0.71153  0.73778  0.47462  1.0000
  C   C2473     1.0  0.65891  0.54729  0.40990  1.0000
  H   H4408     1.0  0.66731  0.52762  0.21377  1.0000
  H   H4409     1.0  0.63827  0.52519  0.43575  1.0000
  H   H4410     1.0  0.65713  0.57170  0.43930  1.0000
  H   H4411     1.0  0.71517  0.98786  0.16380  1.0000
  H   H4412     1.0  0.70489  0.97024  0.07004  1.0000
  S   S543      1.0  0.63168  0.49868  0.42040  1.0000
  H   H4413     1.0  0.74371  0.50036  0.17296  1.0000
  Fe  Fe274     1.0  0.63467  0.51408  0.28820  1.0000
  C   C2474     1.0  0.64692  0.57830  0.41462  1.0000
  C   C2475     1.0  0.60313  0.88811  0.05254  1.0000
  H   H4414     1.0  0.63671  0.66795  0.43424  1.0000
  C   C2476     1.0  0.63433  0.65536  0.44376  1.0000
  H   H4415     1.0  0.78507  0.66820  0.47247  1.0000
  C   C2477     1.0  0.75853  0.71785  0.43916  1.0000
  H   H4416     1.0  0.61188  0.75948  0.02464  1.0000
  C   C2478     1.0  0.75212  0.71857  0.42256  1.0000
  H   H4417     1.0  0.65934  0.51738  0.23673  1.0000
  H   H4418     1.0  0.61809  0.53767  0.42849  1.0000
  H   H4419     1.0  0.63574  0.50683  0.32758  1.0000
  H   H4420     1.0  0.68367  0.49846  0.20841  1.0000
  H   H4421     1.0  0.71290  0.98706  0.20240  1.0000
  C   C2479     1.0  0.61603  0.53197  0.45661  1.0000
  H   H4422     1.0  0.60374  0.54245  0.45888  1.0000
  H   H4423     1.0  0.60641  0.58465  0.38128  1.0000
  H   H4424     1.0  0.59929  0.91072  0.06373  1.0000
  H   H4425     1.0  0.71085  0.50714  0.34607  1.0000
  C   C2480     1.0  0.60253  0.67027  0.45602  1.0000
  H   H4426     1.0  0.60572  0.77143  0.04247  1.0000
  H   H4427     1.0  0.70663  0.51912  0.47985  1.0000
  H   H4428     1.0  0.61789  0.78994  0.01902  1.0000
  C   C2481     1.0  0.70246  0.98531  0.17302  1.0000
  H   H4429     1.0  0.74557  0.74560  0.46690  1.0000
  H   H4430     1.0  0.76362  0.71809  0.41102  1.0000
  H   H4431     1.0  0.70057  0.50286  0.36935  1.0000
  H   H4432     1.0  0.72555  0.49719  0.21090  1.0000
  H   H4433     1.0  0.76883  0.65438  0.48082  1.0000
  C   C2482     1.0  0.75474  0.73302  0.47185  1.0000
  H   H4434     1.0  0.74216  0.73111  0.41944  1.0000
  H   H4435     1.0  0.67954  0.49962  0.27700  1.0000
  C   C2483     1.0  0.77205  0.66679  0.48163  1.0000
  H   H4436     1.0  0.61924  0.64626  0.46949  1.0000
  C   C2484     1.0  0.74271  0.71872  0.45551  1.0000
  H   H4437     1.0  0.65424  0.99049  0.06988  1.0000
  H   H4438     1.0  0.60086  0.87864  0.06560  1.0000
  H   H4439     1.0  0.61212  0.51908  0.45876  1.0000
  H   H4440     1.0  0.64508  0.99191  0.21818  1.0000
  H   H4441     1.0  0.77395  0.99423  0.09418  1.0000
  H   H4442     1.0  0.71557  0.98815  0.06844  1.0000
  H   H4443     1.0  0.75373  0.76350  0.48363  1.0000
  S   S544      1.0  0.72432  0.61121  0.48580  1.0000
  C   C2485     1.0  0.70516  0.98068  0.07667  1.0000
  H   H4444     1.0  0.71770  0.99084  0.11764  1.0000
  H   H4445     1.0  0.61286  0.80835  0.00128  1.0000
  H   H4446     1.0  0.59901  0.56428  0.39328  1.0000
  C   C2486     1.0  0.76465  0.75186  0.48672  1.0000
  H   H4447     1.0  0.68285  0.99261  0.05452  1.0000
  H   H4448     1.0  0.59901  0.66399  0.44696  1.0000
  C   C2487     1.0  0.70998  0.51552  0.49317  1.0000
  H   H4449     1.0  0.73303  0.91460  0.99510  1.0000
  H   H4450     1.0  0.71843  0.52450  0.49325  1.0000
  H   H4451     1.0  0.67759  0.96864  0.82678  1.0000
  H   H4452     1.0  0.63817  0.68136  0.60048  1.0000
  H   H4453     1.0  0.60746  0.92309  0.74820  1.0000
  N   N142      1.0  0.73702  0.60181  0.55983  1.0000
  H   H4454     1.0  0.65163  0.49914  0.50318  1.0000
  H   H4455     1.0  0.73489  0.56056  0.63644  1.0000
  H   H4456     1.0  0.72925  0.98027  0.62399  1.0000
  C   C2488     1.0  0.73467  0.63355  0.49994  1.0000
  S   S545      1.0  0.78508  0.64699  0.87743  1.0000
  H   H4457     1.0  0.62955  0.76129  0.58939  1.0000
  H   H4458     1.0  0.61266  0.71592  0.53307  1.0000
  S   S546      1.0  0.78177  0.81875  0.59076  1.0000
  S   S547      1.0  0.79150  0.62158  0.80731  1.0000
  Fe  Fe275     1.0  0.72450  0.90174  0.72764  1.0000
  S   S548      1.0  0.71854  0.91103  0.70037  1.0000
  S   S549      1.0  0.74480  0.87689  0.73493  1.0000
  Fe  Fe276     1.0  0.69678  0.93173  0.74197  1.0000
  S   S550      1.0  0.68831  0.94403  0.71604  1.0000
  S   S551      1.0  0.68462  0.93900  0.76851  1.0000
  Fe  Fe277     1.0  0.68991  0.91586  0.71486  1.0000
  S   S552      1.0  0.66832  0.90991  0.70584  1.0000
  Fe  Fe278     1.0  0.71762  0.93818  0.70388  1.0000
  S   S553      1.0  0.73117  0.95787  0.68259  1.0000
  S   S554      1.0  0.69595  0.90398  0.74182  1.0000
  S   S555      1.0  0.72604  0.92857  0.72994  1.0000
  Fe  Fe279     1.0  0.76915  0.82443  0.84708  1.0000
  S   S556      1.0  0.74343  0.82866  0.86701  1.0000
  H   H4459     1.0  0.78930  0.91804  0.68710  1.0000
  Fe  Fe280     1.0  0.76158  0.86218  0.82578  1.0000
  S   S557      1.0  0.73506  0.86965  0.84383  1.0000
  S   S558      1.0  0.77142  0.88093  0.80077  1.0000
  Fe  Fe281     1.0  0.74943  0.85506  0.86578  1.0000
  S   S559      1.0  0.74324  0.86440  0.89158  1.0000
  Fe  Fe282     1.0  0.73139  0.84294  0.84338  1.0000
  S   S560      1.0  0.70462  0.83904  0.84306  1.0000
  S   S561      1.0  0.77649  0.84951  0.84774  1.0000
  S   S562      1.0  0.75667  0.83681  0.82343  1.0000
  Fe  Fe283     1.0  0.69502  0.96584  0.95458  1.0000
  C   C2489     1.0  0.78504  0.92143  0.55191  1.0000
  C   C2490     1.0  0.63553  0.98420  0.77444  1.0000
  Fe  Fe284     1.0  0.67608  0.93904  0.94954  1.0000
  S   S563      1.0  0.67637  0.95236  0.92097  1.0000
  S   S564      1.0  0.66191  0.91639  0.96318  1.0000
  Fe  Fe285     1.0  0.70443  0.95347  0.91975  1.0000
  S   S565      1.0  0.72611  0.94577  0.89653  1.0000
  C   C2491     1.0  0.78717  0.91855  0.74434  1.0000
  H   H4460     1.0  0.69398  0.88259  0.81709  1.0000
  S   S566      1.0  0.70475  0.93857  0.94791  1.0000
  C   C2492     1.0  0.74841  0.58620  0.57015  1.0000
  Fe  Fe286     1.0  0.67095  0.80562  0.78140  1.0000
  S   S567      1.0  0.64688  0.82215  0.79593  1.0000
  S   S568      1.0  0.69910  0.80246  0.78433  1.0000
  C   C2493     1.0  0.68751  0.96462  0.81500  1.0000
  H   H4461     1.0  0.64167  0.99466  0.97749  1.0000
  S   S569      1.0  0.66307  0.81629  0.75485  1.0000
  Fe  Fe287     1.0  0.62497  0.86597  0.91149  1.0000
  S   S570      1.0  0.64478  0.88250  0.90850  1.0000
  Fe  Fe288     1.0  0.71944  0.63058  0.66445  1.0000
  S   S571      1.0  0.71350  0.61360  0.64946  1.0000
  S   S572      1.0  0.71207  0.66047  0.65776  1.0000
  Fe  Fe289     1.0  0.73869  0.59971  0.68877  1.0000
  S   S573      1.0  0.73400  0.57942  0.67652  1.0000
  S   S574      1.0  0.75070  0.59397  0.71313  1.0000
  Fe  Fe290     1.0  0.74141  0.59822  0.65048  1.0000
  S   S575      1.0  0.75893  0.58674  0.62737  1.0000
  Fe  Fe291     1.0  0.70626  0.59603  0.67617  1.0000
  S   S576      1.0  0.68021  0.58643  0.68441  1.0000
  S   S577      1.0  0.74829  0.61709  0.66262  1.0000
  S   S578      1.0  0.71005  0.61425  0.69126  1.0000
  H   H4462     1.0  0.65609  0.94530  0.79783  1.0000
  S   S579      1.0  0.65490  0.54815  0.63844  1.0000
  H   H4463     1.0  0.72679  0.57757  0.59254  1.0000
  C   C2494     1.0  0.79393  0.68360  0.80619  1.0000
  H   H4464     1.0  0.65240  0.74004  0.57233  1.0000
  Fe  Fe292     1.0  0.60805  0.75756  0.67822  1.0000
  Fe  Fe293     1.0  0.63032  0.74445  0.64512  1.0000
  S   S580      1.0  0.62212  0.71819  0.65422  1.0000
  S   S581      1.0  0.64901  0.75154  0.61880  1.0000
  Fe  Fe294     1.0  0.62533  0.71876  0.68098  1.0000
  S   S582      1.0  0.63718  0.69469  0.69960  1.0000
  H   H4465     1.0  0.62028  0.68160  0.67442  1.0000
  S   S583      1.0  0.63651  0.74334  0.67115  1.0000
  Fe  Fe295     1.0  0.72941  0.68362  0.53411  1.0000
  S   S584      1.0  0.71275  0.68023  0.51666  1.0000
  Fe  Fe296     1.0  0.72279  0.68617  0.57262  1.0000
  S   S585      1.0  0.75052  0.68867  0.57113  1.0000
  S   S586      1.0  0.70232  0.68250  0.59794  1.0000
  Fe  Fe297     1.0  0.74766  0.70763  0.54510  1.0000
  Fe  Fe298     1.0  0.75875  0.66765  0.55507  1.0000
  H   H4466     1.0  0.73622  0.52782  0.67896  1.0000
  S   S587      1.0  0.71901  0.70679  0.54782  1.0000
  S   S588      1.0  0.73134  0.66316  0.55920  1.0000
  H   H4467     1.0  0.63844  0.49725  0.55237  1.0000
  C   C2495     1.0  0.78888  0.94041  0.54371  1.0000
  H   H4468     1.0  0.69718  0.51483  0.52054  1.0000
  S   S589      1.0  0.68484  0.54815  0.53522  1.0000
  H   H4469     1.0  0.72931  0.51630  0.66685  1.0000
  C   C2496     1.0  0.60067  0.92849  0.91538  1.0000
  H   H4470     1.0  0.67768  0.93361  0.84976  1.0000
  H   H4471     1.0  0.64278  0.74544  0.80576  1.0000
  H   H4472     1.0  0.68836  0.66542  0.50709  1.0000
  H   H4473     1.0  0.70579  0.50479  0.71474  1.0000
  H   H4474     1.0  0.73963  0.97829  0.94084  1.0000
  C   C2497     1.0  0.61969  0.64457  0.53145  1.0000
  C   C2498     1.0  0.63664  0.64345  0.52025  1.0000
  C   C2499     1.0  0.76449  0.74361  0.58089  1.0000
  H   H4475     1.0  0.68931  0.74281  0.50191  1.0000
  H   H4476     1.0  0.60650  0.76343  0.74355  1.0000
  H   H4477     1.0  0.64589  0.65048  0.52158  1.0000
  C   C2500     1.0  0.61811  0.94481  0.93181  1.0000
  C   C2501     1.0  0.66430  0.73263  0.61296  1.0000
  C   C2502     1.0  0.67566  0.73378  0.59612  1.0000
  C   C2503     1.0  0.68791  0.71855  0.59148  1.0000
  C   C2504     1.0  0.68832  0.70209  0.60352  1.0000
  C   C2505     1.0  0.67699  0.70104  0.62029  1.0000
  C   C2506     1.0  0.66525  0.71632  0.62510  1.0000
  H   H4478     1.0  0.67500  0.74645  0.58670  1.0000
  H   H4479     1.0  0.69672  0.71948  0.57853  1.0000
  H   H4480     1.0  0.67752  0.68842  0.62972  1.0000
  H   H4481     1.0  0.65715  0.71546  0.63831  1.0000
  C   C2507     1.0  0.62814  0.55924  0.56754  1.0000
  C   C2508     1.0  0.64102  0.54517  0.57429  1.0000
  C   C2509     1.0  0.65846  0.54182  0.56430  1.0000
  C   C2510     1.0  0.66306  0.55256  0.54756  1.0000
  C   C2511     1.0  0.65017  0.56661  0.54072  1.0000
  C   C2512     1.0  0.63268  0.56992  0.55069  1.0000
  H   H4482     1.0  0.66843  0.53098  0.56961  1.0000
  H   H4483     1.0  0.65356  0.57495  0.52774  1.0000
  H   H4484     1.0  0.62275  0.58085  0.54540  1.0000
  C   C2513     1.0  0.76515  0.60312  0.60870  1.0000
  C   C2514     1.0  0.75538  0.62074  0.60673  1.0000
  C   C2515     1.0  0.76034  0.63351  0.59139  1.0000
  C   C2516     1.0  0.77531  0.62874  0.57826  1.0000
  C   C2517     1.0  0.64157  0.63352  0.50702  1.0000
  H   H4485     1.0  0.78070  0.66527  0.64529  1.0000
  H   H4486     1.0  0.74395  0.62453  0.61695  1.0000
  H   H4487     1.0  0.75269  0.64709  0.58988  1.0000
  H   H4488     1.0  0.71488  0.56857  0.53287  1.0000
  H   H4489     1.0  0.62646  0.75330  0.76447  1.0000
  C   C2518     1.0  0.67255  0.57751  0.67058  1.0000
  C   C2519     1.0  0.68248  0.57537  0.65368  1.0000
  C   C2520     1.0  0.67671  0.56671  0.64377  1.0000
  C   C2521     1.0  0.66060  0.56080  0.65034  1.0000
  C   C2522     1.0  0.65027  0.56368  0.66689  1.0000
  C   C2523     1.0  0.65637  0.57175  0.67707  1.0000
  H   H4490     1.0  0.69488  0.57992  0.64846  1.0000
  H   H4491     1.0  0.68488  0.56439  0.63105  1.0000
  H   H4492     1.0  0.65161  0.85265  0.81649  1.0000
  H   H4493     1.0  0.64861  0.57330  0.69016  1.0000
  C   C2524     1.0  0.69173  0.67010  0.67019  1.0000
  C   C2525     1.0  0.68338  0.66043  0.68619  1.0000
  C   C2526     1.0  0.66702  0.66835  0.69577  1.0000
  C   C2527     1.0  0.65868  0.68575  0.68899  1.0000
  C   C2528     1.0  0.66718  0.69560  0.67325  1.0000
  C   C2529     1.0  0.68382  0.68786  0.66402  1.0000
  H   H4494     1.0  0.68947  0.64693  0.69129  1.0000
  H   H4495     1.0  0.66055  0.66080  0.70808  1.0000
  H   H4496     1.0  0.66090  0.70915  0.66816  1.0000
  H   H4497     1.0  0.69035  0.69553  0.65185  1.0000
  H   H4498     1.0  0.75277  0.87788  0.68502  1.0000
  H   H4499     1.0  0.61977  0.58913  0.58655  1.0000
  H   H4500     1.0  0.69290  0.94340  0.80103  1.0000
  N   N143      1.0  0.63595  0.70814  0.58411  1.0000
  H   H4501     1.0  0.67401  0.94322  0.81895  1.0000
  H   H4502     1.0  0.65386  0.65866  0.67243  1.0000
  C   C2530     1.0  0.65648  0.90704  0.94830  1.0000
  C   C2531     1.0  0.64341  0.89670  0.95418  1.0000
  C   C2532     1.0  0.63917  0.88925  0.94214  1.0000
  C   C2533     1.0  0.64809  0.89216  0.92427  1.0000
  C   C2534     1.0  0.66100  0.90249  0.91854  1.0000
  C   C2535     1.0  0.66531  0.90975  0.93048  1.0000
  H   H4503     1.0  0.63662  0.89442  0.96802  1.0000
  H   H4504     1.0  0.62925  0.88114  0.94668  1.0000
  H   H4505     1.0  0.66816  0.90435  0.90486  1.0000
  H   H4506     1.0  0.67602  0.91683  0.92597  1.0000
  C   C2536     1.0  0.70356  0.82824  0.82705  1.0000
  C   C2537     1.0  0.71841  0.82376  0.81376  1.0000
  C   C2538     1.0  0.71712  0.81515  0.80115  1.0000
  C   C2539     1.0  0.70078  0.81166  0.80132  1.0000
  C   C2540     1.0  0.68605  0.81572  0.81489  1.0000
  C   C2541     1.0  0.68752  0.82382  0.82781  1.0000
  H   H4507     1.0  0.73083  0.82707  0.81304  1.0000
  H   H4508     1.0  0.72868  0.81176  0.79090  1.0000
  H   H4509     1.0  0.67360  0.81239  0.81565  1.0000
  H   H4510     1.0  0.67623  0.82663  0.83850  1.0000
  C   C2542     1.0  0.73797  0.88728  0.89215  1.0000
  C   C2543     1.0  0.72868  0.89243  0.90819  1.0000
  C   C2544     1.0  0.72443  0.91039  0.90943  1.0000
  C   C2545     1.0  0.73020  0.92332  0.89480  1.0000
  C   C2546     1.0  0.73982  0.91818  0.87880  1.0000
  C   C2547     1.0  0.74339  0.90026  0.87735  1.0000
  H   H4511     1.0  0.72488  0.88246  0.91978  1.0000
  H   H4512     1.0  0.71709  0.91412  0.92185  1.0000
  H   H4513     1.0  0.74438  0.92809  0.86745  1.0000
  H   H4514     1.0  0.75073  0.89641  0.86496  1.0000
  H   H4515     1.0  0.77785  0.89337  0.73410  1.0000
  H   H4516     1.0  0.74413  0.53693  0.63956  1.0000
  H   H4517     1.0  0.71983  0.52849  0.71964  1.0000
  C   C2548     1.0  0.68808  0.94495  0.81507  1.0000
  C   C2549     1.0  0.70805  0.99451  0.97508  1.0000
  C   C2550     1.0  0.72984  0.61690  0.56960  1.0000
  C   C2551     1.0  0.74992  0.97717  0.92843  1.0000
  C   C2552     1.0  0.59954  0.73776  0.75420  1.0000
  S   S590      1.0  0.62411  0.83761  0.92545  1.0000
  H   H4518     1.0  0.63880  0.66221  0.65855  1.0000
  H   H4519     1.0  0.75639  0.92465  0.69038  1.0000
  C   C2553     1.0  0.75044  0.87678  0.75474  1.0000
  C   C2554     1.0  0.74306  0.89128  0.76299  1.0000
  C   C2555     1.0  0.74946  0.89247  0.77720  1.0000
  C   C2556     1.0  0.76275  0.87878  0.78373  1.0000
  C   C2557     1.0  0.76941  0.86370  0.77623  1.0000
  C   C2558     1.0  0.76334  0.86275  0.76165  1.0000
  H   H4520     1.0  0.73253  0.90173  0.75836  1.0000
  H   H4521     1.0  0.74413  0.90405  0.78307  1.0000
  H   H4522     1.0  0.77953  0.85298  0.78141  1.0000
  H   H4523     1.0  0.76893  0.85141  0.75545  1.0000
  C   C2559     1.0  0.66533  0.95600  0.77003  1.0000
  H   H4524     1.0  0.77978  0.66198  0.72744  1.0000
  C   C2560     1.0  0.65634  0.89476  0.72128  1.0000
  C   C2561     1.0  0.63892  0.89566  0.72012  1.0000
  C   C2562     1.0  0.62871  0.88427  0.73264  1.0000
  C   C2563     1.0  0.63607  0.87151  0.74605  1.0000
  C   C2564     1.0  0.65368  0.87021  0.74701  1.0000
  C   C2565     1.0  0.66372  0.88204  0.73476  1.0000
  H   H4525     1.0  0.63318  0.90544  0.70970  1.0000
  H   H4526     1.0  0.61513  0.88525  0.73184  1.0000
  H   H4527     1.0  0.71845  0.77465  0.88662  1.0000
  H   H4528     1.0  0.67715  0.88124  0.73568  1.0000
  H   H4529     1.0  0.63105  0.55730  0.49935  1.0000
  H   H4530     1.0  0.63755  0.91027  0.85048  1.0000
  S   S591      1.0  0.62617  0.86098  0.88494  1.0000
  Fe  Fe299     1.0  0.60584  0.55557  0.60930  1.0000
  H   H4531     1.0  0.71570  0.69531  0.62541  1.0000
  H   H4532     1.0  0.67023  0.96021  0.88203  1.0000
  H   H4533     1.0  0.75457  0.75051  0.63504  1.0000
  C   C2566     1.0  0.77067  0.77857  0.87482  1.0000
  C   C2567     1.0  0.76788  0.76232  0.88640  1.0000
  C   C2568     1.0  0.71565  0.66014  0.50969  1.0000
  C   C2569     1.0  0.76364  0.83077  0.69554  1.0000
  H   H4534     1.0  0.76295  0.79104  0.87823  1.0000
  H   H4535     1.0  0.75796  0.76231  0.89869  1.0000
  C   C2570     1.0  0.77467  0.89885  0.61597  1.0000
  C   C2571     1.0  0.70050  0.90894  0.80768  1.0000
  H   H4536     1.0  0.65695  0.53560  0.52217  1.0000
  H   H4537     1.0  0.74842  0.91187  0.62865  1.0000
  C   C2572     1.0  0.78402  0.77860  0.85927  1.0000
  C   C2573     1.0  0.64500  0.85162  0.83075  1.0000
  C   C2574     1.0  0.77660  0.61436  0.69880  1.0000
  C   C2575     1.0  0.76716  0.60475  0.71412  1.0000
  C   C2576     1.0  0.77081  0.60370  0.73069  1.0000
  H   H4538     1.0  0.61225  0.68423  0.51427  1.0000
  H   H4539     1.0  0.77413  0.61514  0.68595  1.0000
  H   H4540     1.0  0.76363  0.59629  0.74262  1.0000
  C   C2577     1.0  0.76137  0.73509  0.56910  1.0000
  C   C2578     1.0  0.78861  0.63919  0.85795  1.0000
  C   C2579     1.0  0.77817  0.62772  0.85787  1.0000
  C   C2580     1.0  0.77969  0.62199  0.84237  1.0000
  C   C2581     1.0  0.61949  0.94885  0.96182  1.0000
  H   H4541     1.0  0.76800  0.75243  0.49914  1.0000
  H   H4542     1.0  0.61600  0.73607  0.77890  1.0000
  H   H4543     1.0  0.76846  0.62366  0.86970  1.0000
  H   H4544     1.0  0.77108  0.61362  0.84229  1.0000
  H   H4545     1.0  0.60923  0.70860  0.58214  1.0000
  C   C2582     1.0  0.61796  0.60370  0.58355  1.0000
  C   C2583     1.0  0.66505  0.50347  0.53929  1.0000
  H   H4546     1.0  0.63755  0.53662  0.58704  1.0000
  H   H4547     1.0  0.69656  0.55388  0.72899  1.0000
  H   H4548     1.0  0.71873  0.55780  0.72490  1.0000
  N   N144      1.0  0.69649  0.84467  0.91622  1.0000
  C   C2584     1.0  0.70363  0.85044  0.92893  1.0000
  C   C2585     1.0  0.71060  0.83009  0.90873  1.0000
  C   C2586     1.0  0.69369  0.86034  0.90080  1.0000
  C   C2587     1.0  0.67899  0.83887  0.92472  1.0000
  C   C2588     1.0  0.69217  0.86740  0.93560  1.0000
  C   C2589     1.0  0.68691  0.85710  0.88568  1.0000
  C   C2590     1.0  0.71607  0.81246  0.92193  1.0000
  C   C2591     1.0  0.73204  0.80006  0.91273  1.0000
  C   C2592     1.0  0.69693  0.86894  0.95232  1.0000
  C   C2593     1.0  0.68369  0.87412  0.87144  1.0000
  H   H4549     1.0  0.71719  0.85310  0.92259  1.0000
  H   H4550     1.0  0.70561  0.83961  0.94074  1.0000
  H   H4551     1.0  0.70627  0.82605  0.89865  1.0000
  H   H4552     1.0  0.72290  0.83524  0.90168  1.0000
  H   H4553     1.0  0.70623  0.86532  0.89467  1.0000
  H   H4554     1.0  0.68369  0.87170  0.90554  1.0000
  H   H4555     1.0  0.66758  0.85054  0.92360  1.0000
  H   H4556     1.0  0.67702  0.82988  0.91727  1.0000
  H   H4557     1.0  0.69459  0.87941  0.92514  1.0000
  H   H4558     1.0  0.67773  0.86755  0.93859  1.0000
  H   H4559     1.0  0.67420  0.85242  0.89100  1.0000
  H   H4560     1.0  0.69685  0.84717  0.87872  1.0000
  H   H4561     1.0  0.71994  0.81467  0.93332  1.0000
  H   H4562     1.0  0.70494  0.80532  0.92687  1.0000
  H   H4563     1.0  0.73542  0.78726  0.92224  1.0000
  H   H4564     1.0  0.72896  0.79716  0.90119  1.0000
  H   H4565     1.0  0.74390  0.80622  0.90802  1.0000
  H   H4566     1.0  0.69332  0.85797  0.96362  1.0000
  H   H4567     1.0  0.71141  0.86851  0.95000  1.0000
  H   H4568     1.0  0.68939  0.88180  0.95598  1.0000
  H   H4569     1.0  0.67414  0.88509  0.87730  1.0000
  H   H4570     1.0  0.69648  0.87827  0.86470  1.0000
  H   H4571     1.0  0.67807  0.87155  0.86132  1.0000
  H   H4572     1.0  0.61158  0.94591  0.89082  1.0000
  H   H4573     1.0  0.75088  0.95145  0.96175  1.0000
  C   C2594     1.0  0.69264  0.92474  0.87848  1.0000
  H   H4574     1.0  0.71556  0.92289  0.85747  1.0000
  H   H4575     1.0  0.69535  0.93721  0.87978  1.0000
  H   H4576     1.0  0.67805  0.92585  0.88099  1.0000
  H   H4577     1.0  0.69804  0.91365  0.88875  1.0000
  N   N145      1.0  0.71068  0.75134  0.61543  1.0000
  C   C2595     1.0  0.71073  0.73193  0.62382  1.0000
  C   C2596     1.0  0.69266  0.76285  0.62158  1.0000
  C   C2597     1.0  0.71375  0.75341  0.59553  1.0000
  C   C2598     1.0  0.72542  0.75746  0.61905  1.0000
  H   H4578     1.0  0.78887  0.70289  0.74029  1.0000
  C   C2599     1.0  0.72801  0.71831  0.61794  1.0000
  C   C2600     1.0  0.71236  0.77272  0.58419  1.0000
  C   C2601     1.0  0.69303  0.51780  0.50768  1.0000
  H   H4579     1.0  0.60538  0.80498  0.71139  1.0000
  H   H4580     1.0  0.77133  0.60804  0.55307  1.0000
  C   C2602     1.0  0.72678  0.69936  0.62820  1.0000
  C   C2603     1.0  0.71376  0.77298  0.56467  1.0000
  H   H4581     1.0  0.69948  0.72816  0.62096  1.0000
  H   H4582     1.0  0.70813  0.72943  0.63852  1.0000
  H   H4583     1.0  0.69389  0.77688  0.61951  1.0000
  H   H4584     1.0  0.68320  0.76344  0.61327  1.0000
  H   H4585     1.0  0.70427  0.74737  0.59239  1.0000
  H   H4586     1.0  0.72726  0.74606  0.59019  1.0000
  H   H4587     1.0  0.73864  0.75063  0.61246  1.0000
  H   H4588     1.0  0.72482  0.77184  0.61291  1.0000
  H   H4589     1.0  0.65412  0.98041  0.87651  1.0000
  H   H4590     1.0  0.61273  0.71153  0.61803  1.0000
  H   H4591     1.0  0.73025  0.71824  0.60364  1.0000
  H   H4592     1.0  0.73981  0.72134  0.62037  1.0000
  H   H4593     1.0  0.72341  0.77842  0.58471  1.0000
  H   H4594     1.0  0.69948  0.78159  0.58875  1.0000
  H   H4595     1.0  0.75779  0.72224  0.57400  1.0000
  C   C2604     1.0  0.62527  0.55154  0.51337  1.0000
  H   H4596     1.0  0.77190  0.82405  0.70563  1.0000
  H   H4597     1.0  0.66083  0.76790  0.66095  1.0000
  H   H4598     1.0  0.73805  0.91792  0.96256  1.0000
  H   H4599     1.0  0.78767  0.91666  0.56555  1.0000
  H   H4600     1.0  0.60575  0.95162  0.78558  1.0000
  C   C2605     1.0  0.73396  0.92775  0.98603  1.0000
  C   C2606     1.0  0.64776  0.50447  0.55396  1.0000
  C   C2607     1.0  0.72565  0.75549  0.63876  1.0000
  H   H4601     1.0  0.73936  0.68988  0.62399  1.0000
  H   H4602     1.0  0.71317  0.78682  0.55671  1.0000
  H   H4603     1.0  0.72661  0.76452  0.55927  1.0000
  H   H4604     1.0  0.70258  0.76806  0.56321  1.0000
  N   N146      1.0  0.73383  0.67094  0.69611  1.0000
  C   C2608     1.0  0.74646  0.65995  0.68329  1.0000
  C   C2609     1.0  0.72051  0.66028  0.70832  1.0000
  C   C2610     1.0  0.72356  0.68721  0.68536  1.0000
  C   C2611     1.0  0.74328  0.67706  0.70669  1.0000
  C   C2612     1.0  0.76103  0.66471  0.71111  1.0000
  C   C2613     1.0  0.75829  0.67022  0.66720  1.0000
  C   C2614     1.0  0.70740  0.69865  0.69604  1.0000
  C   C2615     1.0  0.72812  0.64225  0.71980  1.0000
  C   C2616     1.0  0.71330  0.63245  0.73060  1.0000
  C   C2617     1.0  0.76690  0.67072  0.72483  1.0000
  C   C2618     1.0  0.77272  0.65752  0.65691  1.0000
  C   C2619     1.0  0.70062  0.71653  0.68428  1.0000
  H   H4605     1.0  0.73884  0.65372  0.67775  1.0000
  H   H4606     1.0  0.75535  0.64848  0.69014  1.0000
  H   H4607     1.0  0.71092  0.66798  0.71794  1.0000
  H   H4608     1.0  0.71246  0.65754  0.70034  1.0000
  H   H4609     1.0  0.71842  0.68328  0.67572  1.0000
  H   H4610     1.0  0.73256  0.69629  0.67716  1.0000
  H   H4611     1.0  0.74675  0.69015  0.69957  1.0000
  H   H4612     1.0  0.73410  0.67961  0.71943  1.0000
  H   H4613     1.0  0.77187  0.66508  0.69898  1.0000
  H   H4614     1.0  0.76004  0.65064  0.71642  1.0000
  H   H4615     1.0  0.75004  0.67910  0.65772  1.0000
  H   H4616     1.0  0.76476  0.67850  0.67154  1.0000
  H   H4617     1.0  0.71099  0.70130  0.70741  1.0000
  H   H4618     1.0  0.69614  0.69163  0.70120  1.0000
  H   H4619     1.0  0.73779  0.63342  0.71140  1.0000
  H   H4620     1.0  0.73450  0.64437  0.72953  1.0000
  H   H4621     1.0  0.71927  0.61925  0.73812  1.0000
  H   H4622     1.0  0.70378  0.64017  0.74021  1.0000
  H   H4623     1.0  0.70594  0.63021  0.72173  1.0000
  H   H4624     1.0  0.75690  0.66973  0.73760  1.0000
  H   H4625     1.0  0.66090  0.52574  0.67487  1.0000
  H   H4626     1.0  0.60478  0.95229  0.96653  1.0000
  H   H4627     1.0  0.76322  0.90771  0.55927  1.0000
  H   H4628     1.0  0.67221  0.51284  0.54107  1.0000
  H   H4629     1.0  0.78481  0.89931  0.64655  1.0000
  H   H4630     1.0  0.68850  0.72399  0.69204  1.0000
  H   H4631     1.0  0.71093  0.72471  0.67955  1.0000
  H   H4632     1.0  0.69700  0.71445  0.67263  1.0000
  H   H4633     1.0  0.66386  0.70686  0.58139  1.0000
  H   H4634     1.0  0.76629  0.71053  0.75170  1.0000
  C   C2620     1.0  0.72159  0.59702  0.55593  1.0000
  S   S592      1.0  0.78897  0.79855  0.84505  1.0000
  H   H4635     1.0  0.76382  0.90228  0.59266  1.0000
  C   C2621     1.0  0.67241  0.65136  0.64065  1.0000
  C   C2622     1.0  0.64612  0.60271  0.72180  1.0000
  H   H4636     1.0  0.72869  0.54320  0.69951  1.0000
  H   H4637     1.0  0.63096  0.62935  0.72208  1.0000
  N   N147      1.0  0.61938  0.95200  0.91208  1.0000
  H   H4638     1.0  0.63794  0.55901  0.67218  1.0000
  H   H4639     1.0  0.71752  0.88241  0.81290  1.0000
  H   H4640     1.0  0.70507  0.56874  0.70884  1.0000
  H   H4641     1.0  0.63737  0.71366  0.54711  1.0000
  N   N148      1.0  0.65163  0.60334  0.57926  1.0000
  C   C2623     1.0  0.66646  0.61076  0.56551  1.0000
  C   C2624     1.0  0.65658  0.58323  0.58228  1.0000
  C   C2625     1.0  0.63510  0.60957  0.57146  1.0000
  C   C2626     1.0  0.64756  0.60944  0.59654  1.0000
  C   C2627     1.0  0.66347  0.61235  0.60238  1.0000
  C   C2628     1.0  0.66248  0.63129  0.55865  1.0000
  C   C2629     1.0  0.68103  0.50513  0.50831  1.0000
  C   C2630     1.0  0.67280  0.57377  0.59099  1.0000
  C   C2631     1.0  0.67800  0.55390  0.59096  1.0000
  C   C2632     1.0  0.65821  0.61448  0.62166  1.0000
  C   C2633     1.0  0.67949  0.63802  0.54889  1.0000
  S   S593      1.0  0.63584  0.99048  0.82202  1.0000
  H   H4642     1.0  0.66978  0.60480  0.55358  1.0000
  H   H4643     1.0  0.67896  0.60692  0.57046  1.0000
  H   H4644     1.0  0.64549  0.57719  0.59128  1.0000
  H   H4645     1.0  0.65898  0.57901  0.56947  1.0000
  H   H4646     1.0  0.63775  0.60525  0.55865  1.0000
  H   H4647     1.0  0.63129  0.62433  0.56826  1.0000
  H   H4648     1.0  0.63766  0.62239  0.59596  1.0000
  H   H4649     1.0  0.64090  0.59984  0.60756  1.0000
  H   H4650     1.0  0.66780  0.62463  0.59397  1.0000
  H   H4651     1.0  0.67525  0.60127  0.60133  1.0000
  H   H4652     1.0  0.65370  0.63496  0.54902  1.0000
  H   H4653     1.0  0.65557  0.63844  0.56957  1.0000
  H   H4654     1.0  0.75174  0.93586  0.74731  1.0000
  H   H4655     1.0  0.68128  0.69374  0.54520  1.0000
  H   H4656     1.0  0.68474  0.57934  0.58402  1.0000
  H   H4657     1.0  0.66924  0.57488  0.60512  1.0000
  H   H4658     1.0  0.66637  0.54755  0.59738  1.0000
  H   H4659     1.0  0.68314  0.55185  0.57713  1.0000
  H   H4660     1.0  0.68866  0.54728  0.59857  1.0000
  H   H4661     1.0  0.64706  0.62622  0.62322  1.0000
  H   H4662     1.0  0.65408  0.60235  0.63075  1.0000
  H   H4663     1.0  0.66983  0.61641  0.62551  1.0000
  H   H4664     1.0  0.68825  0.63613  0.55824  1.0000
  H   H4665     1.0  0.68681  0.63092  0.53799  1.0000
  H   H4666     1.0  0.67595  0.65246  0.54289  1.0000
  H   H4667     1.0  0.70654  0.60711  0.58801  1.0000
  H   H4668     1.0  0.73764  0.97338  0.64410  1.0000
  H   H4669     1.0  0.78622  0.72001  0.79200  1.0000
  H   H4670     1.0  0.63937  0.95325  0.93792  1.0000
  C   C2634     1.0  0.79109  0.74619  0.86641  1.0000
  H   H4671     1.0  0.72022  0.93533  0.98502  1.0000
  C   C2635     1.0  0.76158  0.68975  0.81849  1.0000
  C   C2636     1.0  0.69974  0.73032  0.50224  1.0000
  S   S594      1.0  0.66634  0.96449  0.95919  1.0000
  C   C2637     1.0  0.77611  0.71891  0.82035  1.0000
  C   C2638     1.0  0.75832  0.67102  0.82011  1.0000
  C   C2639     1.0  0.78370  0.61219  0.73196  1.0000
  H   H4672     1.0  0.63880  0.49751  0.52515  1.0000
  C   C2640     1.0  0.63834  0.95402  0.90373  1.0000
  H   H4673     1.0  0.73127  0.99172  0.91118  1.0000
  C   C2641     1.0  0.74706  0.66443  0.83833  1.0000
  H   H4674     1.0  0.76285  0.72349  0.79873  1.0000
  H   H4675     1.0  0.61041  0.78375  0.75993  1.0000
  H   H4676     1.0  0.76250  0.97903  0.93034  1.0000
  H   H4677     1.0  0.66380  0.67543  0.58241  1.0000
  H   H4678     1.0  0.74863  0.69944  0.81767  1.0000
  H   H4679     1.0  0.76450  0.68960  0.83140  1.0000
  H   H4680     1.0  0.61385  0.73117  0.75343  1.0000
  C   C2642     1.0  0.62051  0.75340  0.79255  1.0000
  H   H4681     1.0  0.74775  0.62493  0.49750  1.0000
  H   H4682     1.0  0.60602  0.81109  0.88271  1.0000
  H   H4683     1.0  0.76275  0.71966  0.82944  1.0000
  H   H4684     1.0  0.60941  0.63447  0.68520  1.0000
  C   C2643     1.0  0.68147  0.68436  0.55831  1.0000
  H   H4685     1.0  0.75100  0.67144  0.80994  1.0000
  H   H4686     1.0  0.62585  0.87629  0.82747  1.0000
  H   H4687     1.0  0.79344  0.91151  0.54407  1.0000
  H   H4688     1.0  0.69133  0.75281  0.65073  1.0000
  C   C2644     1.0  0.61145  0.67239  0.68252  1.0000
  H   H4689     1.0  0.65246  0.85698  0.83726  1.0000
  C   C2645     1.0  0.75767  0.89835  0.66120  1.0000
  C   C2646     1.0  0.77713  0.61908  0.52505  1.0000
  H   H4690     1.0  0.68703  0.67064  0.55602  1.0000
  H   H4691     1.0  0.77667  0.88029  0.59973  1.0000
  C   C2647     1.0  0.73228  0.64847  0.50724  1.0000
  C   C2648     1.0  0.79115  0.94554  0.67929  1.0000
  H   H4692     1.0  0.75400  0.66322  0.84906  1.0000
  H   H4693     1.0  0.73386  0.67370  0.84061  1.0000
  H   H4694     1.0  0.74492  0.65106  0.83899  1.0000
  N   N149      1.0  0.71947  0.77079  0.86049  1.0000
  C   C2649     1.0  0.72990  0.75211  0.86621  1.0000
  C   C2650     1.0  0.73213  0.78283  0.84970  1.0000
  C   C2651     1.0  0.70584  0.77127  0.85032  1.0000
  C   C2652     1.0  0.71300  0.76458  0.83277  1.0000
  C   C2653     1.0  0.71893  0.73834  0.87842  1.0000
  C   C2654     1.0  0.74932  0.77440  0.83742  1.0000
  C   C2655     1.0  0.75844  0.78858  0.82402  1.0000
  C   C2656     1.0  0.69765  0.76358  0.82525  1.0000
  C   C2657     1.0  0.73110  0.71997  0.88268  1.0000
  H   H4695     1.0  0.74002  0.75250  0.87333  1.0000
  H   H4696     1.0  0.73770  0.74627  0.85463  1.0000
  H   H4697     1.0  0.72493  0.79487  0.84159  1.0000
  H   H4698     1.0  0.73719  0.78794  0.85865  1.0000
  H   H4699     1.0  0.69827  0.78512  0.84647  1.0000
  H   H4700     1.0  0.72179  0.75113  0.83465  1.0000
  H   H4701     1.0  0.72037  0.77413  0.82263  1.0000
  H   H4702     1.0  0.70888  0.73696  0.87190  1.0000
  H   H4703     1.0  0.75893  0.76579  0.84568  1.0000
  H   H4704     1.0  0.74675  0.76603  0.82982  1.0000
  H   H4705     1.0  0.75983  0.79834  0.83083  1.0000
  H   H4706     1.0  0.77196  0.78226  0.81745  1.0000
  H   H4707     1.0  0.75057  0.79567  0.81370  1.0000
  H   H4708     1.0  0.68827  0.77674  0.82322  1.0000
  H   H4709     1.0  0.70301  0.75972  0.81216  1.0000
  H   H4710     1.0  0.69020  0.75355  0.83440  1.0000
  H   H4711     1.0  0.72305  0.71032  0.89154  1.0000
  H   H4712     1.0  0.73808  0.71503  0.87033  1.0000
  H   H4713     1.0  0.74121  0.72056  0.88963  1.0000
  C   C2658     1.0  0.65353  0.95597  0.78654  1.0000
  H   H4714     1.0  0.70198  0.90699  0.86060  1.0000
  H   H4715     1.0  0.78328  0.92423  0.96159  1.0000
  C   C2659     1.0  0.70864  0.55616  0.71855  1.0000
  N   N150      1.0  0.63009  0.92035  0.77426  1.0000
  C   C2660     1.0  0.64899  0.90967  0.77378  1.0000
  C   C2661     1.0  0.63085  0.93722  0.76009  1.0000
  C   C2662     1.0  0.62311  0.92504  0.79234  1.0000
  C   C2663     1.0  0.61913  0.90898  0.77145  1.0000
  H   H4716     1.0  0.73931  0.50867  0.70566  1.0000
  C   C2664     1.0  0.65156  0.89296  0.78902  1.0000
  C   C2665     1.0  0.64109  0.93456  0.74121  1.0000
  C   C2666     1.0  0.63776  0.95170  0.72717  1.0000
  S   S595      1.0  0.60246  0.76073  0.65106  1.0000
  C   C2667     1.0  0.67059  0.88196  0.78553  1.0000
  H   H4717     1.0  0.65786  0.91826  0.77397  1.0000
  H   H4718     1.0  0.65452  0.90490  0.76112  1.0000
  H   H4719     1.0  0.61733  0.94532  0.75906  1.0000
  H   H4720     1.0  0.63734  0.94595  0.76382  1.0000
  H   H4721     1.0  0.63312  0.93040  0.79554  1.0000
  H   H4722     1.0  0.61449  0.89999  0.78422  1.0000
  H   H4723     1.0  0.74789  0.54986  0.65313  1.0000
  H   H4724     1.0  0.60429  0.94385  0.93887  1.0000
  H   H4725     1.0  0.64930  0.89692  0.80188  1.0000
  H   H4726     1.0  0.64228  0.88430  0.79033  1.0000
  H   H4727     1.0  0.65568  0.93064  0.74066  1.0000
  H   H4728     1.0  0.63713  0.92398  0.73758  1.0000
  H   H4729     1.0  0.62343  0.95590  0.72657  1.0000
  H   H4730     1.0  0.64198  0.96253  0.73019  1.0000
  H   H4731     1.0  0.64566  0.94936  0.71392  1.0000
  H   H4732     1.0  0.75931  0.57893  0.56096  1.0000
  S   S596      1.0  0.62876  0.94717  0.85029  1.0000
  H   H4733     1.0  0.71541  0.55656  0.66627  1.0000
  H   H4734     1.0  0.68033  0.89034  0.78353  1.0000
  H   H4735     1.0  0.67262  0.87073  0.79706  1.0000
  H   H4736     1.0  0.67317  0.87646  0.77350  1.0000
  H   H4737     1.0  0.69865  0.51426  0.67210  1.0000
  C   C2668     1.0  0.61696  0.69788  0.61540  1.0000
  H   H4738     1.0  0.70341  0.72632  0.51543  1.0000
  H   H4739     1.0  0.78748  0.90221  0.60787  1.0000
  H   H4740     1.0  0.72551  0.60383  0.59780  1.0000
  N   N151      1.0  0.66269  0.50783  0.52038  1.0000
  H   H4741     1.0  0.79555  0.73571  0.80990  1.0000
  C   C2669     1.0  0.61553  0.79309  0.71417  1.0000
  C   C2670     1.0  0.74796  0.95467  0.62645  1.0000
  C   C2671     1.0  0.73305  0.96864  0.63461  1.0000
  H   H4742     1.0  0.75145  0.92918  0.82829  1.0000
  H   H4743     1.0  0.68222  0.64290  0.63189  1.0000
  H   H4744     1.0  0.62871  0.52554  0.50892  1.0000
  H   H4745     1.0  0.73470  0.56405  0.57631  1.0000
  H   H4746     1.0  0.62831  0.55828  0.52228  1.0000
  H   H4747     1.0  0.76897  0.82422  0.68399  1.0000
  H   H4748     1.0  0.67077  0.96975  0.74258  1.0000
  C   C2672     1.0  0.64659  0.80066  0.85562  1.0000
  C   C2673     1.0  0.78172  0.96317  0.67541  1.0000
  C   C2674     1.0  0.63804  0.74172  0.57262  1.0000
  H   H4749     1.0  0.62575  0.95535  0.96847  1.0000
  H   H4750     1.0  0.78572  0.70824  0.82716  1.0000
  H   H4751     1.0  0.74009  0.61914  0.53372  1.0000
  H   H4752     1.0  0.78666  0.93967  0.71976  1.0000
  H   H4753     1.0  0.70063  0.96649  0.81548  1.0000
  C   C2675     1.0  0.62329  0.70483  0.57493  1.0000
  H   H4754     1.0  0.70072  0.62675  0.60882  1.0000
  C   C2676     1.0  0.61853  0.61012  0.66331  1.0000
  H   H4755     1.0  0.74337  0.95157  0.61594  1.0000
  H   H4756     1.0  0.62732  0.92843  0.90075  1.0000
  H   H4757     1.0  0.64546  0.83736  0.83724  1.0000
  H   H4758     1.0  0.60934  0.97562  0.89367  1.0000
  H   H4759     1.0  0.62755  0.89974  0.76271  1.0000
  C   C2677     1.0  0.77996  0.59835  0.59546  1.0000
  H   H4760     1.0  0.78196  0.89611  0.91733  1.0000
  H   H4761     1.0  0.61056  0.55420  0.51508  1.0000
  S   S597      1.0  0.64099  0.81128  0.88684  1.0000
  H   H4762     1.0  0.72144  0.93806  0.80553  1.0000
  S   S598      1.0  0.70352  0.97369  0.97588  1.0000
  H   H4763     1.0  0.72528  0.74174  0.64650  1.0000
  N   N152      1.0  0.71662  0.83942  0.72743  1.0000
  C   C2678     1.0  0.70527  0.84831  0.71376  1.0000
  C   C2679     1.0  0.71299  0.82108  0.73670  1.0000
  C   C2680     1.0  0.71113  0.85061  0.74133  1.0000
  C   C2681     1.0  0.73626  0.83837  0.71950  1.0000
  C   C2682     1.0  0.74418  0.82938  0.70335  1.0000
  C   C2683     1.0  0.70764  0.86722  0.70308  1.0000
  C   C2684     1.0  0.72076  0.84335  0.75717  1.0000
  C   C2685     1.0  0.70827  0.81034  0.72569  1.0000
  C   C2686     1.0  0.70826  0.79109  0.73580  1.0000
  H   H4764     1.0  0.62543  0.69033  0.57547  1.0000
  C   C2687     1.0  0.69722  0.87370  0.68823  1.0000
  C   C2688     1.0  0.71279  0.85452  0.77135  1.0000
  H   H4765     1.0  0.69086  0.84931  0.72032  1.0000
  H   H4766     1.0  0.70775  0.84016  0.70376  1.0000
  H   H4767     1.0  0.72441  0.81258  0.74268  1.0000
  H   H4768     1.0  0.70138  0.82208  0.74817  1.0000
  H   H4769     1.0  0.69648  0.85237  0.74693  1.0000
  H   H4770     1.0  0.71363  0.86422  0.73536  1.0000
  H   H4771     1.0  0.73931  0.85189  0.71570  1.0000
  H   H4772     1.0  0.74427  0.83076  0.72965  1.0000
  H   H4773     1.0  0.73674  0.83562  0.69255  1.0000
  H   H4774     1.0  0.74408  0.81499  0.70759  1.0000
  H   H4775     1.0  0.70258  0.87701  0.71177  1.0000
  H   H4776     1.0  0.72182  0.86742  0.69679  1.0000
  H   H4777     1.0  0.73511  0.84366  0.75265  1.0000
  H   H4778     1.0  0.71974  0.82944  0.76358  1.0000
  H   H4779     1.0  0.69468  0.81651  0.72308  1.0000
  H   H4780     1.0  0.71763  0.80999  0.71270  1.0000
  H   H4781     1.0  0.69906  0.79068  0.74905  1.0000
  H   H4782     1.0  0.70371  0.78406  0.72817  1.0000
  H   H4783     1.0  0.72189  0.78393  0.73767  1.0000
  S   S599      1.0  0.61388  0.65672  0.54814  1.0000
  C   C2689     1.0  0.76253  0.74335  0.55114  1.0000
  C   C2690     1.0  0.63270  0.53146  0.51793  1.0000
  H   H4784     1.0  0.70244  0.86501  0.67840  1.0000
  H   H4785     1.0  0.68282  0.87382  0.69380  1.0000
  H   H4786     1.0  0.69854  0.88750  0.68125  1.0000
  H   H4787     1.0  0.72154  0.85084  0.78106  1.0000
  H   H4788     1.0  0.71170  0.86895  0.76535  1.0000
  H   H4789     1.0  0.69944  0.85194  0.77861  1.0000
  S   S600      1.0  0.75785  0.68653  0.52864  1.0000
  C   C2691     1.0  0.67606  0.82971  0.94481  1.0000
  H   H4790     1.0  0.68703  0.81826  0.94784  1.0000
  H   H4791     1.0  0.64926  0.74805  0.78194  1.0000
  H   H4792     1.0  0.78044  0.90561  0.89444  1.0000
  H   H4793     1.0  0.60672  0.91681  0.92478  1.0000
  H   H4794     1.0  0.67510  0.83922  0.95306  1.0000
  C   C2692     1.0  0.62315  0.91438  0.85361  1.0000
  H   H4795     1.0  0.69297  0.94749  0.84613  1.0000
  C   C2693     1.0  0.76738  0.76001  0.54502  1.0000
  C   C2694     1.0  0.61508  0.93219  0.85392  1.0000
  C   C2695     1.0  0.71638  0.54047  0.70925  1.0000
  S   S601      1.0  0.62249  0.53059  0.62218  1.0000
  C   C2696     1.0  0.77046  0.76858  0.55686  1.0000
  H   H4796     1.0  0.74342  0.65125  0.51046  1.0000
  H   H4797     1.0  0.78059  0.95057  0.63992  1.0000
  C   C2697     1.0  0.64164  0.76242  0.72156  1.0000
  H   H4798     1.0  0.63444  0.72738  0.59951  1.0000
  C   C2698     1.0  0.70175  0.92104  0.86004  1.0000
  C   C2699     1.0  0.67694  0.51857  0.69500  1.0000
  S   S602      1.0  0.61131  0.57284  0.62420  1.0000
  H   H4799     1.0  0.65845  0.81377  0.94313  1.0000
  S   S603      1.0  0.65916  0.78154  0.78813  1.0000
  H   H4800     1.0  0.64895  0.59227  0.71403  1.0000
  C   C2700     1.0  0.61269  0.90174  0.85779  1.0000
  Fe  Fe300     1.0  0.66860  0.97781  0.93047  1.0000
  C   C2701     1.0  0.65865  0.82312  0.95112  1.0000
  H   H4801     1.0  0.64712  0.83460  0.95002  1.0000
  H   H4802     1.0  0.65808  0.53244  0.50080  1.0000
  C   C2702     1.0  0.66271  0.68565  0.56996  1.0000
  H   H4803     1.0  0.62910  0.60539  0.68653  1.0000
  H   H4804     1.0  0.71203  0.74223  0.89129  1.0000
  H   H4805     1.0  0.66189  0.50237  0.57463  1.0000
  H   H4806     1.0  0.62131  0.91290  0.80292  1.0000
  H   H4807     1.0  0.66925  0.62907  0.66244  1.0000
  H   H4808     1.0  0.77753  0.95429  0.94371  1.0000
  H   H4809     1.0  0.73940  0.95812  0.92166  1.0000
  H   H4810     1.0  0.70514  0.90194  0.83448  1.0000
  Fe  Fe301     1.0  0.64932  0.79331  0.76261  1.0000
  C   C2703     1.0  0.69391  0.52350  0.68148  1.0000
  H   H4811     1.0  0.78845  0.71274  0.76717  1.0000
  H   H4812     1.0  0.62608  0.93088  0.93413  1.0000
  H   H4813     1.0  0.78640  0.97523  0.52733  1.0000
  H   H4814     1.0  0.76366  0.91399  0.93974  1.0000
  C   C2704     1.0  0.77223  0.90900  0.65041  1.0000
  S   S604      1.0  0.79072  0.69632  0.86386  1.0000
  C   C2705     1.0  0.61583  0.80710  0.87140  1.0000
  C   C2706     1.0  0.73886  0.57178  0.58353  1.0000
  H   H4815     1.0  0.69181  0.97429  0.78617  1.0000
  H   H4816     1.0  0.70694  0.88676  0.79460  1.0000
  C   C2707     1.0  0.62369  0.71501  0.55542  1.0000
  H   H4817     1.0  0.76064  0.90220  0.91106  1.0000
  C   C2708     1.0  0.69216  0.93398  0.84555  1.0000
  C   C2709     1.0  0.62319  0.79694  0.84367  1.0000
  C   C2710     1.0  0.63949  0.74323  0.79398  1.0000
  C   C2711     1.0  0.62979  0.61482  0.67342  1.0000
  Fe  Fe302     1.0  0.61620  0.97590  0.84192  1.0000
  H   H4818     1.0  0.73074  0.90803  0.83739  1.0000
  C   C2712     1.0  0.63858  0.96989  0.78868  1.0000
  H   H4819     1.0  0.78756  0.62538  0.52603  1.0000
  C   C2713     1.0  0.75251  0.95894  0.92352  1.0000
  C   C2714     1.0  0.62953  0.62476  0.50495  1.0000
  H   H4820     1.0  0.77193  0.68026  0.78678  1.0000
  H   H4821     1.0  0.70042  0.63971  0.58653  1.0000
  H   H4822     1.0  0.78939  0.83617  0.72075  1.0000
  C   C2715     1.0  0.62672  0.79224  0.72549  1.0000
  C   C2716     1.0  0.61520  0.85569  0.82275  1.0000
  H   H4823     1.0  0.65894  0.60501  0.72273  1.0000
  Fe  Fe303     1.0  0.63777  0.83045  0.77030  1.0000
  H   H4824     1.0  0.61418  0.76290  0.57573  1.0000
  C   C2717     1.0  0.63488  0.61993  0.71299  1.0000
  C   C2718     1.0  0.70096  0.79787  0.87457  1.0000
  H   H4825     1.0  0.69733  0.55078  0.69207  1.0000
  H   H4826     1.0  0.79501  0.87450  0.74052  1.0000
  C   C2719     1.0  0.71854  0.93276  0.82020  1.0000
  C   C2720     1.0  0.77094  0.92474  0.91155  1.0000
  H   H4827     1.0  0.76172  0.90782  0.82274  1.0000
  H   H4828     1.0  0.74543  0.92652  0.93004  1.0000
  C   C2721     1.0  0.79183  0.62747  0.82685  1.0000
  H   H4829     1.0  0.65381  0.61753  0.68809  1.0000
  H   H4830     1.0  0.75450  0.88722  0.61226  1.0000
  C   C2722     1.0  0.72096  0.54488  0.66001  1.0000
  H   H4831     1.0  0.72453  0.69832  0.64273  1.0000
  H   H4832     1.0  0.62254  0.61696  0.71168  1.0000
  C   C2723     1.0  0.60742  0.97021  0.90819  1.0000
  H   H4833     1.0  0.66868  0.97675  0.79757  1.0000
  C   C2724     1.0  0.62272  0.63433  0.67598  1.0000
  H   H4834     1.0  0.64382  0.61229  0.66609  1.0000
  C   C2725     1.0  0.70946  0.77759  0.87717  1.0000
  H   H4835     1.0  0.65213  0.51188  0.69548  1.0000
  H   H4836     1.0  0.69551  0.76387  0.85894  1.0000
  H   H4837     1.0  0.75546  0.92670  0.80552  1.0000
  H   H4838     1.0  0.65935  0.86042  0.75746  1.0000
  H   H4839     1.0  0.77032  0.62784  0.51438  1.0000
  C   C2726     1.0  0.70269  0.53778  0.70024  1.0000
  C   C2727     1.0  0.60284  0.91873  0.76279  1.0000
  H   H4840     1.0  0.76836  0.76651  0.53114  1.0000
  C   C2728     1.0  0.73328  0.91568  0.82356  1.0000
  H   H4841     1.0  0.68283  0.91153  0.83305  1.0000
  H   H4842     1.0  0.73414  0.90672  0.81477  1.0000
  H   H4843     1.0  0.76474  0.84494  0.69086  1.0000
  H   H4844     1.0  0.73326  0.95013  0.95322  1.0000
  C   C2729     1.0  0.61549  0.75059  0.77626  1.0000
  C   C2730     1.0  0.61731  0.77858  0.70655  1.0000
  C   C2731     1.0  0.77541  0.71494  0.80257  1.0000
  S   S605      1.0  0.77567  0.72579  0.89741  1.0000
  H   H4845     1.0  0.61052  0.94822  0.81583  1.0000
  C   C2732     1.0  0.64545  0.62840  0.69472  1.0000
  C   C2733     1.0  0.77222  0.69425  0.78629  1.0000
  H   H4846     1.0  0.69118  0.53478  0.71118  1.0000
  C   C2734     1.0  0.69680  0.91290  0.82648  1.0000
  C   C2735     1.0  0.75156  0.92023  0.81975  1.0000
  C   C2736     1.0  0.70495  0.88894  0.80820  1.0000
  C   C2737     1.0  0.75936  0.92651  0.93031  1.0000
  H   H4847     1.0  0.75948  0.92560  0.61001  1.0000
  H   H4848     1.0  0.61153  0.74812  0.80498  1.0000
  H   H4849     1.0  0.74355  0.77373  0.63293  1.0000
  H   H4850     1.0  0.60529  0.66867  0.67355  1.0000
  H   H4851     1.0  0.71156  0.54413  0.65236  1.0000
  H   H4852     1.0  0.71165  0.91473  0.79845  1.0000
  H   H4853     1.0  0.75961  0.96094  0.62016  1.0000
  Fe  Fe304     1.0  0.78909  0.79013  0.58746  1.0000
  H   H4854     1.0  0.73800  0.57323  0.54569  1.0000
  Fe  Fe305     1.0  0.62636  0.54756  0.63867  1.0000
  S   S606      1.0  0.62332  0.80840  0.77596  1.0000
  H   H4855     1.0  0.71145  0.80572  0.87111  1.0000
  C   C2738     1.0  0.66741  0.77215  0.64683  1.0000
  H   H4856     1.0  0.68911  0.53688  0.67346  1.0000
  H   H4857     1.0  0.75612  0.98052  0.67296  1.0000
  N   N153      1.0  0.69932  0.93087  0.82685  1.0000
  H   H4858     1.0  0.71265  0.60933  0.55010  1.0000
  H   H4859     1.0  0.71307  0.59096  0.56829  1.0000
  C   C2739     1.0  0.73806  0.54815  0.64651  1.0000
  H   H4860     1.0  0.75836  0.63008  0.54610  1.0000
  H   H4861     1.0  0.75544  0.59109  0.57758  1.0000
  H   H4862     1.0  0.60510  0.68739  0.64272  1.0000
  H   H4863     1.0  0.69842  0.77051  0.88426  1.0000
  S   S607      1.0  0.62260  0.85833  0.76229  1.0000
  H   H4864     1.0  0.65526  0.63439  0.69751  1.0000
  C   C2740     1.0  0.72460  0.52740  0.67410  1.0000
  C   C2741     1.0  0.76331  0.88547  0.67771  1.0000
  H   H4865     1.0  0.72089  0.94290  0.82602  1.0000
  H   H4866     1.0  0.68837  0.91495  0.80206  1.0000
  C   C2742     1.0  0.64658  0.65166  0.66738  1.0000
  S   S608      1.0  0.69677  0.98080  0.92623  1.0000
  N   N154      1.0  0.77624  0.69565  0.80321  1.0000
  N   N155      1.0  0.75950  0.94265  0.93666  1.0000
  H   H4867     1.0  0.65432  0.68228  0.56284  1.0000
  C   C2743     1.0  0.64679  0.98384  0.75762  1.0000
  H   H4868     1.0  0.61432  0.60825  0.59626  1.0000
  H   H4869     1.0  0.61997  0.76762  0.79173  1.0000
  N   N156      1.0  0.63432  0.64214  0.68268  1.0000
  C   C2744     1.0  0.77808  0.94344  0.93719  1.0000
  N   N157      1.0  0.70912  0.52362  0.68936  1.0000
  H   H4870     1.0  0.78633  0.61128  0.74479  1.0000
  C   C2745     1.0  0.73404  0.49862  0.70262  1.0000
  H   H4871     1.0  0.66935  0.52998  0.70133  1.0000
  C   C2746     1.0  0.74709  0.94319  0.95473  1.0000
  H   H4872     1.0  0.61745  0.72930  0.55506  1.0000
  C   C2747     1.0  0.60516  0.93866  0.79510  1.0000
  H   H4873     1.0  0.63041  0.66062  0.69960  1.0000
  C   C2748     1.0  0.70349  0.64107  0.49873  1.0000
  H   H4874     1.0  0.69328  0.80260  0.86393  1.0000
  H   H4875     1.0  0.65722  0.81606  0.96530  1.0000
  C   C2749     1.0  0.76332  0.96688  0.67626  1.0000
  H   H4876     1.0  0.66058  0.79989  0.85462  1.0000
  H   H4877     1.0  0.62854  0.68699  0.63869  1.0000
  C   C2750     1.0  0.59988  0.67665  0.49715  1.0000
  H   H4878     1.0  0.75512  0.89038  0.65311  1.0000
  C   C2751     1.0  0.63389  0.80622  0.87013  1.0000
  Fe  Fe306     1.0  0.63440  0.79889  0.80063  1.0000
  H   H4879     1.0  0.62517  0.80345  0.73134  1.0000
  C   C2752     1.0  0.75129  0.55860  0.59504  1.0000
  H   H4880     1.0  0.68163  0.99135  0.79893  1.0000
  C   C2753     1.0  0.68259  0.75702  0.64107  1.0000
  C   C2754     1.0  0.78520  0.61118  0.58041  1.0000
  H   H4881     1.0  0.76157  0.95956  0.91015  1.0000
  H   H4882     1.0  0.65355  0.63489  0.64801  1.0000
  H   H4883     1.0  0.77260  0.74769  0.81029  1.0000
  H   H4884     1.0  0.76356  0.73702  0.59472  1.0000
  C   C2755     1.0  0.74254  0.75996  0.64039  1.0000
  H   H4885     1.0  0.64794  0.94205  0.90912  1.0000
  C   C2756     1.0  0.60031  0.94232  0.81378  1.0000
  H   H4886     1.0  0.67996  0.65700  0.64676  1.0000
  H   H4887     1.0  0.76440  0.95275  0.74351  1.0000
  C   C2757     1.0  0.76386  0.61669  0.54290  1.0000
  H   H4888     1.0  0.62361  0.59606  0.66191  1.0000
  C   C2758     1.0  0.63967  0.77676  0.72942  1.0000
  H   H4889     1.0  0.59992  0.85898  0.95707  1.0000
  C   C2759     1.0  0.76556  0.92139  0.55329  1.0000
  C   C2760     1.0  0.61052  0.80215  0.85835  1.0000
  C   C2761     1.0  0.76686  0.89181  0.60445  1.0000
  H   H4890     1.0  0.73998  0.93260  0.64658  1.0000
  H   H4891     1.0  0.62966  0.96974  0.80154  1.0000
  S   S609      1.0  0.65307  0.77423  0.74474  1.0000
  C   C2762     1.0  0.76099  0.94365  0.73722  1.0000
  H   H4892     1.0  0.61551  0.73121  0.59028  1.0000
  C   C2763     1.0  0.61520  0.93899  0.90390  1.0000
  H   H4893     1.0  0.72105  0.96307  0.64175  1.0000
  C   C2764     1.0  0.63054  0.76330  0.71022  1.0000
  C   C2765     1.0  0.68808  0.80231  0.89156  1.0000
  H   H4894     1.0  0.67693  0.79527  0.89520  1.0000
  H   H4895     1.0  0.78601  0.94716  0.92348  1.0000
  C   C2766     1.0  0.75252  0.93759  0.64077  1.0000
  H   H4896     1.0  0.61131  0.97997  0.91321  1.0000
  H   H4897     1.0  0.77750  0.88780  0.62738  1.0000
  C   C2767     1.0  0.79404  0.76237  0.85502  1.0000
  H   H4898     1.0  0.78088  0.73932  0.83061  1.0000
  H   H4899     1.0  0.79365  0.67872  0.82069  1.0000
  C   C2768     1.0  0.77833  0.74608  0.88236  1.0000
  H   H4900     1.0  0.75807  0.91630  0.96954  1.0000
  H   H4901     1.0  0.78210  0.86941  0.71833  1.0000
  H   H4902     1.0  0.61924  0.61877  0.64977  1.0000
  H   H4903     1.0  0.75517  0.94160  0.65189  1.0000
  H   H4904     1.0  0.65158  0.75039  0.72454  1.0000
  H   H4905     1.0  0.69506  0.79840  0.90274  1.0000
  H   H4906     1.0  0.68228  0.81686  0.88932  1.0000
  H   H4907     1.0  0.63188  0.75192  0.70477  1.0000
  H   H4908     1.0  0.78866  0.97399  0.67159  1.0000
  H   H4909     1.0  0.64096  0.96546  0.90738  1.0000
  H   H4910     1.0  0.75432  0.99259  0.90114  1.0000
  S   S610      1.0  0.61641  0.79134  0.82707  1.0000
  Fe  Fe307     1.0  0.62249  0.83366  0.89918  1.0000
  H   H4911     1.0  0.76343  0.55194  0.58662  1.0000
  C   C2769     1.0  0.65899  0.96639  0.87517  1.0000
  H   H4912     1.0  0.62620  0.52625  0.53179  1.0000
  C   C2770     1.0  0.71096  0.57686  0.54302  1.0000
  H   H4913     1.0  0.61906  0.88810  0.85732  1.0000
  S   S611      1.0  0.75754  0.73355  0.53610  1.0000
  H   H4914     1.0  0.60192  0.68670  0.70419  1.0000
  C   C2771     1.0  0.64122  0.79637  0.84224  1.0000
  C   C2772     1.0  0.64375  0.95657  0.88311  1.0000
  C   C2773     1.0  0.66047  0.64018  0.65502  1.0000
  H   H4915     1.0  0.74092  0.62130  0.57199  1.0000
  H   H4916     1.0  0.65108  0.79222  0.83102  1.0000
  C   C2774     1.0  0.78157  0.73656  0.81751  1.0000
  H   H4917     1.0  0.74429  0.54826  0.60425  1.0000
  H   H4918     1.0  0.78182  0.93905  0.61131  1.0000
  H   H4919     1.0  0.61976  0.64290  0.66313  1.0000
  C   C2775     1.0  0.78400  0.93022  0.62429  1.0000
  H   H4920     1.0  0.62121  0.67091  0.63161  1.0000
  H   H4921     1.0  0.69949  0.58776  0.53980  1.0000
  C   C2776     1.0  0.72672  0.58445  0.54269  1.0000
  H   H4922     1.0  0.60874  0.78238  0.96392  1.0000
  H   H4923     1.0  0.73079  0.59199  0.52888  1.0000
  H   H4924     1.0  0.69040  0.68745  0.56499  1.0000
  H   H4925     1.0  0.62015  0.86058  0.80822  1.0000
  S   S612      1.0  0.78146  0.64431  0.55876  1.0000
  H   H4926     1.0  0.72256  0.62869  0.56120  1.0000
  H   H4927     1.0  0.71944  0.63640  0.59619  1.0000
  H   H4928     1.0  0.75478  0.59784  0.53468  1.0000
  H   H4929     1.0  0.61962  0.85999  0.84730  1.0000
  C   C2777     1.0  0.74850  0.60868  0.54215  1.0000
  C   C2778     1.0  0.70903  0.63003  0.59528  1.0000
  C   C2779     1.0  0.71753  0.61299  0.58821  1.0000
  H   H4930     1.0  0.74222  0.75899  0.65458  1.0000
  H   H4931     1.0  0.76658  0.64938  0.65198  1.0000
  S   S613      1.0  0.67918  0.59686  0.50785  1.0000
  C   C2780     1.0  0.71418  0.50537  0.70103  1.0000
  H   H4932     1.0  0.60649  0.69529  0.61035  1.0000
  C   C2781     1.0  0.60642  0.69047  0.50233  1.0000
  H   H4933     1.0  0.64808  0.94334  0.87946  1.0000
  H   H4934     1.0  0.61943  0.84088  0.82517  1.0000
  H   H4935     1.0  0.62421  0.93420  0.96571  1.0000
  C   C2782     1.0  0.76347  0.93538  0.68608  1.0000
  H   H4936     1.0  0.77571  0.68689  0.75344  1.0000
  C   C2783     1.0  0.76873  0.76054  0.57494  1.0000
  H   H4937     1.0  0.66439  0.66240  0.63232  1.0000
  H   H4938     1.0  0.70682  0.56832  0.55624  1.0000
  C   C2784     1.0  0.76163  0.91539  0.62227  1.0000
  H   H4939     1.0  0.64093  0.51863  0.55373  1.0000
  S   S614      1.0  0.77045  0.77147  0.59084  1.0000
  H   H4940     1.0  0.75651  0.93052  0.56181  1.0000
  C   C2785     1.0  0.65336  0.52715  0.51520  1.0000
  C   C2786     1.0  0.63035  0.72691  0.58737  1.0000
  H   H4941     1.0  0.63264  0.96423  0.87652  1.0000
  H   H4942     1.0  0.65462  0.63286  0.49825  1.0000
  H   H4943     1.0  0.63472  0.77052  0.56585  1.0000
  C   C2787     1.0  0.66457  0.51439  0.68576  1.0000
  H   H4944     1.0  0.76426  0.93430  0.90113  1.0000
  C   C2788     1.0  0.61809  0.68490  0.63319  1.0000
  H   H4945     1.0  0.75534  0.56558  0.60310  1.0000
  H   H4946     1.0  0.67257  0.78410  0.64569  1.0000
  H   H4947     1.0  0.77367  0.78162  0.55208  1.0000
  H   H4948     1.0  0.66372  0.96628  0.86079  1.0000
  H   H4949     1.0  0.63691  0.74143  0.55924  1.0000
  H   H4950     1.0  0.78095  0.94864  0.55360  1.0000
  H   H4951     1.0  0.76235  0.92552  0.53987  1.0000
  S   S615      1.0  0.60224  0.77951  0.69341  1.0000
  C   C2789     1.0  0.62850  0.76021  0.57615  1.0000
  C   C2790     1.0  0.66171  0.96968  0.75540  1.0000
  H   H4952     1.0  0.76501  0.89292  0.68679  1.0000
  H   H4953     1.0  0.77599  0.87591  0.67393  1.0000
  C   C2791     1.0  0.78955  0.62274  0.70007  1.0000
  H   H4954     1.0  0.67671  0.74552  0.64217  1.0000
  H   H4955     1.0  0.75866  0.70234  0.78491  1.0000
  C   C2792     1.0  0.75413  0.95302  0.68186  1.0000
  H   H4956     1.0  0.77107  0.66115  0.81817  1.0000
  H   H4957     1.0  0.64553  0.69633  0.60849  1.0000
  H   H4958     1.0  0.67112  0.50235  0.68013  1.0000
  H   H4959     1.0  0.63873  0.59779  0.73542  1.0000
  H   H4960     1.0  0.77520  0.91519  0.65985  1.0000
  H   H4961     1.0  0.65702  0.71417  0.56099  1.0000
  C   C2793     1.0  0.68210  0.97747  0.79838  1.0000
  H   H4962     1.0  0.74496  0.90739  0.66579  1.0000
  C   C2794     1.0  0.65505  0.70459  0.57393  1.0000
  C   C2795     1.0  0.63514  0.69537  0.60200  1.0000
  H   H4963     1.0  0.61890  0.96978  0.93856  1.0000
  H   H4964     1.0  0.62105  0.79498  0.97015  1.0000
  H   H4965     1.0  0.78372  0.60599  0.52146  1.0000
  Fe  Fe308     1.0  0.68589  0.56756  0.50913  1.0000
  H   H4966     1.0  0.60335  0.91301  0.89581  1.0000
  N   N158      1.0  0.76761  0.92304  0.63443  1.0000
  H   H4967     1.0  0.76879  0.68464  0.71984  1.0000
  C   C2796     1.0  0.77363  0.90602  0.90847  1.0000
  H   H4968     1.0  0.71418  0.76505  0.64477  1.0000
  H   H4969     1.0  0.79258  0.67858  0.58915  1.0000
  C   C2797     1.0  0.78207  0.93163  0.68426  1.0000
  C   C2798     1.0  0.74506  0.92508  0.96772  1.0000
  C   C2799     1.0  0.62241  0.65575  0.69318  1.0000
  H   H4970     1.0  0.65727  0.77574  0.63854  1.0000
  H   H4971     1.0  0.78182  0.64854  0.66549  1.0000
  C   C2800     1.0  0.62567  0.86195  0.83286  1.0000
  H   H4972     1.0  0.64077  0.72871  0.79554  1.0000
  C   C2801     1.0  0.61257  0.62590  0.51614  1.0000
  C   C2802     1.0  0.62463  0.95530  0.94166  1.0000
  C   C2803     1.0  0.78565  0.69949  0.76877  1.0000
  H   H4973     1.0  0.79698  0.62989  0.68815  1.0000
  H   H4974     1.0  0.79637  0.67140  0.80090  1.0000
  H   H4975     1.0  0.68614  0.53197  0.50484  1.0000
  C   C2804     1.0  0.79114  0.94008  0.63427  1.0000
  H   H4976     1.0  0.79536  0.70543  0.59651  1.0000
  C   C2805     1.0  0.78917  0.92647  0.94715  1.0000
  H   H4977     1.0  0.78273  0.94612  0.53185  1.0000
  Fe  Fe309     1.0  0.79547  0.70240  0.88767  1.0000
  C   C2806     1.0  0.77861  0.69998  0.75261  1.0000
  H   H4978     1.0  0.79525  0.91920  0.62070  1.0000
  C   C2807     1.0  0.61284  0.70801  0.54681  1.0000
  H   H4979     1.0  0.78758  0.58475  0.59699  1.0000
  C   C2808     1.0  0.79318  0.62173  0.71662  1.0000
  H   H4980     1.0  0.78435  0.92736  0.90964  1.0000
  H   H4981     1.0  0.78821  0.69767  0.57151  1.0000
  H   H4982     1.0  0.75407  0.95187  0.72640  1.0000
  C   C2809     1.0  0.60761  0.63589  0.52931  1.0000
  H   H4983     1.0  0.78804  0.92699  0.75297  1.0000
  H   H4984     1.0  0.73421  0.71170  0.50091  1.0000
  H   H4985     1.0  0.63960  0.49860  0.58281  1.0000
  H   H4986     1.0  0.61260  0.64956  0.70427  1.0000
  H   H4987     1.0  0.61872  0.69383  0.54619  1.0000
  S   S616      1.0  0.79298  0.81744  0.63718  1.0000
  H   H4988     1.0  0.60261  0.86974  0.98244  1.0000
  H   H4989     1.0  0.77792  0.90988  0.75301  1.0000
  H   H4990     1.0  0.60780  0.83429  0.80489  1.0000
  H   H4991     1.0  0.60630  0.80602  0.95508  1.0000
  H   H4992     1.0  0.78883  0.99431  0.54600  1.0000
  H   H4993     1.0  0.68013  0.50678  0.70565  1.0000
  H   H4994     1.0  0.71778  0.50158  0.49549  1.0000
  H   H4995     1.0  0.77384  0.92349  0.72215  1.0000
  C   C2810     1.0  0.77785  0.93122  0.72946  1.0000
  H   H4996     1.0  0.78065  0.73146  0.61916  1.0000
  H   H4997     1.0  0.60688  0.50227  0.58310  1.0000
  H   H4998     1.0  0.79831  0.68931  0.76838  1.0000
  H   H4999     1.0  0.60437  0.61166  0.67060  1.0000
  C   C2811     1.0  0.74399  0.99263  0.91367  1.0000
  C   C2812     1.0  0.79226  0.73325  0.62313  1.0000
  C   C2813     1.0  0.60820  0.79528  0.96704  1.0000
  H   H5000     1.0  0.74697  0.73414  0.50046  1.0000
  H   H5001     1.0  0.69408  0.71973  0.50058  1.0000
  H   H5002     1.0  0.60236  0.74299  0.72541  1.0000
  H   H5003     1.0  0.67982  0.50641  0.49442  1.0000
  H   H5004     1.0  0.79683  0.93046  0.64531  1.0000
  H   H5005     1.0  0.60338  0.61879  0.51488  1.0000
  H   H5006     1.0  0.79124  0.74769  0.62170  1.0000
  C   C2814     1.0  0.65194  0.49628  0.57242  1.0000
  H   H5007     1.0  0.79013  0.91453  0.94213  1.0000
  H   H5008     1.0  0.60710  0.52508  0.58196  1.0000
  H   H5009     1.0  0.79678  0.60746  0.57030  1.0000
  H   H5010     1.0  0.77316  0.66552  0.49551  1.0000
  H   H5011     1.0  0.74016  0.93506  0.99188  1.0000
  C   C2815     1.0  0.70127  0.65640  0.50537  1.0000
  H   H5012     1.0  0.78723  0.88932  0.70314  1.0000
  H   H5013     1.0  0.59890  0.70924  0.55457  1.0000
  H   H5014     1.0  0.79178  0.72659  0.63733  1.0000
  C   C2816     1.0  0.72031  0.62972  0.49570  1.0000
  S   S617      1.0  0.60641  0.56369  0.58005  1.0000
  H   H5015     1.0  0.69234  0.63838  0.49540  1.0000
  C   C2817     1.0  0.79805  0.99393  0.53284  1.0000
  H   H5016     1.0  0.60511  0.60716  0.56164  1.0000
  H   H5017     1.0  0.79794  0.73924  0.58870  1.0000
  C   C2818     1.0  0.59917  0.51459  0.58778  1.0000
  S   S618      1.0  0.60243  0.54144  0.66024  1.0000
  C   C2819     1.0  0.79158  0.87843  0.71405  1.0000
  C   C2820     1.0  0.79157  0.88597  0.72965  1.0000
  C   C2821     1.0  0.60208  0.61129  0.57452  1.0000
  H   H5018     1.0  0.66002  0.98956  0.98847  1.0000
  H   H5019     1.0  0.59937  0.92976  0.82387  1.0000
  H   H5020     1.0  0.79780  0.83466  0.66255  1.0000
  H   H5021     1.0  0.64446  0.99484  0.74653  1.0000
  C   C2822     1.0  0.79871  0.68875  0.57853  1.0000
  H   H5022     1.0  0.76976  0.72333  0.49332  1.0000
  H   H5023     1.0  0.61156  0.66593  0.49398  1.0000
  H   H5024     1.0  0.96107  0.09706  0.47053  1.0000
  H   H5025     1.0  0.87737  0.33237  0.13796  1.0000
  Fe  Fe310     1.0  0.94604  0.23840  0.20398  1.0000
  S   S619      1.0  0.96985  0.24582  0.20764  1.0000
  S   S620      1.0  0.93368  0.21676  0.22386  1.0000
  Fe  Fe311     1.0  0.94572  0.26370  0.16801  1.0000
  S   S621      1.0  0.96925  0.27335  0.16877  1.0000
  S   S622      1.0  0.93427  0.27667  0.14366  1.0000
  Fe  Fe312     1.0  0.98088  0.24465  0.17886  1.0000
  Fe  Fe313     1.0  0.95611  0.27373  0.19712  1.0000
  S   S623      1.0  0.95505  0.29804  0.20652  1.0000
  S   S624      1.0  0.95823  0.23483  0.17600  1.0000
  S   S625      1.0  0.93132  0.26653  0.19570  1.0000
  Fe  Fe314     1.0  0.92888  0.39484  0.03438  1.0000
  S   S626      1.0  0.91444  0.39328  0.06289  1.0000
  S   S627      1.0  0.95090  0.37222  0.02672  1.0000
  Fe  Fe315     1.0  0.90735  0.43126  0.02167  1.0000
  S   S628      1.0  0.89090  0.43278  0.04904  1.0000
  H   H5026     1.0  0.87910  0.01996  0.47068  1.0000
  Fe  Fe316     1.0  0.91688  0.42165  0.05787  1.0000
  S   S629      1.0  0.92176  0.43317  0.07851  1.0000
  Fe  Fe317     1.0  0.88994  0.40433  0.05163  1.0000
  S   S630      1.0  0.86478  0.39433  0.06582  1.0000
  S   S631      1.0  0.93348  0.42227  0.03030  1.0000
  S   S632      1.0  0.90414  0.40368  0.02333  1.0000
  Fe  Fe318     1.0  0.83138  0.28908  0.13189  1.0000
  S   S633      1.0  0.86054  0.28707  0.12114  1.0000
  H   H5027     1.0  0.90409  0.31286  0.03808  1.0000
  H   H5028     1.0  0.81790  0.41842  0.18186  1.0000
  S   S634      1.0  0.85651  0.26715  0.09152  1.0000
  C   C2823     1.0  0.92627  0.18313  0.41411  1.0000
  Fe  Fe319     1.0  0.86130  0.25945  0.11920  1.0000
  S   S635      1.0  0.88332  0.23719  0.12819  1.0000
  Fe  Fe320     1.0  0.85386  0.29520  0.09431  1.0000
  S   S636      1.0  0.87129  0.31207  0.07317  1.0000
  H   H5029     1.0  0.80169  0.08250  0.25256  1.0000
  H   H5030     1.0  0.80149  0.16433  0.12461  1.0000
  Fe  Fe321     1.0  0.86843  0.35913  0.20254  1.0000
  S   S637      1.0  0.87958  0.36114  0.17336  1.0000
  S   S638      1.0  0.87310  0.33367  0.22278  1.0000
  Fe  Fe322     1.0  0.84837  0.39716  0.19800  1.0000
  S   S639      1.0  0.85785  0.40299  0.16832  1.0000
  H   H5031     1.0  0.83085  0.31246  0.02857  1.0000
  Fe  Fe323     1.0  0.85227  0.37643  0.17008  1.0000
  S   S640      1.0  0.84025  0.37340  0.14897  1.0000
  Fe  Fe324     1.0  0.88455  0.38740  0.17379  1.0000
  S   S641      1.0  0.91056  0.39248  0.15560  1.0000
  S   S642      1.0  0.84050  0.37189  0.19925  1.0000
  S   S643      1.0  0.87574  0.38399  0.20345  1.0000
  Fe  Fe325     1.0  0.98301  0.44360  0.14072  1.0000
  S   S644      1.0  0.99123  0.46290  0.11525  1.0000
  S   S645      1.0  0.95517  0.44628  0.15823  1.0000
  H   H5032     1.0  0.94668  0.40866  0.99549  1.0000
  C   C2824     1.0  0.95775  0.02911  0.48732  1.0000
  H   H5033     1.0  0.81788  0.33214  0.30818  1.0000
  Fe  Fe326     1.0  0.93140  0.17420  0.34863  1.0000
  S   S646      1.0  0.91946  0.20283  0.34984  1.0000
  S   S647      1.0  0.95864  0.15878  0.35343  1.0000
  Fe  Fe327     1.0  0.89861  0.16931  0.33879  1.0000
  S   S648      1.0  0.88408  0.19741  0.33923  1.0000
  S   S649      1.0  0.88674  0.14837  0.33497  1.0000
  Fe  Fe328     1.0  0.91052  0.20434  0.32494  1.0000
  S   S650      1.0  0.91219  0.22853  0.30251  1.0000
  Fe  Fe329     1.0  0.89423  0.19331  0.36402  1.0000
  S   S651      1.0  0.87662  0.20008  0.38959  1.0000
  S   S652      1.0  0.92445  0.17632  0.32256  1.0000
  S   S653      1.0  0.90681  0.16450  0.36471  1.0000
  C   C2825     1.0  0.93513  0.11132  0.48179  1.0000
  C   C2826     1.0  0.90755  0.01305  0.48429  1.0000
  H   H5034     1.0  0.87722  0.30384  0.03704  1.0000
  H   H5035     1.0  0.85202  0.30115  0.03401  1.0000
  S   S654      1.0  0.97518  0.12664  0.44266  1.0000
  H   H5036     1.0  0.99743  0.04785  0.29337  1.0000
  C   C2827     1.0  0.94398  0.47389  0.01737  1.0000
  H   H5037     1.0  0.95889  0.04069  0.47593  1.0000
  Fe  Fe330     1.0  0.97108  0.12687  0.47126  1.0000
  C   C2828     1.0  0.81105  0.21465  0.07239  1.0000
  H   H5038     1.0  0.82383  0.12713  0.42345  1.0000
  C   C2829     1.0  0.88815  0.00704  0.46859  1.0000
  Fe  Fe331     1.0  0.83372  0.13599  0.27658  1.0000
  S   S655      1.0  0.82691  0.11918  0.30384  1.0000
  S   S656      1.0  0.84679  0.15900  0.27299  1.0000
  Fe  Fe332     1.0  0.81560  0.11659  0.26004  1.0000
  H   H5039     1.0  0.82754  0.09209  0.14997  1.0000
  S   S657      1.0  0.84168  0.13270  0.47739  1.0000
  H   H5040     1.0  0.82293  0.11029  0.12024  1.0000
  Fe  Fe333     1.0  0.83584  0.09654  0.28970  1.0000
  S   S658      1.0  0.85308  0.07107  0.30211  1.0000
  C   C2830     1.0  0.83633  0.25193  0.40159  1.0000
  S   S659      1.0  0.84410  0.11319  0.26241  1.0000
  Fe  Fe334     1.0  0.93311  0.03712  0.37729  1.0000
  S   S660      1.0  0.92565  0.06679  0.36882  1.0000
  S   S661      1.0  0.91468  0.02130  0.39769  1.0000
  Fe  Fe335     1.0  0.96851  0.03436  0.35157  1.0000
  S   S662      1.0  0.96399  0.06386  0.34072  1.0000
  Fe  Fe336     1.0  0.95393  0.06576  0.36934  1.0000
  S   S663      1.0  0.96028  0.08743  0.37813  1.0000
  Fe  Fe337     1.0  0.93618  0.06224  0.34111  1.0000
  S   S664      1.0  0.92388  0.07984  0.31815  1.0000
  S   S665      1.0  0.96052  0.03635  0.38024  1.0000
  S   S666      1.0  0.94161  0.03243  0.34949  1.0000
  S   S667      1.0  0.84633  0.06597  0.43957  1.0000
  C   C2831     1.0  0.89558  0.03532  0.40735  1.0000
  C   C2832     1.0  0.89718  0.04872  0.41467  1.0000
  C   C2833     1.0  0.88211  0.05800  0.42487  1.0000
  C   C2834     1.0  0.86527  0.05465  0.42677  1.0000
  C   C2835     1.0  0.86354  0.04202  0.41854  1.0000
  C   C2836     1.0  0.87872  0.03208  0.40917  1.0000
  H   H5041     1.0  0.91013  0.05149  0.41294  1.0000
  H   H5042     1.0  0.88350  0.06785  0.43110  1.0000
  H   H5043     1.0  0.85055  0.03937  0.42003  1.0000
  H   H5044     1.0  0.87745  0.02171  0.40354  1.0000
  C   C2837     1.0  0.87273  0.07341  0.30672  1.0000
  C   C2838     1.0  0.88219  0.05945  0.31791  1.0000
  C   C2839     1.0  0.89766  0.06135  0.32195  1.0000
  C   C2840     1.0  0.90392  0.07712  0.31453  1.0000
  C   C2841     1.0  0.89448  0.09097  0.30332  1.0000
  C   C2842     1.0  0.87896  0.08916  0.29946  1.0000
  H   H5045     1.0  0.87744  0.04722  0.32360  1.0000
  H   H5046     1.0  0.90485  0.05054  0.33057  1.0000
  H   H5047     1.0  0.89915  0.10320  0.29765  1.0000
  H   H5048     1.0  0.87192  0.09984  0.29063  1.0000
  H   H5049     1.0  0.87954  0.44566  0.08502  1.0000
  H   H5050     1.0  0.80274  0.06911  0.44790  1.0000
  C   C2843     1.0  0.82047  0.14189  0.47261  1.0000
  C   C2844     1.0  0.82579  0.22226  0.06981  1.0000
  Fe  Fe338     1.0  0.88418  0.07517  0.47596  1.0000
  H   H5051     1.0  0.88277  0.34055  0.01383  1.0000
  C   C2845     1.0  0.97129  0.08435  0.39548  1.0000
  C   C2846     1.0  0.97298  0.09961  0.39969  1.0000
  S   S668      1.0  0.80625  0.14113  0.27153  1.0000
  H   H5052     1.0  0.96675  0.11258  0.39300  1.0000
  C   C2847     1.0  0.86435  0.00488  0.45419  1.0000
  C   C2848     1.0  0.87632  0.15204  0.31711  1.0000
  C   C2849     1.0  0.87138  0.16901  0.30665  1.0000
  C   C2850     1.0  0.86270  0.17110  0.29278  1.0000
  C   C2851     1.0  0.85853  0.15634  0.28968  1.0000
  C   C2852     1.0  0.86391  0.13945  0.29988  1.0000
  C   C2853     1.0  0.87306  0.13729  0.31327  1.0000
  H   H5053     1.0  0.87425  0.18044  0.30924  1.0000
  H   H5054     1.0  0.85906  0.18414  0.28454  1.0000
  H   H5055     1.0  0.86139  0.12795  0.29718  1.0000
  H   H5056     1.0  0.87791  0.12403  0.32047  1.0000
  C   C2854     1.0  0.96629  0.16187  0.37096  1.0000
  C   C2855     1.0  0.97757  0.14757  0.37988  1.0000
  C   C2856     1.0  0.98417  0.14962  0.39367  1.0000
  C   C2857     1.0  0.98015  0.16622  0.39818  1.0000
  H   H5057     1.0  0.84527  0.48039  0.00713  1.0000
  C   C2858     1.0  0.96213  0.17847  0.37553  1.0000
  H   H5058     1.0  0.98111  0.13484  0.37617  1.0000
  H   H5059     1.0  0.86682  0.15959  0.47988  1.0000
  N   N159      1.0  0.85532  0.33749  0.02155  1.0000
  H   H5060     1.0  0.95368  0.18967  0.36856  1.0000
  C   C2859     1.0  0.85472  0.20448  0.38681  1.0000
  C   C2860     1.0  0.85069  0.21417  0.37050  1.0000
  C   C2861     1.0  0.83437  0.21486  0.36677  1.0000
  H   H5061     1.0  0.81583  0.19035  0.40600  1.0000
  C   C2862     1.0  0.82550  0.19708  0.39613  1.0000
  C   C2863     1.0  0.84175  0.19681  0.40002  1.0000
  H   H5062     1.0  0.86037  0.22085  0.36061  1.0000
  C   C2864     1.0  0.97228  0.48430  0.05385  1.0000
  H   H5063     1.0  0.87473  0.33488  0.03691  1.0000
  H   H5064     1.0  0.84463  0.18999  0.41291  1.0000
  C   C2865     1.0  0.98786  0.24278  0.27387  1.0000
  C   C2866     1.0  0.98741  0.09377  0.28201  1.0000
  C   C2867     1.0  0.92203  0.40809  0.15657  1.0000
  C   C2868     1.0  0.91643  0.41792  0.16993  1.0000
  C   C2869     1.0  0.92652  0.42981  0.17029  1.0000
  C   C2870     1.0  0.94215  0.43194  0.15730  1.0000
  C   C2871     1.0  0.94734  0.42238  0.14381  1.0000
  C   C2872     1.0  0.93747  0.41043  0.14354  1.0000
  H   H5065     1.0  0.90449  0.41624  0.18003  1.0000
  H   H5066     1.0  0.92232  0.43725  0.18072  1.0000
  H   H5067     1.0  0.95882  0.42435  0.13338  1.0000
  H   H5068     1.0  0.94187  0.40301  0.13309  1.0000
  C   C2873     1.0  0.82682  0.31991  0.15442  1.0000
  C   C2874     1.0  0.82707  0.32531  0.16961  1.0000
  C   C2875     1.0  0.83206  0.34134  0.16800  1.0000
  C   C2876     1.0  0.83615  0.35232  0.15121  1.0000
  C   C2877     1.0  0.83586  0.34693  0.13603  1.0000
  C   C2878     1.0  0.83152  0.33059  0.13760  1.0000
  C   C2879     1.0  0.94687  0.09773  0.47381  1.0000
  H   H5069     1.0  0.83211  0.34557  0.17974  1.0000
  H   H5070     1.0  0.83904  0.35539  0.12300  1.0000
  H   H5071     1.0  0.83137  0.32651  0.12581  1.0000
  C   C2880     1.0  0.94404  0.43222  0.07887  1.0000
  C   C2881     1.0  0.95810  0.42811  0.06470  1.0000
  C   C2882     1.0  0.97550  0.42909  0.06458  1.0000
  C   C2883     1.0  0.97902  0.43365  0.07885  1.0000
  C   C2884     1.0  0.96504  0.43732  0.09319  1.0000
  C   C2885     1.0  0.94759  0.43669  0.09316  1.0000
  H   H5072     1.0  0.95552  0.42459  0.05366  1.0000
  H   H5073     1.0  0.98623  0.42636  0.05340  1.0000
  H   H5074     1.0  0.96757  0.44113  0.10411  1.0000
  H   H5075     1.0  0.93681  0.43985  0.10419  1.0000
  C   C2886     1.0  0.86741  0.37100  0.07005  1.0000
  C   C2887     1.0  0.85306  0.36302  0.07997  1.0000
  C   C2888     1.0  0.85444  0.34463  0.08204  1.0000
  C   C2889     1.0  0.87014  0.33422  0.07402  1.0000
  C   C2890     1.0  0.88472  0.34208  0.06477  1.0000
  C   C2891     1.0  0.88341  0.36038  0.06287  1.0000
  H   H5076     1.0  0.84071  0.37115  0.08571  1.0000
  H   H5077     1.0  0.84314  0.33868  0.08923  1.0000
  H   H5078     1.0  0.89694  0.33409  0.05862  1.0000
  H   H5079     1.0  0.89458  0.36637  0.05528  1.0000
  C   C2892     1.0  0.96275  0.36474  0.04374  1.0000
  H   H5080     1.0  0.83450  0.11396  0.35424  1.0000
  C   C2893     1.0  0.96075  0.37574  0.05540  1.0000
  H   H5081     1.0  0.99555  0.39029  0.16426  1.0000
  H   H5082     1.0  0.95273  0.38911  0.05334  1.0000
  C   C2894     1.0  0.92588  0.22037  0.24561  1.0000
  C   C2895     1.0  0.92375  0.20583  0.25993  1.0000
  C   C2896     1.0  0.91901  0.20825  0.27750  1.0000
  C   C2897     1.0  0.91614  0.22525  0.28078  1.0000
  C   C2898     1.0  0.91744  0.23989  0.26644  1.0000
  C   C2899     1.0  0.92249  0.23745  0.24887  1.0000
  H   H5083     1.0  0.92620  0.19263  0.25743  1.0000
  H   H5084     1.0  0.91770  0.19695  0.28845  1.0000
  H   H5085     1.0  0.91498  0.25308  0.26895  1.0000
  H   H5086     1.0  0.92398  0.24874  0.23788  1.0000
  C   C2900     1.0  0.93246  0.30827  0.21212  1.0000
  C   C2901     1.0  0.92008  0.29814  0.22278  1.0000
  C   C2902     1.0  0.90192  0.30621  0.22680  1.0000
  C   C2903     1.0  0.89603  0.32424  0.21950  1.0000
  C   C2904     1.0  0.90839  0.33435  0.20872  1.0000
  C   C2905     1.0  0.92664  0.32642  0.20524  1.0000
  H   H5087     1.0  0.92451  0.28406  0.22791  1.0000
  H   H5088     1.0  0.89239  0.29832  0.23503  1.0000
  H   H5089     1.0  0.90390  0.34825  0.20292  1.0000
  H   H5090     1.0  0.93615  0.33417  0.19670  1.0000
  C   C2906     1.0  0.89887  0.24707  0.13175  1.0000
  C   C2907     1.0  0.90749  0.23929  0.14600  1.0000
  C   C2908     1.0  0.91848  0.24826  0.14982  1.0000
  C   C2909     1.0  0.92094  0.26489  0.13926  1.0000
  C   C2910     1.0  0.91271  0.27239  0.12477  1.0000
  C   C2911     1.0  0.90182  0.26344  0.12096  1.0000
  H   H5091     1.0  0.90522  0.22663  0.15442  1.0000
  H   H5092     1.0  0.92481  0.24240  0.16106  1.0000
  H   H5093     1.0  0.91478  0.28512  0.11642  1.0000
  H   H5094     1.0  0.89578  0.26919  0.10953  1.0000
  H   H5095     1.0  0.94155  0.01421  0.45298  1.0000
  H   H5096     1.0  0.80713  0.36338  0.29315  1.0000
  H   H5097     1.0  0.94224  0.10174  0.33122  1.0000
  H   H5098     1.0  0.84060  0.15370  0.16791  1.0000
  H   H5099     1.0  0.89437  0.47020  0.07374  1.0000
  C   C2912     1.0  0.96884  0.16341  0.29225  1.0000
  H   H5100     1.0  0.85396  0.43904  0.07615  1.0000
  H   H5101     1.0  0.83582  0.24221  0.07571  1.0000
  H   H5102     1.0  0.83834  0.21715  0.06154  1.0000
  H   H5103     1.0  0.96720  0.37793  0.07903  1.0000
  H   H5104     1.0  0.90958  0.29492  0.02660  1.0000
  H   H5105     1.0  0.96274  0.03519  0.29865  1.0000
  C   C2913     1.0  0.94031  0.08460  0.47050  1.0000
  H   H5106     1.0  0.88854  0.46833  0.02804  1.0000
  H   H5107     1.0  0.81512  0.14603  0.35012  1.0000
  C   C2914     1.0  0.85221  0.45048  0.08228  1.0000
  Fe  Fe339     1.0  0.85343  0.07420  0.46094  1.0000
  H   H5108     1.0  0.83040  0.42947  0.10736  1.0000
  N   N160      1.0  0.85487  0.10957  0.37875  1.0000
  C   C2915     1.0  0.84042  0.12620  0.38036  1.0000
  C   C2916     1.0  0.84841  0.09309  0.39028  1.0000
  C   C2917     1.0  0.86999  0.11134  0.38579  1.0000
  C   C2918     1.0  0.86200  0.10766  0.35970  1.0000
  C   C2919     1.0  0.84831  0.10736  0.34916  1.0000
  C   C2920     1.0  0.84505  0.14393  0.36827  1.0000
  C   C2921     1.0  0.88610  0.09526  0.38649  1.0000
  C   C2922     1.0  0.84893  0.08863  0.34726  1.0000
  C   C2923     1.0  0.83081  0.16003  0.37316  1.0000
  C   C2924     1.0  0.89864  0.09730  0.39696  1.0000
  H   H5109     1.0  0.83654  0.12773  0.39438  1.0000
  H   H5110     1.0  0.82792  0.12530  0.37743  1.0000
  H   H5111     1.0  0.85709  0.08099  0.38565  1.0000
  H   H5112     1.0  0.82993  0.16079  0.44939  1.0000
  H   H5113     1.0  0.86480  0.11401  0.39946  1.0000
  H   H5114     1.0  0.87591  0.12280  0.37754  1.0000
  H   H5115     1.0  0.86894  0.11862  0.35206  1.0000
  H   H5116     1.0  0.87278  0.09548  0.35883  1.0000
  H   H5117     1.0  0.85169  0.11522  0.33545  1.0000
  H   H5118     1.0  0.85777  0.14609  0.36941  1.0000
  H   H5119     1.0  0.84605  0.14405  0.35411  1.0000
  H   H5120     1.0  0.89380  0.09450  0.37281  1.0000
  H   H5121     1.0  0.88194  0.08246  0.39283  1.0000
  H   H5122     1.0  0.84555  0.07961  0.36029  1.0000
  H   H5123     1.0  0.83939  0.08931  0.33909  1.0000
  H   H5124     1.0  0.96886  0.19514  0.23960  1.0000
  H   H5125     1.0  0.83052  0.16119  0.38678  1.0000
  H   H5126     1.0  0.83409  0.17237  0.36376  1.0000
  H   H5127     1.0  0.81740  0.15899  0.37255  1.0000
  H   H5128     1.0  0.90386  0.10961  0.39060  1.0000
  H   H5129     1.0  0.89158  0.09771  0.41092  1.0000
  H   H5130     1.0  0.91014  0.08577  0.39731  1.0000
  C   C2925     1.0  0.93789  0.11621  0.33107  1.0000
  C   C2926     1.0  0.92410  0.11814  0.34828  1.0000
  H   H5131     1.0  0.95608  0.14589  0.31441  1.0000
  H   H5132     1.0  0.94948  0.12111  0.33141  1.0000
  H   H5133     1.0  0.92995  0.11017  0.35987  1.0000
  H   H5134     1.0  0.92002  0.13227  0.34943  1.0000
  H   H5135     1.0  0.91219  0.11328  0.34862  1.0000
  C   C2927     1.0  0.86599  0.44690  0.09391  1.0000
  N   N161      1.0  0.90343  0.14244  0.42670  1.0000
  C   C2928     1.0  0.88823  0.15133  0.41720  1.0000
  C   C2929     1.0  0.91748  0.15351  0.42002  1.0000
  C   C2930     1.0  0.91175  0.12464  0.42155  1.0000
  C   C2931     1.0  0.89746  0.13933  0.44675  1.0000
  C   C2932     1.0  0.88129  0.15307  0.45447  1.0000
  C   C2933     1.0  0.87467  0.13975  0.41934  1.0000
  C   C2934     1.0  0.92893  0.11400  0.42829  1.0000
  C   C2935     1.0  0.91181  0.17254  0.42369  1.0000
  C   C2936     1.0  0.95323  0.47412  0.03210  1.0000
  C   C2937     1.0  0.85791  0.15080  0.41281  1.0000
  C   C2938     1.0  0.93297  0.09459  0.42666  1.0000
  H   H5136     1.0  0.89356  0.15542  0.40267  1.0000
  H   H5137     1.0  0.88069  0.16401  0.42120  1.0000
  H   H5138     1.0  0.92924  0.14696  0.42620  1.0000
  H   H5139     1.0  0.92261  0.15458  0.40539  1.0000
  H   H5140     1.0  0.91504  0.12635  0.40678  1.0000
  H   H5141     1.0  0.90208  0.11572  0.42680  1.0000
  H   H5142     1.0  0.89364  0.12615  0.45234  1.0000
  H   H5143     1.0  0.90881  0.13848  0.45279  1.0000
  H   H5144     1.0  0.86882  0.15155  0.45197  1.0000
  H   H5145     1.0  0.88254  0.16700  0.44848  1.0000
  H   H5146     1.0  0.88075  0.12954  0.41119  1.0000
  H   H5147     1.0  0.87072  0.13290  0.43342  1.0000
  H   H5148     1.0  0.92764  0.11415  0.44240  1.0000
  H   H5149     1.0  0.94054  0.11980  0.42021  1.0000
  H   H5150     1.0  0.89944  0.18018  0.41910  1.0000
  H   H5151     1.0  0.90988  0.17181  0.43813  1.0000
  C   C2939     1.0  0.81410  0.09510  0.14699  1.0000
  H   H5152     1.0  0.95209  0.01968  0.48366  1.0000
  C   C2940     1.0  0.88365  0.31234  0.02489  1.0000
  H   H5153     1.0  0.87762  0.13646  0.48125  1.0000
  H   H5154     1.0  0.84937  0.14190  0.41285  1.0000
  H   H5155     1.0  0.85019  0.15984  0.42186  1.0000
  H   H5156     1.0  0.86139  0.15869  0.39905  1.0000
  H   H5157     1.0  0.94554  0.08727  0.43110  1.0000
  H   H5158     1.0  0.92206  0.08794  0.43509  1.0000
  H   H5159     1.0  0.93447  0.09384  0.41265  1.0000
  C   C2941     1.0  0.88438  0.00242  0.45260  1.0000
  C   C2942     1.0  0.97895  0.06754  0.40455  1.0000
  C   C2943     1.0  0.84095  0.38511  0.03243  1.0000
  C   C2944     1.0  0.84619  0.20189  0.11227  1.0000
  C   C2945     1.0  0.92451  0.48153  0.05240  1.0000
  N   N162      1.0  0.90717  0.00769  0.46763  1.0000
  C   C2946     1.0  0.93736  0.03876  0.43354  1.0000
  C   C2947     1.0  0.85946  0.21197  0.11426  1.0000
  H   H5160     1.0  0.92151  0.01228  0.48493  1.0000
  C   C2948     1.0  0.96915  0.26803  0.09857  1.0000
  H   H5161     1.0  0.94867  0.46094  0.99545  1.0000
  C   C2949     1.0  0.90317  0.30924  0.02592  1.0000
  C   C2950     1.0  0.87356  0.21488  0.09704  1.0000
  H   H5162     1.0  0.79941  0.14209  0.18164  1.0000
  C   C2951     1.0  0.82873  0.09251  0.39192  1.0000
  H   H5163     1.0  0.97260  0.49546  0.07582  1.0000
  C   C2952     1.0  0.81879  0.25510  0.39574  1.0000
  H   H5164     1.0  0.84112  0.20926  0.10006  1.0000
  H   H5165     1.0  0.81222  0.22958  0.40839  1.0000
  H   H5166     1.0  0.80457  0.16527  0.31454  1.0000
  H   H5167     1.0  0.84670  0.19268  0.14762  1.0000
  H   H5168     1.0  0.83253  0.16350  0.12599  1.0000
  H   H5169     1.0  0.92784  0.05188  0.43218  1.0000
  H   H5170     1.0  0.97771  0.47142  0.08022  1.0000
  S   S669      1.0  0.86993  0.05384  0.47858  1.0000
  H   H5171     1.0  0.86652  0.20425  0.12508  1.0000
  H   H5172     1.0  0.85265  0.22528  0.11717  1.0000
  H   H5173     1.0  0.92822  0.18497  0.39948  1.0000
  C   C2953     1.0  0.98802  0.12452  0.33312  1.0000
  H   H5174     1.0  0.81462  0.04727  0.47235  1.0000
  H   H5175     1.0  0.80678  0.10836  0.46062  1.0000
  H   H5176     1.0  0.86201  0.00212  0.44222  1.0000
  H   H5177     1.0  0.89071  0.15296  0.47769  1.0000
  H   H5178     1.0  0.97124  0.02225  0.48985  1.0000
  H   H5179     1.0  0.83694  0.35383  0.26745  1.0000
  C   C2954     1.0  0.80100  0.21987  0.14077  1.0000
  H   H5180     1.0  0.84466  0.46878  0.05858  1.0000
  H   H5181     1.0  0.83815  0.19914  0.32866  1.0000
  H   H5182     1.0  0.88306  0.22191  0.09870  1.0000
  H   H5183     1.0  0.88120  0.20193  0.09365  1.0000
  H   H5184     1.0  0.86718  0.22321  0.08589  1.0000
  C   C2955     1.0  0.97956  0.35223  0.07263  1.0000
  H   H5185     1.0  0.89392  0.42629  0.10931  1.0000
  H   H5186     1.0  0.91904  0.11949  0.31530  1.0000
  N   N163      1.0  0.86578  0.43097  0.10928  1.0000
  H   H5187     1.0  0.88057  0.41878  0.13030  1.0000
  C   C2956     1.0  0.83819  0.18646  0.14319  1.0000
  C   C2957     1.0  0.92197  0.08523  0.47485  1.0000
  C   C2958     1.0  0.85112  0.37269  0.24902  1.0000
  H   H5188     1.0  0.99158  0.37676  0.02166  1.0000
  C   C2959     1.0  0.88066  0.42979  0.11824  1.0000
  H   H5189     1.0  0.92295  0.13987  0.31629  1.0000
  S   S670      1.0  0.91400  0.06807  0.47187  1.0000
  C   C2960     1.0  0.96904  0.36945  0.06988  1.0000
  H   H5190     1.0  0.83847  0.23369  0.29975  1.0000
  H   H5191     1.0  0.84034  0.39006  0.04435  1.0000
  H   H5192     1.0  0.88211  0.41425  0.09103  1.0000
  H   H5193     1.0  0.84308  0.23759  0.40322  1.0000
  H   H5194     1.0  0.88477  0.45706  0.11252  1.0000
  S   S671      1.0  0.80545  0.26125  0.09868  1.0000
  H   H5195     1.0  0.86337  0.45936  0.09876  1.0000
  S   S672      1.0  0.86960  0.09464  0.45594  1.0000
  H   H5196     1.0  0.86297  0.36241  0.24483  1.0000
  H   H5197     1.0  0.84943  0.38391  0.23742  1.0000
  C   C2961     1.0  0.97955  0.48366  0.06990  1.0000
  H   H5198     1.0  0.80827  0.22614  0.31193  1.0000
  H   H5199     1.0  0.81428  0.17985  0.34220  1.0000
  H   H5200     1.0  0.81814  0.33648  0.27618  1.0000
  C   C2962     1.0  0.96253  0.22826  0.28721  1.0000
  H   H5201     1.0  0.88741  0.39410  0.11791  1.0000
  S   S673      1.0  0.83251  0.26057  0.13242  1.0000
  H   H5202     1.0  0.90700  0.43729  0.12990  1.0000
  H   H5203     1.0  0.97459  0.13495  0.29946  1.0000
  C   C2963     1.0  0.97135  0.04193  0.30223  1.0000
  H   H5204     1.0  0.97578  0.12328  0.34372  1.0000
  S   S674      1.0  0.80823  0.09797  0.28619  1.0000
  H   H5205     1.0  0.98826  0.23089  0.24450  1.0000
  C   C2964     1.0  0.95266  0.48209  0.05964  1.0000
  C   C2965     1.0  0.83334  0.20847  0.31694  1.0000
  H   H5206     1.0  0.94096  0.48732  0.00878  1.0000
  N   N164      1.0  0.80022  0.37301  0.26718  1.0000
  H   H5207     1.0  0.97675  0.12158  0.27309  1.0000
  H   H5208     1.0  0.81206  0.07322  0.39835  1.0000
  N   N165      1.0  0.83072  0.19914  0.12785  1.0000
  H   H5209     1.0  0.80499  0.09772  0.43221  1.0000
  H   H5210     1.0  0.83629  0.23242  0.32315  1.0000
  C   C2966     1.0  0.89448  0.47821  0.01775  1.0000
  H   H5211     1.0  0.91366  0.01889  0.43918  1.0000
  H   H5212     1.0  0.93135  0.46916  0.02319  1.0000
  C   C2967     1.0  0.81776  0.37891  0.26100  1.0000
  H   H5213     1.0  0.82927  0.33797  0.03946  1.0000
  H   H5214     1.0  0.88895  0.48461  0.08924  1.0000
  C   C2968     1.0  0.89305  0.49498  0.02100  1.0000
  H   H5215     1.0  0.86781  0.46553  0.05901  1.0000
  C   C2969     1.0  0.85378  0.33286  0.00500  1.0000
  H   H5216     1.0  0.80088  0.23591  0.15901  1.0000
  C   C2970     1.0  0.81625  0.14762  0.33569  1.0000
  H   H5217     1.0  0.82274  0.20878  0.28478  1.0000
  H   H5218     1.0  0.81090  0.44402  0.13226  1.0000
  H   H5219     1.0  0.93907  0.17616  0.41827  1.0000
  H   H5220     1.0  0.96611  0.27865  0.08682  1.0000
  H   H5221     1.0  0.82041  0.38383  0.27157  1.0000
  H   H5222     1.0  0.85623  0.22052  0.31076  1.0000
  H   H5223     1.0  0.97272  0.03589  0.31616  1.0000
  N   N166      1.0  0.97318  0.23688  0.26988  1.0000
  H   H5224     1.0  0.98965  0.11548  0.32415  1.0000
  H   H5225     1.0  0.80051  0.20973  0.26734  1.0000
  H   H5226     1.0  0.98627  0.33253  0.19265  1.0000
  C   C2971     1.0  0.96084  0.25250  0.26082  1.0000
  C   C2972     1.0  0.95201  0.26781  0.27099  1.0000
  C   C2973     1.0  0.91019  0.09923  0.48213  1.0000
  C   C2974     1.0  0.96854  0.21497  0.25363  1.0000
  H   H5227     1.0  0.82810  0.22015  0.14146  1.0000
  C   C2975     1.0  0.82446  0.18025  0.16007  1.0000
  C   C2976     1.0  0.94077  0.28334  0.26008  1.0000
  H   H5228     1.0  0.97771  0.39488  0.00120  1.0000
  H   H5229     1.0  0.81990  0.11642  0.17508  1.0000
  Fe  Fe340     1.0  0.82738  0.27067  0.10469  1.0000
  H   H5230     1.0  0.98383  0.29616  0.11561  1.0000
  H   H5231     1.0  0.81840  0.42410  0.14810  1.0000
  H   H5232     1.0  0.82361  0.16172  0.18570  1.0000
  H   H5233     1.0  0.83742  0.08991  0.18351  1.0000
  C   C2977     1.0  0.80591  0.11631  0.44705  1.0000
  H   H5234     1.0  0.96773  0.25814  0.24715  1.0000
  H   H5235     1.0  0.94970  0.24804  0.25875  1.0000
  H   H5236     1.0  0.80573  0.11143  0.19605  1.0000
  H   H5237     1.0  0.94296  0.26311  0.28367  1.0000
  C   C2978     1.0  0.85406  0.46697  0.06728  1.0000
  C   C2979     1.0  0.81668  0.09862  0.12675  1.0000
  H   H5238     1.0  0.95943  0.22504  0.24576  1.0000
  C   C2980     1.0  0.87905  0.15031  0.47456  1.0000
  C   C2981     1.0  0.90341  0.47434  0.00117  1.0000
  H   H5239     1.0  0.98097  0.36077  0.12410  1.0000
  H   H5240     1.0  0.99171  0.27663  0.06691  1.0000
  H   H5241     1.0  0.81718  0.39059  0.24958  1.0000
  H   H5242     1.0  0.95056  0.04112  0.43321  1.0000
  H   H5243     1.0  0.94911  0.28872  0.24717  1.0000
  H   H5244     1.0  0.92977  0.27896  0.25758  1.0000
  H   H5245     1.0  0.93478  0.29420  0.26751  1.0000
  H   H5246     1.0  0.88348  0.30790  0.01298  1.0000
  H   H5247     1.0  0.82746  0.28941  0.05618  1.0000
  H   H5248     1.0  0.93713  0.26262  0.09529  1.0000
  H   H5249     1.0  0.84540  0.25977  0.39131  1.0000
  H   H5250     1.0  0.83962  0.33714  0.00354  1.0000
  C   C2982     1.0  0.95592  0.46139  0.00534  1.0000
  N   N167      1.0  0.97951  0.37028  0.17432  1.0000
  C   C2983     1.0  0.80236  0.11163  0.15411  1.0000
  C   C2984     1.0  0.98223  0.38871  0.17277  1.0000
  C   C2985     1.0  0.96361  0.36625  0.18881  1.0000
  C   C2986     1.0  0.97637  0.36928  0.15686  1.0000
  C   C2987     1.0  0.99118  0.21507  0.13508  1.0000
  C   C2988     1.0  0.81284  0.18110  0.32840  1.0000
  C   C2989     1.0  0.94555  0.37906  0.18640  1.0000
  H   H5251     1.0  0.91058  0.31724  0.01401  1.0000
  H   H5252     1.0  0.98657  0.20706  0.22981  1.0000
  H   H5253     1.0  0.80022  0.17334  0.44166  1.0000
  H   H5254     1.0  0.90262  0.03478  0.45230  1.0000
  C   C2990     1.0  0.93105  0.37636  0.20326  1.0000
  H   H5255     1.0  0.85722  0.31824  0.00605  1.0000
  H   H5256     1.0  0.90064  0.02723  0.48400  1.0000
  C   C2991     1.0  0.80054  0.07326  0.46057  1.0000
  H   H5257     1.0  0.97255  0.39918  0.16573  1.0000
  H   H5258     1.0  0.96594  0.36574  0.20208  1.0000
  H   H5259     1.0  0.96161  0.35277  0.18962  1.0000
  H   H5260     1.0  0.97117  0.35723  0.15832  1.0000
  H   H5261     1.0  0.96564  0.38070  0.15266  1.0000
  C   C2992     1.0  0.99277  0.36936  0.14109  1.0000
  C   C2993     1.0  0.83955  0.31074  0.03795  1.0000
  C   C2994     1.0  0.98763  0.41085  0.18736  1.0000
  H   H5262     1.0  0.80804  0.08327  0.15264  1.0000
  H   H5263     1.0  0.94112  0.37641  0.17551  1.0000
  H   H5264     1.0  0.94652  0.39320  0.18302  1.0000
  C   C2995     1.0  0.99836  0.25471  0.25805  1.0000
  C   C2996     1.0  0.80161  0.16302  0.45349  1.0000
  H   H5265     1.0  0.96209  0.27309  0.27402  1.0000
  S   S675      1.0  0.81324  0.19671  0.06221  1.0000
  S   S676      1.0  0.80489  0.11890  0.23547  1.0000
  H   H5266     1.0  0.83612  0.36219  0.01579  1.0000
  C   C2997     1.0  0.97860  0.20095  0.24263  1.0000
  H   H5267     1.0  0.83545  0.06384  0.39270  1.0000
  S   S677      1.0  0.80289  0.20525  0.37312  1.0000
  H   H5268     1.0  0.95674  0.21254  0.32378  1.0000
  H   H5269     1.0  0.99274  0.33493  0.16888  1.0000
  H   H5270     1.0  0.92957  0.36231  0.20736  1.0000
  H   H5271     1.0  0.93429  0.38005  0.21427  1.0000
  H   H5272     1.0  0.91808  0.38499  0.20071  1.0000
  N   N168      1.0  0.87059  0.28891  0.19295  1.0000
  C   C2998     1.0  0.86008  0.28175  0.18446  1.0000
  C   C2999     1.0  0.85824  0.30323  0.20228  1.0000
  C   C3000     1.0  0.88388  0.29777  0.17820  1.0000
  C   C3001     1.0  0.88071  0.27451  0.20553  1.0000
  C   C3002     1.0  0.87201  0.25850  0.21620  1.0000
  C   C3003     1.0  0.87130  0.26904  0.17192  1.0000
  C   C3004     1.0  0.89438  0.30805  0.18419  1.0000
  C   C3005     1.0  0.84160  0.29845  0.21627  1.0000
  C   C3006     1.0  0.82960  0.31503  0.22267  1.0000
  C   C3007     1.0  0.88257  0.24656  0.23005  1.0000
  C   C3008     1.0  0.85983  0.25789  0.16917  1.0000
  C   C3009     1.0  0.90885  0.31477  0.16908  1.0000
  H   H5273     1.0  0.85180  0.29292  0.17644  1.0000
  H   H5274     1.0  0.85040  0.27468  0.19469  1.0000
  H   H5275     1.0  0.86555  0.30779  0.20962  1.0000
  H   H5276     1.0  0.85355  0.31515  0.19225  1.0000
  H   H5277     1.0  0.87703  0.30734  0.16781  1.0000
  H   H5278     1.0  0.89399  0.28775  0.17127  1.0000
  H   H5279     1.0  0.89397  0.26846  0.19812  1.0000
  H   H5280     1.0  0.88379  0.28039  0.21521  1.0000
  H   H5281     1.0  0.87191  0.25012  0.20721  1.0000
  H   H5282     1.0  0.85809  0.26273  0.22314  1.0000
  H   H5283     1.0  0.87671  0.27690  0.15870  1.0000
  H   H5284     1.0  0.88277  0.25987  0.17723  1.0000
  H   H5285     1.0  0.90085  0.29940  0.19508  1.0000
  H   H5286     1.0  0.88540  0.32000  0.18872  1.0000
  H   H5287     1.0  0.83337  0.29291  0.21088  1.0000
  H   H5288     1.0  0.84572  0.28889  0.22811  1.0000
  H   H5289     1.0  0.97769  0.16479  0.30018  1.0000
  H   H5290     1.0  0.81799  0.31130  0.23302  1.0000
  H   H5291     1.0  0.98181  0.26504  0.12051  1.0000
  H   H5292     1.0  0.87641  0.23498  0.23729  1.0000
  H   H5293     1.0  0.89654  0.24142  0.22350  1.0000
  H   H5294     1.0  0.88272  0.25402  0.23988  1.0000
  H   H5295     1.0  0.85413  0.24973  0.18204  1.0000
  H   H5296     1.0  0.84885  0.26662  0.16276  1.0000
  H   H5297     1.0  0.86811  0.24867  0.16051  1.0000
  H   H5298     1.0  0.91871  0.30345  0.16417  1.0000
  H   H5299     1.0  0.90273  0.32404  0.15818  1.0000
  H   H5300     1.0  0.91596  0.32208  0.17392  1.0000
  N   N169      1.0  0.92854  0.34128  0.11309  1.0000
  C   C3010     1.0  0.93197  0.35977  0.10542  1.0000
  C   C3011     1.0  0.93874  0.32972  0.09996  1.0000
  C   C3012     1.0  0.90872  0.34228  0.11660  1.0000
  C   C3013     1.0  0.93461  0.33338  0.13042  1.0000
  C   C3014     1.0  0.95422  0.33318  0.13008  1.0000
  C   C3015     1.0  0.92510  0.37286  0.11820  1.0000
  C   C3016     1.0  0.90296  0.32429  0.12030  1.0000
  C   C3017     1.0  0.93350  0.33557  0.08155  1.0000
  C   C3018     1.0  0.94205  0.32118  0.07068  1.0000
  C   C3019     1.0  0.95810  0.32641  0.14876  1.0000
  C   C3020     1.0  0.92646  0.39180  0.10800  1.0000
  C   C3021     1.0  0.88266  0.32677  0.12579  1.0000
  H   H5301     1.0  0.92585  0.36602  0.09364  1.0000
  H   H5302     1.0  0.94647  0.35923  0.10028  1.0000
  H   H5303     1.0  0.95322  0.32960  0.09711  1.0000
  H   H5304     1.0  0.93762  0.31562  0.10577  1.0000
  H   H5305     1.0  0.90299  0.35123  0.10526  1.0000
  H   H5306     1.0  0.90166  0.34847  0.12821  1.0000
  H   H5307     1.0  0.92592  0.34054  0.14091  1.0000
  H   H5308     1.0  0.93321  0.31928  0.13521  1.0000
  H   H5309     1.0  0.95728  0.34658  0.12495  1.0000
  H   H5310     1.0  0.96360  0.32430  0.12158  1.0000
  H   H5311     1.0  0.91106  0.37292  0.12507  1.0000
  H   H5312     1.0  0.93307  0.36915  0.12858  1.0000
  H   H5313     1.0  0.90878  0.31432  0.13102  1.0000
  H   H5314     1.0  0.90731  0.31863  0.10820  1.0000
  H   H5315     1.0  0.91889  0.33830  0.08268  1.0000
  H   H5316     1.0  0.93818  0.34790  0.07389  1.0000
  H   H5317     1.0  0.95676  0.31774  0.06928  1.0000
  H   H5318     1.0  0.93661  0.30901  0.07718  1.0000
  H   H5319     1.0  0.93906  0.32619  0.05718  1.0000
  H   H5320     1.0  0.94955  0.33539  0.15768  1.0000
  H   H5321     1.0  0.95560  0.31276  0.15447  1.0000
  H   H5322     1.0  0.97229  0.32600  0.14810  1.0000
  H   H5323     1.0  0.92113  0.40117  0.11712  1.0000
  H   H5324     1.0  0.94056  0.39254  0.10169  1.0000
  H   H5325     1.0  0.91845  0.39627  0.09760  1.0000
  H   H5326     1.0  0.87631  0.33582  0.11489  1.0000
  H   H5327     1.0  0.87893  0.31368  0.12866  1.0000
  C   C3022     1.0  0.92995  0.12622  0.31438  1.0000
  C   C3023     1.0  0.80524  0.33994  0.28540  1.0000
  H   H5328     1.0  0.93787  0.15569  0.29175  1.0000
  H   H5329     1.0  0.83882  0.29957  0.06607  1.0000
  C   C3024     1.0  0.97384  0.34772  0.04605  1.0000
  H   H5330     1.0  0.81189  0.07916  0.45969  1.0000
  H   H5331     1.0  0.82879  0.06534  0.20807  1.0000
  H   H5332     1.0  0.99820  0.35788  0.19160  1.0000
  H   H5333     1.0  0.96536  0.23953  0.12161  1.0000
  H   H5334     1.0  0.94265  0.24018  0.10779  1.0000
  C   C3025     1.0  0.80488  0.16543  0.32830  1.0000
  C   C3026     1.0  0.82628  0.17386  0.11577  1.0000
  H   H5335     1.0  0.95949  0.44767  0.01327  1.0000
  H   H5336     1.0  0.80678  0.35224  0.25218  1.0000
  C   C3027     1.0  0.81182  0.16683  0.11229  1.0000
  H   H5337     1.0  0.95662  0.46009  0.03957  1.0000
  C   C3028     1.0  0.84149  0.22483  0.31241  1.0000
  H   H5338     1.0  0.96830  0.46621  0.99808  1.0000
  C   C3029     1.0  0.94927  0.14409  0.29029  1.0000
  C   C3030     1.0  0.96256  0.14587  0.30028  1.0000
  H   H5339     1.0  0.92058  0.15522  0.27451  1.0000
  C   C3031     1.0  0.82468  0.11737  0.43618  1.0000
  H   H5340     1.0  0.85928  0.41401  0.09586  1.0000
  C   C3032     1.0  0.87003  0.41434  0.10206  1.0000
  H   H5341     1.0  0.84976  0.09111  0.40425  1.0000
  C   C3033     1.0  0.81610  0.42938  0.13435  1.0000
  C   C3034     1.0  0.82440  0.23644  0.07786  1.0000
  H   H5342     1.0  0.90695  0.14378  0.29353  1.0000
  H   H5343     1.0  0.95543  0.14639  0.27581  1.0000
  C   C3035     1.0  0.80600  0.42076  0.19208  1.0000
  C   C3036     1.0  0.84820  0.43312  0.12268  1.0000
  C   C3037     1.0  0.87425  0.33214  0.02419  1.0000
  C   C3038     1.0  0.93102  0.02649  0.45116  1.0000
  H   H5344     1.0  0.97552  0.33927  0.03693  1.0000
  C   C3039     1.0  0.98228  0.34145  0.06055  1.0000
  C   C3040     1.0  0.80818  0.24324  0.08845  1.0000
  N   N170      1.0  0.94262  0.12697  0.29628  1.0000
  C   C3041     1.0  0.91613  0.14247  0.28062  1.0000
  C   C3042     1.0  0.94362  0.24867  0.09419  1.0000
  H   H5345     1.0  0.92220  0.19649  0.41744  1.0000
  H   H5346     1.0  0.96532  0.10972  0.30679  1.0000
  H   H5347     1.0  0.83866  0.20189  0.30553  1.0000
  C   C3043     1.0  0.81843  0.15581  0.45775  1.0000
  Fe  Fe341     1.0  0.85008  0.10310  0.47981  1.0000
  H   H5348     1.0  0.81746  0.19156  0.16668  1.0000
  C   C3044     1.0  0.97601  0.23527  0.11031  1.0000
  H   H5349     1.0  0.99273  0.13850  0.40055  1.0000
  H   H5350     1.0  0.95617  0.26847  0.10837  1.0000
  H   H5351     1.0  0.91438  0.13881  0.25509  1.0000
  H   H5352     1.0  0.99042  0.32811  0.06267  1.0000
  H   H5353     1.0  0.81252  0.26951  0.39389  1.0000
  H   H5354     1.0  0.88206  0.37904  0.09722  1.0000
  C   C3045     1.0  0.87369  0.39664  0.11587  1.0000
  H   H5355     1.0  0.85360  0.37763  0.25966  1.0000
  H   H5356     1.0  0.86250  0.08282  0.34042  1.0000
  C   C3046     1.0  0.83368  0.16568  0.17356  1.0000
  H   H5357     1.0  0.97264  0.22336  0.10834  1.0000
  H   H5358     1.0  0.80565  0.07641  0.21052  1.0000
  C   C3047     1.0  0.95770  0.11070  0.29670  1.0000
  C   C3048     1.0  0.93235  0.12670  0.28303  1.0000
  C   C3049     1.0  0.90566  0.14008  0.26831  1.0000
  H   H5359     1.0  0.82337  0.31709  0.18262  1.0000
  H   H5360     1.0  0.88802  0.49413  0.06624  1.0000
  H   H5361     1.0  0.95730  0.17497  0.29243  1.0000
  C   C3050     1.0  0.81529  0.19794  0.28861  1.0000
  C   C3051     1.0  0.80152  0.05652  0.47544  1.0000
  H   H5362     1.0  0.88900  0.43333  0.14902  1.0000
  S   S678      1.0  0.99400  0.10408  0.47617  1.0000
  H   H5363     1.0  0.95215  0.09844  0.30106  1.0000
  H   H5364     1.0  0.92755  0.11400  0.28680  1.0000
  H   H5365     1.0  0.89979  0.12812  0.27417  1.0000
  S   S679      1.0  0.82414  0.29969  0.10510  1.0000
  H   H5366     1.0  0.91886  0.24372  0.09214  1.0000
  C   C3052     1.0  0.83339  0.42486  0.12079  1.0000
  C   C3053     1.0  0.89324  0.44291  0.13658  1.0000
  C   C3054     1.0  0.88038  0.44680  0.12424  1.0000
  H   H5367     1.0  0.82457  0.32505  0.21147  1.0000
  C   C3055     1.0  0.79935  0.36022  0.28517  1.0000
  C   C3056     1.0  0.81948  0.07856  0.20623  1.0000
  S   S680      1.0  0.98640  0.14811  0.46646  1.0000
  C   C3057     1.0  0.99375  0.22788  0.11697  1.0000
  H   H5368     1.0  0.96688  0.39616  0.19804  1.0000
  H   H5369     1.0  0.94102  0.12707  0.26953  1.0000
  C   C3058     1.0  0.89533  0.48327  0.07536  1.0000
  H   H5370     1.0  0.82551  0.08679  0.12180  1.0000
  H   H5371     1.0  0.98254  0.24995  0.28502  1.0000
  C   C3059     1.0  0.87202  0.38084  0.10964  1.0000
  H   H5372     1.0  0.99194  0.03935  0.23252  1.0000
  C   C3060     1.0  0.98873  0.06623  0.41737  1.0000
  C   C3061     1.0  0.98095  0.39381  0.19058  1.0000
  H   H5373     1.0  0.99230  0.21337  0.26293  1.0000
  C   C3062     1.0  0.96932  0.18071  0.38887  1.0000
  C   C3063     1.0  0.97484  0.29278  0.10915  1.0000
  S   S681      1.0  0.98916  0.16928  0.41481  1.0000
  H   H5374     1.0  0.82430  0.18508  0.29267  1.0000
  H   H5375     1.0  0.89457  0.15188  0.26640  1.0000
  H   H5376     1.0  0.84742  0.32794  0.05005  1.0000
  C   C3064     1.0  0.82537  0.07368  0.39978  1.0000
  H   H5377     1.0  0.88957  0.01094  0.43988  1.0000
  H   H5378     1.0  0.83153  0.22194  0.35395  1.0000
  H   H5379     1.0  0.86456  0.39723  0.12898  1.0000
  H   H5380     1.0  0.85030  0.42707  0.13642  1.0000
  H   H5381     1.0  0.87416  0.36858  0.12010  1.0000
  H   H5382     1.0  0.94947  0.07402  0.46453  1.0000
  H   H5383     1.0  0.83848  0.45333  0.09032  1.0000
  H   H5384     1.0  0.84354  0.17056  0.17749  1.0000
  H   H5385     1.0  0.96627  0.19363  0.39218  1.0000
  H   H5386     1.0  0.95290  0.46811  0.06716  1.0000
  H   H5387     1.0  0.98200  0.22223  0.14528  1.0000
  H   H5388     1.0  0.81138  0.13665  0.33388  1.0000
  N   N171      1.0  0.97591  0.25005  0.09366  1.0000
  S   S682      1.0  0.83253  0.08408  0.48335  1.0000
  H   H5389     1.0  0.80541  0.17657  0.10176  1.0000
  Fe  Fe342     1.0  0.80033  0.12236  0.29766  1.0000
  H   H5390     1.0  0.85878  0.36432  0.00820  1.0000
  C   C3065     1.0  0.83456  0.36464  0.25574  1.0000
  C   C3066     1.0  0.98746  0.37165  0.12349  1.0000
  H   H5391     1.0  0.99500  0.30123  0.16565  1.0000
  C   C3067     1.0  0.84850  0.36502  0.03567  1.0000
  H   H5392     1.0  0.85731  0.01878  0.45516  1.0000
  H   H5393     1.0  0.96254  0.25841  0.07148  1.0000
  H   H5394     1.0  0.98755  0.19007  0.25011  1.0000
  H   H5395     1.0  0.98603  0.41449  0.20024  1.0000
  S   S683      1.0  0.82847  0.41553  0.21450  1.0000
  H   H5396     1.0  0.98751  0.04686  0.27604  1.0000
  H   H5397     1.0  0.89602  0.10007  0.48519  1.0000
  H   H5398     1.0  0.84740  0.17444  0.13886  1.0000
  C   C3068     1.0  0.85404  0.47899  0.99395  1.0000
  H   H5399     1.0  0.80587  0.42311  0.13289  1.0000
  C   C3069     1.0  0.81260  0.21352  0.32134  1.0000
  C   C3070     1.0  0.91679  0.11208  0.48589  1.0000
  H   H5400     1.0  0.89334  0.45539  0.14015  1.0000
  H   H5401     1.0  0.92537  0.46714  0.05327  1.0000
  H   H5402     1.0  0.84967  0.39218  0.02090  1.0000
  C   C3071     1.0  0.82135  0.21706  0.13248  1.0000
  C   C3072     1.0  0.82339  0.08829  0.18672  1.0000
  S   S684      1.0  0.98831  0.34412  0.09178  1.0000
  H   H5403     1.0  0.82575  0.06978  0.41409  1.0000
  H   H5404     1.0  0.93854  0.22862  0.08341  1.0000
  H   H5405     1.0  0.84245  0.44748  0.12276  1.0000
  H   H5406     1.0  0.86683  0.45238  0.13136  1.0000
  H   H5407     1.0  0.86202  0.36278  0.03820  1.0000
  H   H5408     1.0  0.96734  0.19009  0.32127  1.0000
  C   C3073     1.0  0.93289  0.24271  0.08452  1.0000
  H   H5409     1.0  0.83742  0.41013  0.12329  1.0000
  H   H5410     1.0  0.82177  0.19512  0.26123  1.0000
  H   H5411     1.0  0.80994  0.38116  0.22921  1.0000
  H   H5412     1.0  0.83342  0.35897  0.24497  1.0000
  H   H5413     1.0  0.81041  0.31459  0.30398  1.0000
  H   H5414     1.0  0.99812  0.00327  0.25892  1.0000
  C   C3074     1.0  0.91290  0.02212  0.45203  1.0000
  H   H5415     1.0  0.95786  0.23733  0.29672  1.0000
  C   C3075     1.0  0.83016  0.30227  0.05644  1.0000
  C   C3076     1.0  0.98967  0.04032  0.28962  1.0000
  C   C3077     1.0  0.97154  0.10925  0.27900  1.0000
  C   C3078     1.0  0.96326  0.24782  0.08377  1.0000
  H   H5416     1.0  0.81970  0.10146  0.40064  1.0000
  H   H5417     1.0  0.83044  0.14645  0.32858  1.0000
  H   H5418     1.0  0.85842  0.38287  0.10728  1.0000
  H   H5419     1.0  0.94795  0.20158  0.31208  1.0000
  H   H5420     1.0  0.80423  0.39004  0.17022  1.0000
  H   H5421     1.0  0.95005  0.22615  0.28520  1.0000
  H   H5422     1.0  0.96619  0.47795  0.02514  1.0000
  H   H5423     1.0  0.93867  0.03271  0.42213  1.0000
  H   H5424     1.0  0.83393  0.25612  0.41435  1.0000
  H   H5425     1.0  0.92967  0.03356  0.46179  1.0000
  H   H5426     1.0  0.83190  0.12194  0.44360  1.0000
  H   H5427     1.0  0.96040  0.20828  0.26590  1.0000
  H   H5428     1.0  0.82670  0.17842  0.32054  1.0000
  H   H5429     1.0  0.85436  0.18890  0.10932  1.0000
  H   H5430     1.0  0.96551  0.10660  0.26925  1.0000
  H   H5431     1.0  0.98574  0.20386  0.13455  1.0000
  H   H5432     1.0  0.99690  0.38939  0.08018  1.0000
  H   H5433     1.0  0.80914  0.21709  0.33460  1.0000
  C   C3079     1.0  0.82213  0.20569  0.37925  1.0000
  H   H5434     1.0  0.83992  0.35876  0.04788  1.0000
  H   H5435     1.0  0.96828  0.23492  0.07931  1.0000
  H   H5436     1.0  0.83705  0.32112  0.22850  1.0000
  H   H5437     1.0  0.96462  0.05619  0.30143  1.0000
  H   H5438     1.0  0.80035  0.05998  0.48833  1.0000
  H   H5439     1.0  0.82485  0.09690  0.37898  1.0000
  H   H5440     1.0  0.81728  0.31118  0.06101  1.0000
  H   H5441     1.0  0.83235  0.10417  0.43355  1.0000
  H   H5442     1.0  0.85088  0.47908  0.07281  1.0000
  H   H5443     1.0  0.97758  0.05566  0.40148  1.0000
  H   H5444     1.0  0.99026  0.01230  0.29150  1.0000
  C   C3080     1.0  0.98149  0.27354  0.10704  1.0000
  H   H5445     1.0  0.82725  0.38828  0.03000  1.0000
  C   C3081     1.0  0.80553  0.13571  0.48367  1.0000
  H   H5446     1.0  0.98950  0.26740  0.25302  1.0000
  H   H5447     1.0  0.80319  0.18573  0.27489  1.0000
  H   H5448     1.0  0.93282  0.25132  0.07103  1.0000
  H   H5449     1.0  0.90769  0.12258  0.49203  1.0000
  S   S685      1.0  0.99300  0.01412  0.34287  1.0000
  H   H5450     1.0  0.92136  0.47396  0.08141  1.0000
  H   H5451     1.0  0.82149  0.08629  0.21492  1.0000
  C   C3082     1.0  0.81101  0.10715  0.18307  1.0000
  H   H5452     1.0  0.86815  0.47464  0.99534  1.0000
  C   C3083     1.0  0.80973  0.19715  0.27203  1.0000
  H   H5453     1.0  0.81461  0.17471  0.15701  1.0000
  C   C3084     1.0  0.96036  0.20324  0.31462  1.0000
  H   H5454     1.0  0.97482  0.30199  0.09595  1.0000
  S   S686      1.0  0.99470  0.41918  0.12936  1.0000
  H   H5455     1.0  0.80627  0.18977  0.13253  1.0000
  C   C3085     1.0  0.98154  0.22399  0.25766  1.0000
  C   C3086     1.0  0.99604  0.35700  0.17875  1.0000
  H   H5456     1.0  0.97645  0.20002  0.28906  1.0000
  H   H5457     1.0  0.82246  0.22793  0.12033  1.0000
  C   C3087     1.0  0.84285  0.32913  0.03772  1.0000
  S   S687      1.0  0.94330  0.12693  0.48733  1.0000
  H   H5458     1.0  0.94563  0.49030  0.06965  1.0000
  C   C3088     1.0  0.97240  0.21032  0.29714  1.0000
  H   H5459     1.0  0.99514  0.27256  0.09870  1.0000
  H   H5460     1.0  0.80663  0.24426  0.42289  1.0000
  S   S688      1.0  0.90562  0.45321  0.99715  1.0000
  H   H5461     1.0  0.98446  0.21191  0.30039  1.0000
  C   C3089     1.0  0.84948  0.35751  0.01933  1.0000
  H   H5462     1.0  0.83638  0.17566  0.10313  1.0000
  H   H5463     1.0  0.82320  0.07942  0.17836  1.0000
  H   H5464     1.0  0.97819  0.38471  0.12034  1.0000
  H   H5465     1.0  0.80366  0.10122  0.12290  1.0000
  C   C3090     1.0  0.80745  0.42059  0.20917  1.0000
  C   C3091     1.0  0.81826  0.19173  0.12195  1.0000
  H   H5466     1.0  0.83522  0.00998  0.48847  1.0000
  H   H5467     1.0  0.82221  0.25130  0.38263  1.0000
  C   C3092     1.0  0.91487  0.48448  0.07138  1.0000
  H   H5468     1.0  0.98897  0.38326  0.19920  1.0000
  S   S689      1.0  0.81984  0.30021  0.15667  1.0000
  C   C3093     1.0  0.80707  0.32903  0.30399  1.0000
  H   H5469     1.0  0.81024  0.12219  0.14871  1.0000
  C   C3094     1.0  0.80607  0.24371  0.40936  1.0000
  H   H5470     1.0  0.97983  0.42202  0.17898  1.0000
  H   H5471     1.0  0.99460  0.09606  0.29104  1.0000
  H   H5472     1.0  0.81305  0.20161  0.11071  1.0000
  H   H5473     1.0  0.96126  0.29461  0.11773  1.0000
  H   H5474     1.0  0.98084  0.47326  0.04742  1.0000
  H   H5475     1.0  0.79992  0.10239  0.36716  1.0000
  H   H5476     1.0  0.80498  0.04574  0.02146  1.0000
  H   H5477     1.0  0.81781  0.15412  0.10774  1.0000
  H   H5478     1.0  0.97639  0.16369  0.27832  1.0000
  N   N172      1.0  0.80268  0.19964  0.32168  1.0000
  H   H5479     1.0  0.98281  0.08108  0.28794  1.0000
  H   H5480     1.0  0.88350  0.99673  0.48017  1.0000
  H   H5481     1.0  0.80676  0.35463  0.22077  1.0000
  N   N173      1.0  0.94272  0.48603  0.04492  1.0000
  H   H5482     1.0  0.99405  0.48357  0.06575  1.0000
  C   C3095     1.0  0.99634  0.01797  0.25564  1.0000
  H   H5483     1.0  0.99389  0.10074  0.36374  1.0000
  C   C3096     1.0  0.98265  0.09831  0.41239  1.0000
  H   H5484     1.0  0.98847  0.26200  0.05491  1.0000
  H   H5485     1.0  0.98365  0.02368  0.26408  1.0000
  H   H5486     1.0  0.98436  0.11028  0.41479  1.0000
  C   C3097     1.0  0.99420  0.24847  0.08143  1.0000
  C   C3098     1.0  0.99608  0.33717  0.18058  1.0000
  H   H5487     1.0  0.99789  0.23098  0.27874  1.0000
  H   H5488     1.0  0.91544  0.48895  0.04319  1.0000
  C   C3099     1.0  0.99071  0.08169  0.42123  1.0000
  C   C3100     1.0  0.99620  0.26307  0.06406  1.0000
  H   H5489     1.0  0.99686  0.09255  0.26911  1.0000
  H   H5490     1.0  0.99839  0.23528  0.07758  1.0000
  Fe  Fe343     1.0  0.99282  0.14563  0.43779  1.0000
  H   H5491     1.0  0.98269  0.02044  0.23473  1.0000
  H   H5492     1.0  0.99794  0.39351  0.05667  1.0000
  H   H5493     1.0  0.98628  0.13849  0.32542  1.0000
  C   C3101     1.0  0.99429  0.02457  0.23633  1.0000
  H   H5494     1.0  0.99487  0.05328  0.42419  1.0000
  C   C3102     1.0  0.79886  0.20168  0.30369  1.0000
  H   H5495     1.0  0.79881  0.13006  0.44812  1.0000
  H   H5496     1.0  0.98649  0.36533  0.96873  1.0000
  H   H5497     1.0  0.87711  0.01157  0.61014  1.0000
  H   H5498     1.0  0.98671  0.12289  0.58287  1.0000
  H   H5499     1.0  0.98085  0.21779  0.57914  1.0000
  H   H5500     1.0  0.84789  0.03003  0.60370  1.0000
  C   C3103     1.0  0.91237  0.07430  0.53838  1.0000
  S   S690      1.0  0.84399  0.04495  0.52583  1.0000
  C   C3104     1.0  0.90195  0.00786  0.51791  1.0000
  C   C3105     1.0  0.94064  0.03825  0.54117  1.0000
  C   C3106     1.0  0.97328  0.11730  0.55714  1.0000
  H   H5501     1.0  0.96682  0.05687  0.53236  1.0000
  C   C3107     1.0  0.84466  0.02501  0.52013  1.0000
  H   H5502     1.0  0.96865  0.10511  0.51300  1.0000
  C   C3108     1.0  0.83974  0.00954  0.50020  1.0000
  H   H5503     1.0  0.95248  0.04082  0.56193  1.0000
  H   H5504     1.0  0.99310  0.13301  0.54900  1.0000
  C   C3109     1.0  0.94551  0.03524  0.50389  1.0000
  H   H5505     1.0  0.85423  0.03582  0.62106  1.0000
  C   C3110     1.0  0.95119  0.40489  0.98234  1.0000
  C   C3111     1.0  0.98991  0.49378  0.86282  1.0000
  C   C3112     1.0  0.91066  0.48744  0.98772  1.0000
  H   H5506     1.0  0.85505  0.00821  0.54273  1.0000
  C   C3113     1.0  0.95316  0.04834  0.50954  1.0000
  H   H5507     1.0  0.89954  0.09822  0.52174  1.0000
  H   H5508     1.0  0.96342  0.12628  0.56538  1.0000
  N   N174      1.0  0.94277  0.05459  0.52640  1.0000
  H   H5509     1.0  0.88664  0.09232  0.54388  1.0000
  H   H5510     1.0  0.95231  0.02699  0.53893  1.0000
  H   H5511     1.0  0.87975  0.33740  0.98793  1.0000
  H   H5512     1.0  0.94713  0.06954  0.54333  1.0000
  H   H5513     1.0  0.94375  0.09185  0.51492  1.0000
  C   C3114     1.0  0.95351  0.06534  0.53055  1.0000
  H   H5514     1.0  0.94404  0.02315  0.51453  1.0000
  C   C3115     1.0  0.99125  0.49081  0.88251  1.0000
  H   H5515     1.0  0.86880  0.31924  0.97405  1.0000
  H   H5516     1.0  0.97494  0.40030  0.96229  1.0000
  H   H5517     1.0  0.98349  0.48339  0.86191  1.0000
  H   H5518     1.0  0.91636  0.00593  0.51760  1.0000
  H   H5519     1.0  0.94385  0.41521  0.97287  1.0000
  H   H5520     1.0  0.97369  0.41705  0.97425  1.0000
  H   H5521     1.0  0.98737  0.23983  0.65539  1.0000
  H   H5522     1.0  0.94396  0.01151  0.57158  1.0000
  H   H5523     1.0  0.92882  0.03339  0.54107  1.0000
  C   C3116     1.0  0.97367  0.48787  0.89527  1.0000
  H   H5524     1.0  0.85986  0.99807  0.59885  1.0000
  H   H5525     1.0  0.92945  0.05196  0.56390  1.0000
  C   C3117     1.0  0.93928  0.03999  0.56043  1.0000
  H   H5526     1.0  0.98751  0.19606  0.59272  1.0000
  H   H5527     1.0  0.91757  0.48450  0.97485  1.0000
  H   H5528     1.0  0.97032  0.12110  0.54363  1.0000
  C   C3118     1.0  0.95664  0.08266  0.51672  1.0000
  C   C3119     1.0  0.85078  0.00858  0.53087  1.0000
  H   H5529     1.0  0.94779  0.39192  0.98366  1.0000
  H   H5530     1.0  0.86112  0.35565  0.98387  1.0000
  H   H5531     1.0  0.99269  0.14996  0.56960  1.0000
  C   C3120     1.0  0.89579  0.08687  0.53248  1.0000
  H   H5532     1.0  0.97484  0.48636  0.90916  1.0000
  C   C3121     1.0  0.96699  0.09255  0.52292  1.0000
  H   H5533     1.0  0.91712  0.05737  0.52031  1.0000
  H   H5534     1.0  0.99688  0.48762  0.81846  1.0000
  H   H5535     1.0  0.93342  0.02521  0.58768  1.0000
  H   H5536     1.0  0.88855  0.07970  0.52762  1.0000
  H   H5537     1.0  0.96717  0.04178  0.51077  1.0000
  H   H5538     1.0  0.97184  0.10332  0.56306  1.0000
  H   H5539     1.0  0.90766  0.06385  0.54968  1.0000
  C   C3122     1.0  0.93395  0.02379  0.57409  1.0000
  H   H5540     1.0  0.84987  0.33739  0.97031  1.0000
  H   H5541     1.0  0.83455  0.03814  0.49640  1.0000
  H   H5542     1.0  0.85076  0.46847  0.98949  1.0000
  H   H5543     1.0  0.91906  0.08219  0.54294  1.0000
  C   C3123     1.0  0.92485  0.06560  0.52310  1.0000
  C   C3124     1.0  0.99224  0.11906  0.55577  1.0000
  H   H5544     1.0  0.96450  0.07979  0.50368  1.0000
  H   H5545     1.0  0.80706  0.12512  0.49529  1.0000
  H   H5546     1.0  0.95960  0.09609  0.53584  1.0000
  H   H5547     1.0  0.89539  0.02214  0.51750  1.0000
  H   H5548     1.0  0.86674  0.00433  0.63268  1.0000
  H   H5549     1.0  0.92657  0.07621  0.51085  1.0000
  S   S691      1.0  0.86611  0.08520  0.49959  1.0000
  C   C3125     1.0  0.83930  0.02547  0.50471  1.0000
  C   C3126     1.0  0.86546  0.34093  0.98724  1.0000
  H   H5550     1.0  0.95410  0.05983  0.49804  1.0000
  C   C3127     1.0  0.97128  0.40367  0.97556  1.0000
  C   C3128     1.0  0.86460  0.00817  0.61896  1.0000
  H   H5551     1.0  0.99450  0.10051  0.58069  1.0000
  H   H5552     1.0  0.89572  0.99986  0.53063  1.0000
  H   H5553     1.0  0.92061  0.02250  0.57349  1.0000
  H   H5554     1.0  0.86011  0.49433  0.96741  1.0000
  H   H5555     1.0  0.83736  0.02289  0.62679  1.0000
  H   H5556     1.0  0.93228  0.04174  0.50056  1.0000
  H   H5557     1.0  0.98520  0.22102  0.60727  1.0000
  C   C3129     1.0  0.99196  0.20853  0.58502  1.0000
  C   C3130     1.0  0.86394  0.33394  0.97182  1.0000
  Fe  Fe344     1.0  0.85061  0.06519  0.50077  1.0000
  H   H5558     1.0  0.97037  0.47560  0.89420  1.0000
  C   C3131     1.0  0.85009  0.02524  0.61752  1.0000
  H   H5559     1.0  0.88476  0.00377  0.50388  1.0000
  H   H5560     1.0  0.87221  0.34008  0.95924  1.0000
  H   H5561     1.0  0.99616  0.22930  0.62610  1.0000
  C   C3132     1.0  0.98180  0.38973  0.98876  1.0000
  C   C3133     1.0  0.89937  0.00192  0.50231  1.0000
  C   C3134     1.0  0.99727  0.21727  0.59706  1.0000
  H   H5562     1.0  0.98044  0.08430  0.52422  1.0000
  H   H5563     1.0  0.99561  0.99614  0.52917  1.0000
  H   H5564     1.0  0.99518  0.21766  0.66784  1.0000
  H   H5565     1.0  0.97664  0.37729  0.99249  1.0000
  C   C3135     1.0  0.99682  0.11420  0.57445  1.0000
  C   C3136     1.0  0.85977  0.54238  0.99804  1.0000
  H   H5566     1.0  0.91743  0.51977  0.05016  1.0000
  H   H5567     1.0  0.91958  0.67991  0.02595  1.0000
  H   H5568     1.0  0.97866  0.65774  0.03095  1.0000
  C   C3137     1.0  0.94831  0.67412  0.01642  1.0000
  S   S692      1.0  0.90007  0.52811  0.01294  1.0000
  H   H5569     1.0  0.88605  0.49792  0.03385  1.0000
  H   H5570     1.0  0.92721  0.69333  0.00451  1.0000
  H   H5571     1.0  0.95410  0.99247  0.38541  1.0000
  H   H5572     1.0  0.97373  0.69008  0.03294  1.0000
  C   C3138     1.0  0.94444  0.91632  0.48250  1.0000
  H   H5573     1.0  0.98315  0.97929  0.36855  1.0000
  C   C3139     1.0  0.90089  0.50784  0.00783  1.0000
  H   H5574     1.0  0.99537  0.53781  0.12128  1.0000
  H   H5575     1.0  0.98464  0.91803  0.45409  1.0000
  C   C3140     1.0  0.93526  0.96529  0.44940  1.0000
  H   H5576     1.0  0.93878  0.99223  0.44131  1.0000
  H   H5577     1.0  0.95982  0.96886  0.39434  1.0000
  C   C3141     1.0  0.98088  0.90919  0.48253  1.0000
  H   H5578     1.0  0.93082  0.98786  0.47300  1.0000
  C   C3142     1.0  0.96350  0.98178  0.39258  1.0000
  H   H5579     1.0  0.94737  0.66367  0.01017  1.0000
  H   H5580     1.0  0.99709  0.68925  0.02289  1.0000
  H   H5581     1.0  0.95440  0.50770  0.02708  1.0000
  H   H5582     1.0  0.96196  0.69600  0.00930  1.0000
  H   H5583     1.0  0.92637  0.54851  0.04210  1.0000
  H   H5584     1.0  0.95738  0.94526  0.48779  1.0000
  C   C3143     1.0  0.98712  0.68117  0.03080  1.0000
  H   H5585     1.0  0.99200  0.63313  0.01561  1.0000
  H   H5586     1.0  0.93005  0.69778  0.02453  1.0000
  H   H5587     1.0  0.85872  0.99548  0.46609  1.0000
  H   H5588     1.0  0.96837  0.64091  0.01802  1.0000
  C   C3144     1.0  0.93021  0.68716  0.01792  1.0000
  C   C3145     1.0  0.92769  0.98525  0.44814  1.0000
  H   H5589     1.0  0.84889  0.56992  0.00090  1.0000
  S   S693      1.0  0.90952  0.60954  0.99684  1.0000
  C   C3146     1.0  0.85035  0.55625  0.00938  1.0000
  H   H5590     1.0  0.84445  0.51372  0.99849  1.0000
  C   C3147     1.0  0.91933  0.98959  0.46690  1.0000
  H   H5591     1.0  0.94132  0.96265  0.43586  1.0000
  C   C3148     1.0  0.93188  0.51973  0.04556  1.0000
  H   H5592     1.0  0.91811  0.98949  0.43929  1.0000
  C   C3149     1.0  0.98734  0.66643  0.02143  1.0000
  C   C3150     1.0  0.96335  0.68362  0.00474  1.0000
  H   H5593     1.0  0.99210  0.95383  0.39447  1.0000
  N   N175      1.0  0.98218  0.67270  0.00354  1.0000
  H   H5594     1.0  0.99131  0.69750  0.99582  1.0000
  H   H5595     1.0  0.91218  0.97892  0.47524  1.0000
  H   H5596     1.0  0.97818  0.61311  0.00739  1.0000
  C   C3151     1.0  0.99197  0.67303  0.04898  1.0000
  H   H5597     1.0  0.95257  0.92380  0.45402  1.0000
  H   H5598     1.0  0.90640  0.64193  0.00664  1.0000
  H   H5599     1.0  0.92449  0.95772  0.45556  1.0000
  C   C3152     1.0  0.98111  0.63914  0.00817  1.0000
  S   S694      1.0  0.92187  0.92100  0.48162  1.0000
  H   H5600     1.0  0.95876  0.96833  0.47926  1.0000
  H   H5601     1.0  0.94764  0.53927  0.02931  1.0000
  H   H5602     1.0  0.98213  0.66520  0.05786  1.0000
  H   H5603     1.0  0.92720  0.54108  0.02254  1.0000
  H   H5604     1.0  0.89041  0.98821  0.45225  1.0000
  H   H5605     1.0  0.83698  0.55387  0.01683  1.0000
  H   H5606     1.0  0.82274  0.93285  0.48623  1.0000
  H   H5607     1.0  0.93783  0.51790  0.05711  1.0000
  C   C3153     1.0  0.98260  0.98146  0.38184  1.0000
  H   H5608     1.0  0.95051  0.66810  0.03008  1.0000
  H   H5609     1.0  0.96196  0.98462  0.40584  1.0000
  C   C3154     1.0  0.95694  0.91903  0.46649  1.0000
  C   C3155     1.0  0.93344  0.53824  0.03413  1.0000
  C   C3156     1.0  0.94112  0.50512  0.03469  1.0000
  H   H5610     1.0  0.94569  0.96039  0.45741  1.0000
  H   H5611     1.0  0.85841  0.55531  0.01911  1.0000
  C   C3157     1.0  0.97506  0.91576  0.46653  1.0000
  H   H5612     1.0  0.93327  0.50771  0.02435  1.0000
  H   H5613     1.0  0.86102  0.52908  0.00714  1.0000
  H   H5614     1.0  0.99428  0.96993  0.40465  1.0000
  H   H5615     1.0  0.98882  0.95739  0.48627  1.0000
  C   C3158     1.0  0.95449  0.95839  0.49135  1.0000
  H   H5616     1.0  0.97361  0.49717  0.04447  1.0000
  H   H5617     1.0  0.99200  0.68381  0.05530  1.0000
  C   C3159     1.0  0.98076  0.62565  0.99793  1.0000
  H   H5618     1.0  0.82742  0.90887  0.49322  1.0000
  H   H5619     1.0  0.91523  0.49755  0.07333  1.0000
  C   C3160     1.0  0.98460  0.65695  0.99535  1.0000
  C   C3161     1.0  0.91719  0.64113  0.99506  1.0000
  C   C3162     1.0  0.99619  0.96678  0.39144  1.0000
  H   H5620     1.0  0.99658  0.94851  0.36734  1.0000
  H   H5621     1.0  0.98528  0.99480  0.38016  1.0000
  H   H5622     1.0  0.92247  0.66653  0.99375  1.0000
  Fe  Fe345     1.0  0.91636  0.72671  0.79868  1.0000
  S   S695      1.0  0.91840  0.69739  0.80833  1.0000
  S   S696      1.0  0.89404  0.74352  0.81475  1.0000
  Fe  Fe346     1.0  0.94831  0.72225  0.76893  1.0000
  S   S697      1.0  0.95330  0.69243  0.77595  1.0000
  S   S698      1.0  0.96475  0.73827  0.74614  1.0000
  Fe  Fe347     1.0  0.92358  0.69644  0.77965  1.0000
  S   S699      1.0  0.91422  0.67638  0.77110  1.0000
  Fe  Fe348     1.0  0.94766  0.69570  0.80408  1.0000
  S   S700      1.0  0.96125  0.67520  0.82454  1.0000
  S   S701      1.0  0.91909  0.72612  0.77012  1.0000
  S   S702      1.0  0.94521  0.72528  0.79689  1.0000
  Fe  Fe349     1.0  0.97525  0.66524  0.94276  1.0000
  H   H5623     1.0  0.87601  0.97262  0.58955  1.0000
  C   C3163     1.0  0.95772  0.62755  0.76439  1.0000
  S   S703      1.0  0.93046  0.56224  0.98474  1.0000
  H   H5624     1.0  0.81862  0.91452  0.55124  1.0000
  H   H5625     1.0  0.98638  0.93589  0.49921  1.0000
  H   H5626     1.0  0.81682  0.55216  0.94188  1.0000
  C   C3164     1.0  0.81441  0.83729  0.79539  1.0000
  H   H5627     1.0  0.86636  0.66117  0.95452  1.0000
  C   C3165     1.0  0.88312  0.72125  0.70156  1.0000
  S   S704      1.0  0.97348  0.65991  0.91737  1.0000
  H   H5628     1.0  0.91591  0.51388  0.98097  1.0000
  Fe  Fe350     1.0  0.97610  0.59048  0.83559  1.0000
  S   S705      1.0  0.98742  0.56131  0.83645  1.0000
  H   H5629     1.0  0.80508  0.87077  0.70912  1.0000
  Fe  Fe351     1.0  0.94510  0.59073  0.81973  1.0000
  S   S706      1.0  0.95352  0.56173  0.81958  1.0000
  S   S707      1.0  0.92206  0.61001  0.80914  1.0000
  Fe  Fe352     1.0  0.95885  0.55878  0.84643  1.0000
  S   S708      1.0  0.95010  0.53705  0.86898  1.0000
  Fe  Fe353     1.0  0.98122  0.56682  0.80955  1.0000
  S   S709      1.0  0.94786  0.58760  0.84771  1.0000
  S   S710      1.0  0.97236  0.59617  0.80760  1.0000
  Fe  Fe354     1.0  0.83329  0.65512  0.75787  1.0000
  S   S711      1.0  0.83745  0.63375  0.78213  1.0000
  S   S712      1.0  0.83897  0.68221  0.75499  1.0000
  Fe  Fe355     1.0  0.81930  0.63213  0.74186  1.0000
  H   H5630     1.0  0.86411  0.94355  0.58486  1.0000
  H   H5631     1.0  0.84503  0.80142  0.82530  1.0000
  C   C3166     1.0  0.96167  0.60287  0.71796  1.0000
  Fe  Fe356     1.0  0.84893  0.61538  0.76316  1.0000
  S   S713      1.0  0.87315  0.59341  0.76785  1.0000
  H   H5632     1.0  0.80422  0.76222  0.84293  1.0000
  S   S714      1.0  0.84677  0.63715  0.73862  1.0000
  S   S715      1.0  0.95666  0.55829  0.93693  1.0000
  H   H5633     1.0  0.81878  0.84103  0.70223  1.0000
  S   S716      1.0  0.82434  0.81420  0.59091  1.0000
  H   H5634     1.0  0.85791  0.96111  0.68046  1.0000
  H   H5635     1.0  0.84055  0.95275  0.58667  1.0000
  S   S717      1.0  0.81314  0.79436  0.56559  1.0000
  Fe  Fe357     1.0  0.99625  0.63697  0.92248  1.0000
  Fe  Fe358     1.0  0.82816  0.78653  0.58743  1.0000
  S   S718      1.0  0.85573  0.76915  0.58531  1.0000
  Fe  Fe359     1.0  0.80744  0.82208  0.57068  1.0000
  S   S719      1.0  0.81209  0.84598  0.54807  1.0000
  H   H5636     1.0  0.81514  0.80167  0.71458  1.0000
  H   H5637     1.0  0.85304  0.63781  0.97921  1.0000
  Fe  Fe360     1.0  0.86689  0.95074  0.51659  1.0000
  S   S720      1.0  0.86472  0.93898  0.54566  1.0000
  Fe  Fe361     1.0  0.79934  0.80925  0.61074  1.0000
  H   H5638     1.0  0.80939  0.74477  0.54661  1.0000
  S   S721      1.0  0.90335  0.91245  0.53433  1.0000
  H   H5639     1.0  0.79993  0.90847  0.77553  1.0000
  Fe  Fe362     1.0  0.87444  0.91256  0.53768  1.0000
  S   S722      1.0  0.86452  0.88883  0.55644  1.0000
  Fe  Fe363     1.0  0.89359  0.93980  0.54023  1.0000
  S   S723      1.0  0.90108  0.94689  0.56217  1.0000
  C   C3167     1.0  0.88358  0.51643  0.95079  1.0000
  H   H5640     1.0  0.81525  0.92837  0.71724  1.0000
  Fe  Fe364     1.0  0.94604  0.75815  0.65611  1.0000
  S   S724      1.0  0.95923  0.78149  0.64407  1.0000
  S   S725      1.0  0.95715  0.73129  0.67171  1.0000
  Fe  Fe365     1.0  0.91098  0.77826  0.64566  1.0000
  S   S726      1.0  0.92055  0.80367  0.63289  1.0000
  S   S727      1.0  0.88268  0.77559  0.65028  1.0000
  Fe  Fe366     1.0  0.94566  0.78574  0.62155  1.0000
  Fe  Fe367     1.0  0.93318  0.79749  0.65640  1.0000
  S   S728      1.0  0.93217  0.81667  0.67283  1.0000
  S   S729      1.0  0.93496  0.76075  0.63235  1.0000
  S   S730      1.0  0.92121  0.77384  0.67025  1.0000
  Fe  Fe368     1.0  0.84872  0.87837  0.67910  1.0000
  S   S731      1.0  0.86108  0.87650  0.65073  1.0000
  S   S732      1.0  0.85370  0.85567  0.70214  1.0000
  Fe  Fe369     1.0  0.83064  0.91672  0.66939  1.0000
  S   S733      1.0  0.84143  0.91824  0.64025  1.0000
  S   S734      1.0  0.81406  0.94136  0.67869  1.0000
  Fe  Fe370     1.0  0.83423  0.89171  0.64570  1.0000
  S   S735      1.0  0.82125  0.88734  0.62601  1.0000
  Fe  Fe371     1.0  0.86728  0.90301  0.64789  1.0000
  S   S736      1.0  0.89368  0.90785  0.63033  1.0000
  S   S737      1.0  0.82125  0.89148  0.67429  1.0000
  S   S738      1.0  0.85715  0.90368  0.67675  1.0000
  H   H5641     1.0  0.88586  0.72394  0.79389  1.0000
  H   H5642     1.0  0.98754  0.71394  0.84378  1.0000
  C   C3168     1.0  0.91154  0.68129  0.94130  1.0000
  C   C3169     1.0  0.86550  0.62780  0.97598  1.0000
  Fe  Fe372     1.0  0.96327  0.96180  0.62311  1.0000
  S   S739      1.0  0.93905  0.95495  0.64425  1.0000
  H   H5643     1.0  0.96997  0.63094  0.99032  1.0000
  Fe  Fe373     1.0  0.89103  0.57867  0.96010  1.0000
  C   C3170     1.0  0.84753  0.53683  0.88312  1.0000
  C   C3171     1.0  0.90575  0.92105  0.63470  1.0000
  C   C3172     1.0  0.92112  0.92465  0.62223  1.0000
  C   C3173     1.0  0.93114  0.93527  0.62492  1.0000
  C   C3174     1.0  0.92627  0.94194  0.64041  1.0000
  C   C3175     1.0  0.91100  0.93804  0.65312  1.0000
  C   C3176     1.0  0.90069  0.92769  0.65024  1.0000
  H   H5644     1.0  0.92531  0.91916  0.61042  1.0000
  H   H5645     1.0  0.94267  0.93819  0.61499  1.0000
  H   H5646     1.0  0.90715  0.94305  0.66521  1.0000
  H   H5647     1.0  0.88904  0.92464  0.66010  1.0000
  C   C3177     1.0  0.91008  0.82618  0.68174  1.0000
  C   C3178     1.0  0.90582  0.83128  0.69809  1.0000
  C   C3179     1.0  0.88824  0.83954  0.70492  1.0000
  C   C3180     1.0  0.87514  0.84336  0.69501  1.0000
  C   C3181     1.0  0.87943  0.83821  0.67875  1.0000
  C   C3182     1.0  0.89672  0.82921  0.67233  1.0000
  H   H5648     1.0  0.91613  0.82887  0.70543  1.0000
  H   H5649     1.0  0.88502  0.84364  0.71745  1.0000
  H   H5650     1.0  0.86939  0.84124  0.67106  1.0000
  H   H5651     1.0  0.89980  0.82515  0.65982  1.0000
  C   C3183     1.0  0.92058  0.95469  0.55887  1.0000
  C   C3184     1.0  0.92644  0.96696  0.54358  1.0000
  C   C3185     1.0  0.94038  0.97498  0.54302  1.0000
  C   C3186     1.0  0.94873  0.97035  0.55751  1.0000
  C   C3187     1.0  0.94313  0.95769  0.57239  1.0000
  C   C3188     1.0  0.92917  0.94993  0.57306  1.0000
  H   H5652     1.0  0.91974  0.97077  0.53261  1.0000
  H   H5653     1.0  0.94441  0.98505  0.53159  1.0000
  H   H5654     1.0  0.94905  0.95429  0.58373  1.0000
  H   H5655     1.0  0.92445  0.94075  0.58498  1.0000
  C   C3189     1.0  0.80124  0.64429  0.84261  1.0000
  H   H5656     1.0  0.88376  0.52669  0.97273  1.0000
  H   H5657     1.0  0.85081  0.55720  0.97444  1.0000
  H   H5658     1.0  0.84571  0.75394  0.78942  1.0000
  H   H5659     1.0  0.97841  0.81886  0.67577  1.0000
  C   C3190     1.0  0.81830  0.91976  0.73002  1.0000
  H   H5660     1.0  0.84595  0.93185  0.70361  1.0000
  H   H5661     1.0  0.81669  0.92926  0.73857  1.0000
  H   H5662     1.0  0.79889  0.73380  0.86292  1.0000
  C   C3191     1.0  0.90267  0.73505  0.72215  1.0000
  H   H5663     1.0  0.87184  0.70175  0.72390  1.0000
  C   C3192     1.0  0.86497  0.70933  0.60062  1.0000
  C   C3193     1.0  0.84622  0.99312  0.51071  1.0000
  C   C3194     1.0  0.90519  0.56914  0.84215  1.0000
  C   C3195     1.0  0.86366  0.77025  0.60338  1.0000
  C   C3196     1.0  0.85162  0.77695  0.61755  1.0000
  C   C3197     1.0  0.85769  0.77847  0.63180  1.0000
  C   C3198     1.0  0.87589  0.77368  0.63187  1.0000
  C   C3199     1.0  0.88809  0.76726  0.61756  1.0000
  C   C3200     1.0  0.88193  0.76523  0.60346  1.0000
  H   H5664     1.0  0.83755  0.78102  0.61762  1.0000
  H   H5665     1.0  0.84827  0.78383  0.64256  1.0000
  H   H5666     1.0  0.90219  0.76367  0.61746  1.0000
  H   H5667     1.0  0.89132  0.76004  0.59253  1.0000
  C   C3201     1.0  0.82491  0.85983  0.55047  1.0000
  C   C3202     1.0  0.82767  0.85926  0.56715  1.0000
  C   C3203     1.0  0.83911  0.86904  0.56879  1.0000
  C   C3204     1.0  0.84798  0.87952  0.55377  1.0000
  C   C3205     1.0  0.84458  0.88095  0.53711  1.0000
  C   C3206     1.0  0.83302  0.87113  0.53547  1.0000
  H   H5668     1.0  0.82118  0.85105  0.57881  1.0000
  H   H5669     1.0  0.84169  0.86789  0.58172  1.0000
  H   H5670     1.0  0.85142  0.88897  0.52541  1.0000
  H   H5671     1.0  0.83087  0.87178  0.52249  1.0000
  H   H5672     1.0  0.81101  0.87687  0.78939  1.0000
  H   H5673     1.0  0.87535  0.51773  0.94116  1.0000
  C   C3207     1.0  0.80840  0.85776  0.64701  1.0000
  C   C3208     1.0  0.81307  0.86797  0.62988  1.0000
  C   C3209     1.0  0.81035  0.86328  0.61534  1.0000
  C   C3210     1.0  0.80524  0.89807  0.72425  1.0000
  H   H5674     1.0  0.82145  0.89178  0.79429  1.0000
  C   C3211     1.0  0.86299  0.96398  0.63496  1.0000
  H   H5675     1.0  0.81326  0.87151  0.60220  1.0000
  C   C3212     1.0  0.84011  0.71268  0.58467  1.0000
  H   H5676     1.0  0.90729  0.87269  0.51846  1.0000
  Fe  Fe374     1.0  0.90199  0.92650  0.50628  1.0000
  C   C3213     1.0  0.91030  0.69479  0.95221  1.0000
  S   S740      1.0  0.82283  0.60871  0.76461  1.0000
  H   H5677     1.0  0.81533  0.74758  0.59080  1.0000
  H   H5678     1.0  0.87655  0.59023  0.82995  1.0000
  C   C3214     1.0  0.90859  0.60449  0.79824  1.0000
  C   C3215     1.0  0.91076  0.58722  0.79592  1.0000
  C   C3216     1.0  0.89960  0.58374  0.78687  1.0000
  C   C3217     1.0  0.88636  0.59753  0.78009  1.0000
  C   C3218     1.0  0.88428  0.61469  0.78253  1.0000
  C   C3219     1.0  0.89540  0.61814  0.79148  1.0000
  H   H5679     1.0  0.92117  0.57666  0.80079  1.0000
  H   H5680     1.0  0.90139  0.57044  0.78486  1.0000
  H   H5681     1.0  0.87454  0.62548  0.77696  1.0000
  H   H5682     1.0  0.89399  0.63159  0.79285  1.0000
  C   C3220     1.0  0.95244  0.54180  0.88825  1.0000
  C   C3221     1.0  0.94178  0.53602  0.90481  1.0000
  C   C3222     1.0  0.94288  0.54109  0.91993  1.0000
  C   C3223     1.0  0.95492  0.55157  0.91848  1.0000
  C   C3224     1.0  0.96606  0.55664  0.90207  1.0000
  C   C3225     1.0  0.96465  0.55201  0.88693  1.0000
  H   H5683     1.0  0.93239  0.52805  0.90585  1.0000
  H   H5684     1.0  0.93458  0.53677  0.93268  1.0000
  H   H5685     1.0  0.97534  0.56471  0.90091  1.0000
  H   H5686     1.0  0.97292  0.55653  0.87423  1.0000
  C   C3226     1.0  0.81771  0.77593  0.67279  1.0000
  H   H5687     1.0  0.90680  0.58310  0.83691  1.0000
  H   H5688     1.0  0.84512  0.73332  0.59541  1.0000
  C   C3227     1.0  0.97981  0.60029  0.87793  1.0000
  H   H5689     1.0  0.88313  0.64320  0.97737  1.0000
  H   H5690     1.0  0.98258  0.97586  0.52061  1.0000
  C   C3228     1.0  0.80135  0.83156  0.72673  1.0000
  H   H5691     1.0  0.95749  0.84747  0.67628  1.0000
  H   H5692     1.0  0.80186  0.84189  0.73338  1.0000
  H   H5693     1.0  0.83078  0.76816  0.66693  1.0000
  H   H5694     1.0  0.81150  0.95513  0.62952  1.0000
  C   C3229     1.0  0.95999  0.73314  0.69214  1.0000
  C   C3230     1.0  0.96230  0.71794  0.70579  1.0000
  C   C3231     1.0  0.96352  0.71945  0.72250  1.0000
  C   C3232     1.0  0.96314  0.73610  0.72537  1.0000
  C   C3233     1.0  0.96129  0.75122  0.71158  1.0000
  C   C3234     1.0  0.95940  0.74980  0.69510  1.0000
  H   H5695     1.0  0.83493  0.53475  0.88138  1.0000
  H   H5696     1.0  0.88568  0.50260  0.95881  1.0000
  H   H5697     1.0  0.96094  0.76412  0.71377  1.0000
  H   H5698     1.0  0.95763  0.76160  0.68465  1.0000
  C   C3235     1.0  0.89290  0.67861  0.76726  1.0000
  C   C3236     1.0  0.87999  0.69450  0.76715  1.0000
  C   C3237     1.0  0.86331  0.69557  0.76356  1.0000
  C   C3238     1.0  0.85961  0.68080  0.75998  1.0000
  C   C3239     1.0  0.87257  0.66502  0.76005  1.0000
  C   C3240     1.0  0.88913  0.66395  0.76367  1.0000
  H   H5699     1.0  0.88287  0.70589  0.76980  1.0000
  H   H5700     1.0  0.85326  0.70779  0.76365  1.0000
  H   H5701     1.0  0.86990  0.65370  0.75708  1.0000
  H   H5702     1.0  0.89908  0.65167  0.76374  1.0000
  C   C3241     1.0  0.97136  0.68073  0.83867  1.0000
  H   H5703     1.0  0.82156  0.60903  0.85293  1.0000
  H   H5704     1.0  0.90432  0.97212  0.58972  1.0000
  H   H5705     1.0  0.98569  0.90016  0.59818  1.0000
  H   H5706     1.0  0.89751  0.70478  0.95229  1.0000
  C   C3242     1.0  0.97466  0.66826  0.85420  1.0000
  H   H5707     1.0  0.97396  0.70673  0.82266  1.0000
  H   H5708     1.0  0.84200  0.92127  0.49579  1.0000
  C   C3243     1.0  0.97003  0.84737  0.66609  1.0000
  H   H5709     1.0  0.97137  0.65533  0.85703  1.0000
  C   C3244     1.0  0.87577  0.73403  0.81793  1.0000
  C   C3245     1.0  0.86176  0.73547  0.83277  1.0000
  C   C3246     1.0  0.84724  0.72770  0.83516  1.0000
  C   C3247     1.0  0.84681  0.71855  0.82268  1.0000
  C   C3248     1.0  0.86067  0.71738  0.80775  1.0000
  C   C3249     1.0  0.87519  0.72499  0.80545  1.0000
  H   H5710     1.0  0.86212  0.74248  0.84241  1.0000
  H   H5711     1.0  0.83621  0.72920  0.84638  1.0000
  H   H5712     1.0  0.86025  0.71037  0.79808  1.0000
  C   C3250     1.0  0.91834  0.98506  0.60001  1.0000
  C   C3251     1.0  0.87081  0.71641  0.72004  1.0000
  C   C3252     1.0  0.85127  0.72515  0.71968  1.0000
  C   C3253     1.0  0.91409  0.74586  0.72553  1.0000
  H   H5713     1.0  0.87907  0.73587  0.69632  1.0000
  H   H5714     1.0  0.90643  0.74316  0.69389  1.0000
  H   H5715     1.0  0.88886  0.74321  0.72295  1.0000
  H   H5716     1.0  0.89197  0.73273  0.66719  1.0000
  H   H5717     1.0  0.87432  0.72057  0.73053  1.0000
  H   H5718     1.0  0.84278  0.72105  0.73296  1.0000
  H   H5719     1.0  0.84931  0.73990  0.71641  1.0000
  H   H5720     1.0  0.84691  0.72082  0.70974  1.0000
  H   H5721     1.0  0.90710  0.75166  0.73735  1.0000
  H   H5722     1.0  0.91709  0.75681  0.71396  1.0000
  N   N176      1.0  0.92138  0.72607  0.86561  1.0000
  C   C3254     1.0  0.93702  0.72894  0.85029  1.0000
  C   C3255     1.0  0.91777  0.70802  0.86722  1.0000
  C   C3256     1.0  0.90529  0.73997  0.86082  1.0000
  C   C3257     1.0  0.92420  0.72783  0.88298  1.0000
  C   C3258     1.0  0.94367  0.72196  0.88596  1.0000
  C   C3259     1.0  0.94023  0.74822  0.84429  1.0000
  C   C3260     1.0  0.88706  0.73821  0.87363  1.0000
  C   C3261     1.0  0.93202  0.69168  0.87340  1.0000
  C   C3262     1.0  0.94414  0.72066  0.90525  1.0000
  C   C3263     1.0  0.95890  0.74887  0.83285  1.0000
  C   C3264     1.0  0.87303  0.75542  0.87045  1.0000
  H   H5723     1.0  0.93531  0.72540  0.83835  1.0000
  H   H5724     1.0  0.94949  0.71983  0.85331  1.0000
  H   H5725     1.0  0.90532  0.70607  0.87714  1.0000
  H   H5726     1.0  0.91568  0.70706  0.85427  1.0000
  H   H5727     1.0  0.90392  0.73998  0.84730  1.0000
  H   H5728     1.0  0.90706  0.75354  0.86005  1.0000
  H   H5729     1.0  0.91958  0.74192  0.88452  1.0000
  H   H5730     1.0  0.91572  0.72027  0.89438  1.0000
  H   H5731     1.0  0.95168  0.73177  0.87740  1.0000
  H   H5732     1.0  0.95063  0.70885  0.88277  1.0000
  H   H5733     1.0  0.93051  0.75672  0.83610  1.0000
  H   H5734     1.0  0.93851  0.75412  0.85587  1.0000
  H   H5735     1.0  0.88811  0.73515  0.88773  1.0000
  H   H5736     1.0  0.88210  0.72750  0.87126  1.0000
  H   H5737     1.0  0.94545  0.69298  0.86561  1.0000
  H   H5738     1.0  0.93171  0.69019  0.88770  1.0000
  H   H5739     1.0  0.93774  0.73362  0.90921  1.0000
  H   H5740     1.0  0.93728  0.71013  0.91427  1.0000
  H   H5741     1.0  0.95824  0.71701  0.90671  1.0000
  H   H5742     1.0  0.96907  0.74238  0.84105  1.0000
  H   H5743     1.0  0.96158  0.74213  0.82163  1.0000
  H   H5744     1.0  0.96006  0.76296  0.82728  1.0000
  H   H5745     1.0  0.85971  0.75325  0.87838  1.0000
  N   N177      1.0  0.80538  0.90751  0.73818  1.0000
  H   H5746     1.0  0.93958  0.85063  0.62800  1.0000
  H   H5747     1.0  0.84641  0.60042  0.82303  1.0000
  C   C3265     1.0  0.98452  0.95001  0.50010  1.0000
  C   C3266     1.0  0.85185  0.99263  0.52600  1.0000
  C   C3267     1.0  0.84305  0.55052  0.94641  1.0000
  H   H5748     1.0  0.81005  0.86158  0.65836  1.0000
  C   C3268     1.0  0.83836  0.91056  0.72585  1.0000
  C   C3269     1.0  0.96524  0.82178  0.59926  1.0000
  C   C3270     1.0  0.82361  0.91433  0.58246  1.0000
  C   C3271     1.0  0.80964  0.72508  0.61164  1.0000
  C   C3272     1.0  0.85519  0.51176  0.98647  1.0000
  C   C3273     1.0  0.84986  0.92430  0.71636  1.0000
  H   H5749     1.0  0.86190  0.57671  0.80726  1.0000
  C   C3274     1.0  0.89764  0.66953  0.95055  1.0000
  S   S741      1.0  0.80931  0.63304  0.71731  1.0000
  H   H5750     1.0  0.86411  0.91742  0.71334  1.0000
  H   H5751     1.0  0.99627  0.51604  0.79675  1.0000
  H   H5752     1.0  0.82621  0.75996  0.76822  1.0000
  H   H5753     1.0  0.99052  0.82725  0.65381  1.0000
  H   H5754     1.0  0.88445  0.87488  0.51768  1.0000
  H   H5755     1.0  0.82107  0.91699  0.59591  1.0000
  H   H5756     1.0  0.97507  0.50973  0.80248  1.0000
  S   S742      1.0  0.80475  0.78059  0.60912  1.0000
  H   H5757     1.0  0.80943  0.95094  0.51031  1.0000
  H   H5758     1.0  0.84091  0.90114  0.71706  1.0000
  H   H5759     1.0  0.84304  0.90308  0.73821  1.0000
  C   C3275     1.0  0.83143  0.76007  0.79358  1.0000
  H   H5760     1.0  0.88087  0.70642  0.90305  1.0000
  H   H5761     1.0  0.84900  0.56116  0.82216  1.0000
  C   C3276     1.0  0.81081  0.69167  0.79833  1.0000
  H   H5762     1.0  0.93950  0.61375  0.96644  1.0000
  H   H5763     1.0  0.92519  0.67274  0.94009  1.0000
  C   C3277     1.0  0.96847  0.90622  0.49865  1.0000
  H   H5764     1.0  0.81124  0.99554  0.53352  1.0000
  H   H5765     1.0  0.86997  0.69245  0.89702  1.0000
  C   C3278     1.0  0.81143  0.73490  0.59175  1.0000
  H   H5766     1.0  0.88510  0.67798  0.95662  1.0000
  C   C3279     1.0  0.87149  0.68593  0.92500  1.0000
  C   C3280     1.0  0.89744  0.86530  0.51815  1.0000
  H   H5767     1.0  0.87315  0.69814  0.59424  1.0000
  N   N178      1.0  0.91845  0.87859  0.58273  1.0000
  C   C3281     1.0  0.91432  0.86424  0.57647  1.0000
  C   C3282     1.0  0.90187  0.89319  0.58512  1.0000
  C   C3283     1.0  0.93251  0.88648  0.56812  1.0000
  C   C3284     1.0  0.92548  0.87169  0.59969  1.0000
  C   C3285     1.0  0.91928  0.85511  0.61276  1.0000
  C   C3286     1.0  0.93079  0.85001  0.57017  1.0000
  C   C3287     1.0  0.93702  0.90318  0.57069  1.0000
  C   C3288     1.0  0.88481  0.88760  0.59762  1.0000
  C   C3289     1.0  0.86903  0.90356  0.59792  1.0000
  C   C3290     1.0  0.92570  0.83262  0.57117  1.0000
  H   H5768     1.0  0.90738  0.87033  0.56515  1.0000
  H   H5769     1.0  0.90470  0.85726  0.58691  1.0000
  H   H5770     1.0  0.90424  0.90362  0.59053  1.0000
  H   H5771     1.0  0.89847  0.90007  0.57198  1.0000
  H   H5772     1.0  0.92852  0.89004  0.55508  1.0000
  H   H5773     1.0  0.94536  0.87649  0.56651  1.0000
  H   H5774     1.0  0.94034  0.86793  0.59664  1.0000
  H   H5775     1.0  0.92220  0.88249  0.60719  1.0000
  H   H5776     1.0  0.92540  0.84304  0.60712  1.0000
  H   H5777     1.0  0.90464  0.85658  0.61576  1.0000
  H   H5778     1.0  0.93720  0.85510  0.55615  1.0000
  H   H5779     1.0  0.94086  0.84703  0.57833  1.0000
  H   H5780     1.0  0.94065  0.90060  0.58374  1.0000
  H   H5781     1.0  0.92544  0.91451  0.57006  1.0000
  H   H5782     1.0  0.88089  0.87746  0.59321  1.0000
  H   H5783     1.0  0.88677  0.88245  0.61143  1.0000
  H   H5784     1.0  0.86666  0.90963  0.58429  1.0000
  H   H5785     1.0  0.85681  0.89914  0.60642  1.0000
  H   H5786     1.0  0.87160  0.91375  0.60343  1.0000
  H   H5787     1.0  0.94167  0.90826  0.66897  1.0000
  H   H5788     1.0  0.87933  0.71467  0.69290  1.0000
  H   H5789     1.0  0.92069  0.82625  0.58522  1.0000
  H   H5790     1.0  0.91536  0.83522  0.56347  1.0000
  H   H5791     1.0  0.90259  0.72298  0.73301  1.0000
  H   H5792     1.0  0.86123  0.55784  0.87850  1.0000
  C   C3291     1.0  0.98152  0.67267  0.86647  1.0000
  C   C3292     1.0  0.87491  0.52974  0.96321  1.0000
  N   N179      1.0  0.90309  0.71599  0.70037  1.0000
  H   H5793     1.0  0.93056  0.67473  0.85689  1.0000
  H   H5794     1.0  0.87757  0.56836  0.82798  1.0000
  H   H5795     1.0  0.80260  0.96244  0.55385  1.0000
  H   H5796     1.0  0.83486  0.56179  0.85481  1.0000
  H   H5797     1.0  0.90972  0.68908  0.92795  1.0000
  H   H5798     1.0  0.81409  0.84034  0.78105  1.0000
  N   N180      1.0  0.83585  0.80687  0.69116  1.0000
  C   C3293     1.0  0.83408  0.79060  0.68611  1.0000
  C   C3294     1.0  0.85081  0.80224  0.70107  1.0000
  C   C3295     1.0  0.83846  0.82192  0.67522  1.0000
  C   C3296     1.0  0.85422  0.81774  0.65963  1.0000
  H   H5799     1.0  0.96147  0.97083  0.50831  1.0000
  C   C3297     1.0  0.86736  0.78766  0.69586  1.0000
  C   C3298     1.0  0.88179  0.78616  0.70576  1.0000
  C   C3299     1.0  0.85355  0.83306  0.64332  1.0000
  H   H5800     1.0  0.83951  0.57435  0.79320  1.0000
  H   H5801     1.0  0.84677  0.78447  0.67796  1.0000
  H   H5802     1.0  0.85563  0.81442  0.70005  1.0000
  H   H5803     1.0  0.82618  0.82702  0.66982  1.0000
  H   H5804     1.0  0.84043  0.83346  0.67917  1.0000
  H   H5805     1.0  0.85403  0.80574  0.65541  1.0000
  H   H5806     1.0  0.86706  0.81580  0.66345  1.0000
  H   H5807     1.0  0.83052  0.94210  0.51625  1.0000
  H   H5808     1.0  0.86371  0.77445  0.69950  1.0000
  H   H5809     1.0  0.87325  0.79046  0.68148  1.0000
  H   H5810     1.0  0.87673  0.78291  0.72039  1.0000
  H   H5811     1.0  0.89324  0.77539  0.70209  1.0000
  H   H5812     1.0  0.88660  0.79878  0.70200  1.0000
  H   H5813     1.0  0.84296  0.83309  0.63669  1.0000
  H   H5814     1.0  0.85083  0.84610  0.64701  1.0000
  H   H5815     1.0  0.86659  0.83141  0.63376  1.0000
  C   C3300     1.0  0.90092  0.98185  0.59828  1.0000
  H   H5816     1.0  0.95506  0.54835  0.76666  1.0000
  N   N181      1.0  0.83967  0.78727  0.79887  1.0000
  H   H5817     1.0  0.89341  0.99441  0.59128  1.0000
  C   C3301     1.0  0.85924  0.78024  0.79205  1.0000
  H   H5818     1.0  0.89327  0.62615  0.96476  1.0000
  C   C3302     1.0  0.83538  0.78088  0.81877  1.0000
  C   C3303     1.0  0.84561  0.78689  0.82928  1.0000
  H   H5819     1.0  0.85472  0.78928  0.54062  1.0000
  H   H5820     1.0  0.83534  0.60906  0.93665  1.0000
  C   C3304     1.0  0.86560  0.78309  0.77155  1.0000
  C   C3305     1.0  0.88561  0.77543  0.76639  1.0000
  H   H5821     1.0  0.92837  0.66063  0.91714  1.0000
  C   C3306     1.0  0.95647  0.90498  0.66583  1.0000
  H   H5822     1.0  0.84759  0.53319  0.89753  1.0000
  H   H5823     1.0  0.84632  0.81269  0.79604  1.0000
  H   H5824     1.0  0.86751  0.78653  0.79671  1.0000
  H   H5825     1.0  0.86313  0.76581  0.79784  1.0000
  H   H5826     1.0  0.87593  0.54342  0.95540  1.0000
  H   H5827     1.0  0.88674  0.80568  0.58572  1.0000
  H   H5828     1.0  0.88714  0.63703  0.90672  1.0000
  H   H5829     1.0  0.83516  0.54514  0.98977  1.0000
  C   C3307     1.0  0.88169  0.83993  0.53506  1.0000
  H   H5830     1.0  0.85984  0.77980  0.82700  1.0000
  H   H5831     1.0  0.97997  0.50656  0.86028  1.0000
  H   H5832     1.0  0.81213  0.76782  0.68576  1.0000
  H   H5833     1.0  0.98116  0.69406  0.96870  1.0000
  H   H5834     1.0  0.90902  0.84136  0.53483  1.0000
  H   H5835     1.0  0.85871  0.77630  0.76590  1.0000
  H   H5836     1.0  0.86311  0.79749  0.76524  1.0000
  H   H5837     1.0  0.89334  0.78187  0.77150  1.0000
  H   H5838     1.0  0.88865  0.76083  0.77188  1.0000
  H   H5839     1.0  0.88998  0.77783  0.75167  1.0000
  H   H5840     1.0  0.86224  0.82611  0.52056  1.0000
  S   S743      1.0  0.87388  0.92425  0.50896  1.0000
  H   H5841     1.0  0.91750  0.86222  0.63761  1.0000
  H   H5842     1.0  0.86572  0.81202  0.61298  1.0000
  C   C3308     1.0  0.91503  0.72360  0.64829  1.0000
  H   H5843     1.0  0.86304  0.80422  0.55854  1.0000
  H   H5844     1.0  0.82967  0.53283  0.96860  1.0000
  C   C3309     1.0  0.84867  0.57544  0.81601  1.0000
  H   H5845     1.0  0.91376  0.56267  0.85203  1.0000
  H   H5846     1.0  0.90983  0.56181  0.83118  1.0000
  C   C3310     1.0  0.99797  0.64710  0.80306  1.0000
  H   H5847     1.0  0.83755  0.56451  0.88344  1.0000
  N   N182      1.0  0.88906  0.64442  0.84426  1.0000
  C   C3311     1.0  0.90912  0.63861  0.84131  1.0000
  C   C3312     1.0  0.88121  0.63456  0.86246  1.0000
  C   C3313     1.0  0.88293  0.64027  0.82985  1.0000
  C   C3314     1.0  0.88292  0.66418  0.84350  1.0000
  C   C3315     1.0  0.89030  0.67162  0.85536  1.0000
  C   C3316     1.0  0.91987  0.64863  0.82415  1.0000
  C   C3317     1.0  0.86241  0.64407  0.83175  1.0000
  C   C3318     1.0  0.88360  0.61415  0.86467  1.0000
  C   C3319     1.0  0.87580  0.60551  0.88373  1.0000
  C   C3320     1.0  0.88161  0.69128  0.85483  1.0000
  C   C3321     1.0  0.93993  0.64199  0.82313  1.0000
  C   C3322     1.0  0.85761  0.63792  0.81750  1.0000
  H   H5848     1.0  0.91344  0.62431  0.84068  1.0000
  H   H5849     1.0  0.91387  0.63960  0.85282  1.0000
  H   H5850     1.0  0.88730  0.63627  0.87270  1.0000
  H   H5851     1.0  0.86674  0.64039  0.86656  1.0000
  H   H5852     1.0  0.88864  0.62617  0.82876  1.0000
  H   H5853     1.0  0.88817  0.64828  0.81663  1.0000
  H   H5854     1.0  0.88615  0.67191  0.82957  1.0000
  H   H5855     1.0  0.86813  0.66777  0.84760  1.0000
  H   H5856     1.0  0.90487  0.67052  0.85068  1.0000
  H   H5857     1.0  0.88770  0.66436  0.86940  1.0000
  H   H5858     1.0  0.91692  0.64684  0.81205  1.0000
  H   H5859     1.0  0.91668  0.66298  0.82384  1.0000
  H   H5860     1.0  0.85665  0.65859  0.83017  1.0000
  H   H5861     1.0  0.85578  0.63714  0.84486  1.0000
  H   H5862     1.0  0.87679  0.61128  0.85576  1.0000
  H   H5863     1.0  0.89788  0.60750  0.86161  1.0000
  H   H5864     1.0  0.87643  0.59122  0.88482  1.0000
  H   H5865     1.0  0.88379  0.60621  0.89279  1.0000
  H   H5866     1.0  0.86167  0.61220  0.88803  1.0000
  H   H5867     1.0  0.88489  0.69927  0.84111  1.0000
  H   H5868     1.0  0.86688  0.69314  0.85933  1.0000
  H   H5869     1.0  0.88659  0.69624  0.86381  1.0000
  H   H5870     1.0  0.94413  0.62776  0.82223  1.0000
  H   H5871     1.0  0.94731  0.64989  0.81112  1.0000
  H   H5872     1.0  0.94364  0.64350  0.83499  1.0000
  H   H5873     1.0  0.86360  0.62359  0.81788  1.0000
  H   H5874     1.0  0.84291  0.63978  0.81990  1.0000
  H   H5875     1.0  0.86233  0.64588  0.80409  1.0000
  C   C3323     1.0  0.95324  0.64356  0.77298  1.0000
  H   H5876     1.0  0.96463  0.64374  0.77831  1.0000
  H   H5877     1.0  0.95059  0.65616  0.76300  1.0000
  H   H5878     1.0  0.94137  0.64289  0.78410  1.0000
  H   H5879     1.0  0.93210  0.66435  0.71447  1.0000
  H   H5880     1.0  0.92312  0.66993  0.73607  1.0000
  H   H5881     1.0  0.84862  0.96461  0.63606  1.0000
  H   H5882     1.0  0.88819  0.78764  0.56831  1.0000
  H   H5883     1.0  0.93858  0.66293  0.87672  1.0000
  C   C3324     1.0  0.85233  0.80222  0.53101  1.0000
  H   H5884     1.0  0.89169  0.78528  0.54607  1.0000
  H   H5885     1.0  0.90057  0.69850  0.72683  1.0000
  H   H5886     1.0  0.90451  0.81122  0.53347  1.0000
  H   H5887     1.0  0.94678  0.63085  0.92839  1.0000
  C   C3325     1.0  0.97161  0.83757  0.59407  1.0000
  C   C3326     1.0  0.91198  0.71335  0.68169  1.0000
  H   H5888     1.0  0.85279  0.83116  0.60068  1.0000
  C   C3327     1.0  0.96534  0.89193  0.63198  1.0000
  C   C3328     1.0  0.89694  0.79009  0.55501  1.0000
  C   C3329     1.0  0.86471  0.81662  0.54844  1.0000
  C   C3330     1.0  0.88133  0.63681  0.96745  1.0000
  H   H5889     1.0  0.92469  0.72724  0.70085  1.0000
  C   C3331     1.0  0.85270  0.96185  0.60290  1.0000
  H   H5890     1.0  0.91463  0.76429  0.56095  1.0000
  C   C3332     1.0  0.89568  0.85034  0.53477  1.0000
  C   C3333     1.0  0.82813  0.78062  0.79103  1.0000
  C   C3334     1.0  0.81939  0.92830  0.55081  1.0000
  C   C3335     1.0  0.86642  0.82276  0.60080  1.0000
  H   H5891     1.0  0.92148  0.70183  0.94634  1.0000
  C   C3336     1.0  0.89765  0.81008  0.54774  1.0000
  H   H5892     1.0  0.84081  0.96092  0.66983  1.0000
  H   H5893     1.0  0.95022  0.63631  0.90453  1.0000
  H   H5894     1.0  0.98975  0.50443  0.93961  1.0000
  H   H5895     1.0  0.92479  0.78021  0.54311  1.0000
  C   C3337     1.0  0.95015  0.91002  0.49865  1.0000
  H   H5896     1.0  0.88537  0.83640  0.52181  1.0000
  H   H5897     1.0  0.97295  0.90123  0.51105  1.0000
  H   H5898     1.0  0.80013  0.81917  0.73705  1.0000
  H   H5899     1.0  0.80949  0.65299  0.84269  1.0000
  S   S744      1.0  0.82883  0.70899  0.82512  1.0000
  C   C3338     1.0  0.80296  0.63829  0.82706  1.0000
  H   H5900     1.0  0.91129  0.74082  0.66600  1.0000
  C   C3339     1.0  0.97302  0.81904  0.56854  1.0000
  H   H5901     1.0  0.82203  0.91095  0.52441  1.0000
  H   H5902     1.0  0.85277  0.60558  0.84897  1.0000
  H   H5903     1.0  0.97324  0.55949  0.76167  1.0000
  H   H5904     1.0  0.83138  0.78009  0.69832  1.0000
  H   H5905     1.0  0.80733  0.81814  0.69674  1.0000
  H   H5906     1.0  0.82888  0.62091  0.87488  1.0000
  H   H5907     1.0  0.83395  0.59612  0.79822  1.0000
  Fe  Fe375     1.0  0.91146  0.58881  0.98177  1.0000
  C   C3340     1.0  0.81083  0.89375  0.75398  1.0000
  H   H5908     1.0  0.85686  0.97999  0.53417  1.0000
  H   H5909     1.0  0.96330  0.91341  0.59772  1.0000
  C   C3341     1.0  0.83079  0.73809  0.56177  1.0000
  C   C3342     1.0  0.90985  0.73049  0.70354  1.0000
  H   H5910     1.0  0.92689  0.73702  0.72818  1.0000
  H   H5911     1.0  0.84583  0.79728  0.71556  1.0000
  H   H5912     1.0  0.96965  0.58975  0.72340  1.0000
  H   H5913     1.0  0.84082  0.73095  0.55188  1.0000
  C   C3343     1.0  0.81656  0.92275  0.51497  1.0000
  H   H5914     1.0  0.83363  0.87864  0.77793  1.0000
  H   H5915     1.0  0.96793  0.82466  0.65709  1.0000
  C   C3344     1.0  0.99139  0.56263  0.95462  1.0000
  C   C3345     1.0  0.87329  0.57717  0.83768  1.0000
  C   C3346     1.0  0.90660  0.72889  0.66621  1.0000
  H   H5916     1.0  0.92982  0.72059  0.64606  1.0000
  C   C3347     1.0  0.92873  0.67450  0.87122  1.0000
  H   H5917     1.0  0.91508  0.67271  0.87833  1.0000
  H   H5918     1.0  0.87540  0.83101  0.60130  1.0000
  C   C3348     1.0  0.88575  0.56866  0.85104  1.0000
  H   H5919     1.0  0.98158  0.55436  0.95672  1.0000
  H   H5920     1.0  0.93751  0.82320  0.56542  1.0000
  H   H5921     1.0  0.80908  0.61197  0.88435  1.0000
  H   H5922     1.0  0.96954  0.62902  0.75343  1.0000
  C   C3349     1.0  0.93580  0.62526  0.97239  1.0000
  H   H5923     1.0  0.99595  0.51974  0.83321  1.0000
  H   H5924     1.0  0.96144  0.61544  0.77451  1.0000
  H   H5925     1.0  0.97953  0.89227  0.63081  1.0000
  H   H5926     1.0  0.82940  0.78671  0.77658  1.0000
  H   H5927     1.0  0.93731  0.69429  0.70122  1.0000
  N   N183      1.0  0.85345  0.57952  0.84545  1.0000
  C   C3350     1.0  0.90809  0.69841  0.71296  1.0000
  H   H5928     1.0  0.90929  0.70111  0.67969  1.0000
  H   H5929     1.0  0.91085  0.73476  0.63745  1.0000
  H   H5930     1.0  0.83656  0.81184  0.77904  1.0000
  H   H5931     1.0  0.95633  0.56074  0.78188  1.0000
  H   H5932     1.0  0.88220  0.57565  0.86209  1.0000
  H   H5933     1.0  0.88516  0.55443  0.85648  1.0000
  H   H5934     1.0  0.92672  0.71122  0.67940  1.0000
  H   H5935     1.0  0.91059  0.71178  0.64767  1.0000
  H   H5936     1.0  0.83825  0.91109  0.57750  1.0000
  H   H5937     1.0  0.93769  0.63979  0.74896  1.0000
  S   S745      1.0  0.97513  0.94619  0.60178  1.0000
  C   C3351     1.0  0.93262  0.67280  0.72321  1.0000
  S   S746      1.0  0.89493  0.95394  0.51176  1.0000
  H   H5938     1.0  0.86414  0.80647  0.58464  1.0000
  H   H5939     1.0  0.99150  0.91385  0.56063  1.0000
  H   H5940     1.0  0.90421  0.68769  0.70929  1.0000
  H   H5941     1.0  0.86298  0.83949  0.56805  1.0000
  C   C3352     1.0  0.87353  0.81452  0.58440  1.0000
  H   H5942     1.0  0.93069  0.70035  0.72245  1.0000
  H   H5943     1.0  0.89716  0.96043  0.62105  1.0000
  C   C3353     1.0  0.82371  0.60845  0.87926  1.0000
  C   C3354     1.0  0.84798  0.59329  0.85673  1.0000
  H   H5944     1.0  0.96265  0.49946  0.89231  1.0000
  S   S747      1.0  0.98782  0.86303  0.57020  1.0000
  C   C3355     1.0  0.91548  0.77853  0.55630  1.0000
  H   H5945     1.0  0.81279  0.69677  0.78382  1.0000
  H   H5946     1.0  0.89124  0.60775  0.92743  1.0000
  C   C3356     1.0  0.92389  0.64842  0.91800  1.0000
  H   H5947     1.0  0.85650  0.55128  0.93794  1.0000
  C   C3357     1.0  0.92801  0.69246  0.71431  1.0000
  H   H5948     1.0  0.95590  0.63837  0.95364  1.0000
  H   H5949     1.0  0.93659  0.62056  0.91729  1.0000
  C   C3358     1.0  0.81863  0.81311  0.70368  1.0000
  C   C3359     1.0  0.94157  0.62658  0.75761  1.0000
  H   H5950     1.0  0.93021  0.62558  0.76934  1.0000
  H   H5951     1.0  0.83396  0.75696  0.52584  1.0000
  H   H5952     1.0  0.91836  0.65027  0.90613  1.0000
  C   C3360     1.0  0.87100  0.96503  0.60310  1.0000
  C   C3361     1.0  0.87553  0.82919  0.56725  1.0000
  H   H5953     1.0  0.85186  0.82628  0.55171  1.0000
  H   H5954     1.0  0.88579  0.83555  0.56831  1.0000
  H   H5955     1.0  0.86855  0.84945  0.53556  1.0000
  H   H5956     1.0  0.89168  0.85681  0.54631  1.0000
  H   H5957     1.0  0.87803  0.96822  0.65243  1.0000
  H   H5958     1.0  0.82634  0.67287  0.81686  1.0000
  H   H5959     1.0  0.82337  0.88419  0.74967  1.0000
  C   C3362     1.0  0.95244  0.90897  0.55595  1.0000
  C   C3363     1.0  0.96418  0.95728  0.50578  1.0000
  H   H5960     1.0  0.86134  0.72783  0.57617  1.0000
  C   C3364     1.0  0.97182  0.89979  0.59828  1.0000
  H   H5961     1.0  0.82321  0.80210  0.66187  1.0000
  H   H5962     1.0  0.98982  0.58947  0.95758  1.0000
  Fe  Fe376     1.0  0.79960  0.66774  0.87660  1.0000
  H   H5963     1.0  0.85934  0.68023  0.92971  1.0000
  H   H5964     1.0  0.82319  0.96126  0.53802  1.0000
  H   H5965     1.0  0.94052  0.90785  0.51103  1.0000
  H   H5966     1.0  0.95381  0.62948  0.72346  1.0000
  H   H5967     1.0  0.91534  0.64054  0.73812  1.0000
  N   N184      1.0  0.95858  0.88011  0.64949  1.0000
  S   S748      1.0  0.80569  0.65186  0.75943  1.0000
  C   C3365     1.0  0.95161  0.59435  0.75991  1.0000
  N   N185      1.0  0.88010  0.82348  0.54975  1.0000
  H   H5968     1.0  0.85371  0.79956  0.51772  1.0000
  H   H5969     1.0  0.92084  0.78212  0.56602  1.0000
  H   H5970     1.0  0.81461  0.77449  0.53009  1.0000
  Fe  Fe377     1.0  0.81131  0.62873  0.78200  1.0000
  C   C3366     1.0  0.92179  0.62629  0.98734  1.0000
  C   C3367     1.0  0.86977  0.69929  0.90747  1.0000
  H   H5971     1.0  0.89391  0.63890  0.72192  1.0000
  H   H5972     1.0  0.86780  0.50646  0.99151  1.0000
  C   C3368     1.0  0.84355  0.53285  0.96073  1.0000
  H   H5973     1.0  0.99869  0.92568  0.57265  1.0000
  H   H5974     1.0  0.85642  0.96636  0.57407  1.0000
  H   H5975     1.0  0.81378  0.78505  0.79706  1.0000
  H   H5976     1.0  0.94884  0.91241  0.54275  1.0000
  H   H5977     1.0  0.96468  0.89822  0.55591  1.0000
  S   S749      1.0  0.91376  0.59275  0.95242  1.0000
  H   H5978     1.0  0.90573  0.98760  0.50331  1.0000
  C   C3369     1.0  0.85867  0.64030  0.91065  1.0000
  C   C3370     1.0  0.80651  0.69936  0.58672  1.0000
  C   C3371     1.0  0.91787  0.62851  0.73272  1.0000
  H   H5979     1.0  0.99851  0.65342  0.98795  1.0000
  H   H5980     1.0  0.92646  0.63064  0.71918  1.0000
  H   H5981     1.0  0.95535  0.92093  0.55814  1.0000
  H   H5982     1.0  0.81585  0.91634  0.95239  1.0000
  H   H5983     1.0  0.82671  0.75391  0.80775  1.0000
  H   H5984     1.0  0.83784  0.74649  0.56533  1.0000
  H   H5985     1.0  0.91123  0.68802  0.96613  1.0000
  C   C3372     1.0  0.82787  0.92143  0.49640  1.0000
  H   H5986     1.0  0.82393  0.79026  0.85237  1.0000
  C   C3373     1.0  0.81650  0.94027  0.51976  1.0000
  H   H5987     1.0  0.82063  0.94203  0.57066  1.0000
  H   H5988     1.0  0.94629  0.66941  0.72579  1.0000
  Fe  Fe378     1.0  0.93076  0.56502  0.95595  1.0000
  C   C3374     1.0  0.81960  0.79362  0.67527  1.0000
  H   H5989     1.0  0.97219  0.59179  0.87618  1.0000
  H   H5990     1.0  0.97152  0.58726  0.94956  1.0000
  S   S750      1.0  0.84687  0.97330  0.50480  1.0000
  H   H5991     1.0  0.81849  0.88930  0.72049  1.0000
  H   H5992     1.0  0.97106  0.61480  0.73344  1.0000
  C   C3375     1.0  0.83510  0.58170  0.80414  1.0000
  N   N186      1.0  0.94452  0.61175  0.74802  1.0000
  C   C3376     1.0  0.95787  0.61553  0.73079  1.0000
  H   H5993     1.0  0.89045  0.62538  0.74403  1.0000
  C   C3377     1.0  0.83584  0.80738  0.79362  1.0000
  H   H5994     1.0  0.85905  0.52789  0.87629  1.0000
  H   H5995     1.0  0.82075  0.58800  0.86803  1.0000
  C   C3378     1.0  0.81747  0.81721  0.80294  1.0000
  C   C3379     1.0  0.92503  0.85155  0.63032  1.0000
  C   C3380     1.0  0.83781  0.78251  0.84926  1.0000
  H   H5996     1.0  0.83780  0.76807  0.85400  1.0000
  C   C3381     1.0  0.86567  0.81322  0.52996  1.0000
  H   H5997     1.0  0.90692  0.81314  0.55415  1.0000
  H   H5998     1.0  0.83852  0.80976  0.53517  1.0000
  H   H5999     1.0  0.91637  0.63855  0.94642  1.0000
  C   C3382     1.0  0.88840  0.67083  0.92253  1.0000
  C   C3383     1.0  0.80903  0.96026  0.54019  1.0000
  H   H6000     1.0  0.82979  0.59948  0.89036  1.0000
  C   C3384     1.0  0.80824  0.92852  0.94486  1.0000
  Fe  Fe379     1.0  0.99487  0.67542  0.90436  1.0000
  C   C3385     1.0  0.92665  0.61163  0.74498  1.0000
  C   C3386     1.0  0.89985  0.62677  0.73089  1.0000
  H   H6001     1.0  0.91710  0.60955  0.75798  1.0000
  H   H6002     1.0  0.94578  0.59479  0.77419  1.0000
  H   H6003     1.0  0.81514  0.93034  0.93061  1.0000
  C   C3387     1.0  0.81512  0.93081  0.57023  1.0000
  C   C3388     1.0  0.84416  0.63215  0.91874  1.0000
  H   H6004     1.0  0.84879  0.95123  0.61444  1.0000
  H   H6005     1.0  0.97317  0.59326  0.90668  1.0000
  H   H6006     1.0  0.89941  0.67694  0.91355  1.0000
  H   H6007     1.0  0.83839  0.76612  0.82241  1.0000
  H   H6008     1.0  0.85444  0.58867  0.86829  1.0000
  H   H6009     1.0  0.80675  0.76067  0.78635  1.0000
  H   H6010     1.0  0.82977  0.82553  0.71888  1.0000
  H   H6011     1.0  0.87371  0.64438  0.94193  1.0000
  C   C3389     1.0  0.94507  0.63920  0.96516  1.0000
  H   H6012     1.0  0.83531  0.54077  0.92723  1.0000
  H   H6013     1.0  0.82991  0.66668  0.79574  1.0000
  C   C3390     1.0  0.87569  0.63126  0.91359  1.0000
  C   C3391     1.0  0.94023  0.65414  0.97284  1.0000
  H   H6014     1.0  0.90138  0.61501  0.72528  1.0000
  C   C3392     1.0  0.90193  0.51948  0.94002  1.0000
  H   H6015     1.0  0.97865  0.88272  0.66151  1.0000
  H   H6016     1.0  0.87922  0.80621  0.52428  1.0000
  C   C3393     1.0  0.82760  0.59931  0.86370  1.0000
  H   H6017     1.0  0.87336  0.54477  0.99173  1.0000
  H   H6018     1.0  0.96629  0.59240  0.75845  1.0000
  C   C3394     1.0  0.86401  0.96959  0.65170  1.0000
  C   C3395     1.0  0.85271  0.72218  0.58876  1.0000
  C   C3396     1.0  0.81304  0.90120  0.76910  1.0000
  H   H6019     1.0  0.94925  0.60103  0.71568  1.0000
  H   H6020     1.0  0.81678  0.81518  0.81738  1.0000
  H   H6021     1.0  0.93157  0.85804  0.66806  1.0000
  H   H6022     1.0  0.80301  0.90786  0.71175  1.0000
  H   H6023     1.0  0.85652  0.98341  0.65187  1.0000
  H   H6024     1.0  0.92739  0.60026  0.73919  1.0000
  H   H6025     1.0  0.86799  0.61822  0.98850  1.0000
  S   S751      1.0  0.96247  0.98856  0.60423  1.0000
  H   H6026     1.0  0.81243  0.64245  0.81514  1.0000
  H   H6027     1.0  0.80982  0.70297  0.80422  1.0000
  C   C3397     1.0  0.98041  0.60111  0.89513  1.0000
  H   H6028     1.0  0.85746  0.55099  0.84904  1.0000
  H   H6029     1.0  0.88584  0.66260  0.91469  1.0000
  C   C3398     1.0  0.98074  0.58062  0.95881  1.0000
  H   H6030     1.0  0.80064  0.88549  0.76036  1.0000
  C   C3399     1.0  0.94031  0.63308  0.91706  1.0000
  H   H6031     1.0  0.85702  0.70397  0.61379  1.0000
  H   H6032     1.0  0.93347  0.57677  0.76338  1.0000
  H   H6033     1.0  0.96024  0.85571  0.64162  1.0000
  C   C3400     1.0  0.85352  0.95577  0.58609  1.0000
  H   H6034     1.0  0.81687  0.93923  0.61556  1.0000
  S   S752      1.0  0.90832  0.55123  0.96124  1.0000
  H   H6035     1.0  0.83793  0.56232  0.95256  1.0000
  H   H6036     1.0  0.82086  0.72607  0.61680  1.0000
  H   H6037     1.0  0.86094  0.94365  0.66892  1.0000
  H   H6038     1.0  0.96517  0.62309  0.69340  1.0000
  H   H6039     1.0  0.95958  0.87690  0.67713  1.0000
  C   C3401     1.0  0.94776  0.57707  0.75774  1.0000
  S   S753      1.0  0.85605  0.66194  0.89731  1.0000
  C   C3402     1.0  0.82757  0.67793  0.80230  1.0000
  C   C3403     1.0  0.93859  0.88315  0.65217  1.0000
  H   H6040     1.0  0.88049  0.95178  0.60454  1.0000
  N   N187      1.0  0.85599  0.52933  0.97317  1.0000
  C   C3404     1.0  0.81835  0.82843  0.71239  1.0000
  C   C3405     1.0  0.82517  0.76431  0.53609  1.0000
  C   C3406     1.0  0.92630  0.65504  0.98779  1.0000
  C   C3407     1.0  0.80151  0.84257  0.64937  1.0000
  H   H6041     1.0  0.98553  0.61193  0.70127  1.0000
  C   C3408     1.0  0.96611  0.81242  0.58648  1.0000
  H   H6042     1.0  0.96132  0.91440  0.65354  1.0000
  H   H6043     1.0  0.81803  0.90269  0.58342  1.0000
  H   H6044     1.0  0.85695  0.70919  0.90934  1.0000
  N   N188      1.0  0.80819  0.94199  0.53875  1.0000
  H   H6045     1.0  0.95059  0.57605  0.74371  1.0000
  S   S754      1.0  0.95113  0.67202  0.96389  1.0000
  H   H6046     1.0  0.90200  0.87070  0.68449  1.0000
  C   C3409     1.0  0.80593  0.94909  0.62181  1.0000
  C   C3410     1.0  0.87807  0.61461  0.92532  1.0000
  C   C3411     1.0  0.84860  0.56191  0.85556  1.0000
  H   H6047     1.0  0.90488  0.63285  0.93337  1.0000
  H   H6048     1.0  0.95976  0.81681  0.61313  1.0000
  N   N189      1.0  0.89373  0.65911  0.93939  1.0000
  C   C3412     1.0  0.90950  0.64416  0.93509  1.0000
  H   H6049     1.0  0.91117  0.51718  0.94900  1.0000
  H   H6050     1.0  0.84210  0.97413  0.60349  1.0000
  H   H6051     1.0  0.93497  0.88016  0.64102  1.0000
  H   H6052     1.0  0.99264  0.57149  0.92668  1.0000
  C   C3413     1.0  0.96382  0.88530  0.66388  1.0000
  H   H6053     1.0  0.90089  0.53327  0.93183  1.0000
  H   H6054     1.0  0.83100  0.63897  0.91642  1.0000
  H   H6055     1.0  0.82920  0.58889  0.83523  1.0000
  H   H6056     1.0  0.80625  0.80010  0.68189  1.0000
  H   H6057     1.0  0.83377  0.92839  0.54534  1.0000
  C   C3414     1.0  0.96259  0.90845  0.68087  1.0000
  H   H6058     1.0  0.86378  0.62031  0.96691  1.0000
  S   S755      1.0  0.95874  0.79241  0.59260  1.0000
  H   H6059     1.0  0.95044  0.88747  0.61443  1.0000
  H   H6060     1.0  0.80823  0.94012  0.95003  1.0000
  H   H6061     1.0  0.95776  0.90592  0.63132  1.0000
  C   C3415     1.0  0.90862  0.87901  0.67228  1.0000
  H   H6062     1.0  0.93239  0.89747  0.65161  1.0000
  H   H6063     1.0  0.90349  0.87833  0.66094  1.0000
  H   H6064     1.0  0.82236  0.91039  0.76412  1.0000
  H   H6065     1.0  0.92211  0.83872  0.63869  1.0000
  H   H6066     1.0  0.95760  0.89989  0.69379  1.0000
  H   H6067     1.0  0.87245  0.75966  0.85615  1.0000
  H   H6068     1.0  0.87407  0.71655  0.60276  1.0000
  C   C3416     1.0  0.84896  0.55629  0.87571  1.0000
  C   C3417     1.0  0.86353  0.60662  0.93379  1.0000
  C   C3418     1.0  0.98444  0.51407  0.80763  1.0000
  H   H6069     1.0  0.89081  0.98164  0.62629  1.0000
  H   H6070     1.0  0.95723  0.92263  0.68183  1.0000
  C   C3419     1.0  0.79981  0.83736  0.63460  1.0000
  C   C3420     1.0  0.97610  0.69721  0.83482  1.0000
  H   H6071     1.0  0.80850  0.77860  0.66368  1.0000
  H   H6072     1.0  0.84686  0.52203  0.95339  1.0000
  C   C3421     1.0  0.97718  0.82841  0.66292  1.0000
  H   H6073     1.0  0.87625  0.76623  0.87451  1.0000
  Fe  Fe380     1.0  0.90640  0.55069  0.98982  1.0000
  H   H6074     1.0  0.90496  0.89296  0.67403  1.0000
  H   H6075     1.0  0.84838  0.93376  0.72486  1.0000
  S   S756      1.0  0.99800  0.55684  0.78532  1.0000
  S   S757      1.0  0.88726  0.57708  0.98921  1.0000
  H   H6076     1.0  0.96503  0.70773  0.73308  1.0000
  H   H6077     1.0  0.83076  0.56469  0.92397  1.0000
  H   H6078     1.0  0.87173  0.69344  0.93469  1.0000
  C   C3422     1.0  0.84662  0.61525  0.93022  1.0000
  C   C3423     1.0  0.81654  0.75151  0.55202  1.0000
  C   C3424     1.0  0.87812  0.65082  0.95023  1.0000
  C   C3425     1.0  0.84391  0.58694  0.83018  1.0000
  C   C3426     1.0  0.80386  0.84798  0.61767  1.0000
  S   S758      1.0  0.96609  0.98037  0.55702  1.0000
  H   H6079     1.0  0.97234  0.87332  0.61373  1.0000
  Fe  Fe381     1.0  0.81977  0.69562  0.85328  1.0000
  C   C3427     1.0  0.85543  0.95802  0.66872  1.0000
  C   C3428     1.0  0.96752  0.86097  0.64844  1.0000
  N   N190      1.0  0.82400  0.72486  0.57810  1.0000
  C   C3429     1.0  0.79990  0.97644  0.52742  1.0000
  C   C3430     1.0  0.84961  0.54405  0.98344  1.0000
  H   H6080     1.0  0.97490  0.94962  0.53591  1.0000
  C   C3431     1.0  0.99004  0.49994  0.82348  1.0000
  C   C3432     1.0  0.82026  0.88614  0.78351  1.0000
  H   H6081     1.0  0.82507  0.84279  0.79711  1.0000
  H   H6082     1.0  0.99424  0.50266  0.88486  1.0000
  H   H6083     1.0  0.90210  0.85984  0.50591  1.0000
  C   C3433     1.0  0.98946  0.61016  0.86301  1.0000
  H   H6084     1.0  0.82176  0.57939  0.81187  1.0000
  S   S759      1.0  0.82837  0.66629  0.86347  1.0000
  H   H6085     1.0  0.97739  0.90588  0.67818  1.0000
  C   C3434     1.0  0.92884  0.87211  0.66930  1.0000
  H   H6086     1.0  0.83931  0.68422  0.79715  1.0000
  C   C3435     1.0  0.97268  0.61013  0.69983  1.0000
  H   H6087     1.0  0.95833  0.94831  0.51796  1.0000
  H   H6088     1.0  0.82341  0.74026  0.78532  1.0000
  H   H6089     1.0  0.82084  0.78476  0.82408  1.0000
  H   H6090     1.0  0.97566  0.60057  0.69104  1.0000
  H   H6091     1.0  0.84583  0.78617  0.85656  1.0000
  S   S760      1.0  0.82426  0.70336  0.87625  1.0000
  H   H6092     1.0  0.90274  0.66032  0.96216  1.0000
  H   H6093     1.0  0.83622  0.70258  0.59671  1.0000
  H   H6094     1.0  0.96298  0.70502  0.70349  1.0000
  H   H6095     1.0  0.84834  0.70471  0.57463  1.0000
  H   H6096     1.0  0.93292  0.87260  0.68130  1.0000
  H   H6097     1.0  0.97211  0.89533  0.58621  1.0000
  N   N191      1.0  0.87085  0.97458  0.61714  1.0000
  H   H6098     1.0  0.97108  0.84472  0.60398  1.0000
  C   C3436     1.0  0.96438  0.88689  0.61483  1.0000
  Fe  Fe382     1.0  0.97553  0.97274  0.58306  1.0000
  H   H6099     1.0  0.80802  0.97757  0.51364  1.0000
  H   H6100     1.0  0.99298  0.97883  0.49786  1.0000
  H   H6101     1.0  0.92614  0.97272  0.60710  1.0000
  H   H6102     1.0  0.99117  0.53718  0.93434  1.0000
  H   H6103     1.0  0.97261  0.57865  0.97259  1.0000
  C   C3437     1.0  0.95879  0.56043  0.76762  1.0000
  S   S761      1.0  0.86634  0.58581  0.94870  1.0000
  H   H6104     1.0  0.98356  0.66312  0.87862  1.0000
  H   H6105     1.0  0.97764  0.52697  0.81156  1.0000
  Fe  Fe383     1.0  0.83029  0.67396  0.88774  1.0000
  H   H6106     1.0  0.80139  0.84396  0.80263  1.0000
  H   H6107     1.0  0.80669  0.75950  0.56118  1.0000
  H   H6108     1.0  0.83318  0.77124  0.54024  1.0000
  H   H6109     1.0  0.86968  0.94960  0.63618  1.0000
  Fe  Fe384     1.0  0.99036  0.98612  0.60759  1.0000
  H   H6110     1.0  0.98308  0.70320  0.78576  1.0000
  H   H6111     1.0  0.97698  0.93375  0.56732  1.0000
  H   H6112     1.0  0.98132  0.86025  0.64010  1.0000
  S   S762      1.0  0.98988  0.96086  0.62867  1.0000
  C   C3438     1.0  0.98366  0.70132  0.84680  1.0000
  C   C3439     1.0  0.99476  0.68915  0.97142  1.0000
  C   C3440     1.0  0.99459  0.68457  0.99163  1.0000
  C   C3441     1.0  0.83071  0.55205  0.93415  1.0000
  H   H6113     1.0  0.80987  0.71077  0.61379  1.0000
  C   C3442     1.0  0.98587  0.68930  0.86288  1.0000
  H   H6114     1.0  0.80279  0.72291  0.56697  1.0000
  C   C3443     1.0  0.97905  0.84387  0.57616  1.0000
  C   C3444     1.0  0.99101  0.92729  0.56242  1.0000
  H   H6115     1.0  0.83730  0.49994  0.97883  1.0000
  C   C3445     1.0  0.98828  0.94191  0.53066  1.0000
  H   H6116     1.0  0.96012  0.68835  0.99134  1.0000
  H   H6117     1.0  0.97328  0.81199  0.55865  1.0000
  H   H6118     1.0  0.97638  0.66055  0.98516  1.0000
  H   H6119     1.0  0.80277  0.92229  0.51494  1.0000
  H   H6120     1.0  0.99628  0.81191  0.53192  1.0000
  S   S763      1.0  0.99066  0.60835  0.84121  1.0000
  H   H6121     1.0  0.82351  0.70798  0.56122  1.0000
  C   C3446     1.0  0.82127  0.75502  0.78266  1.0000
  H   H6122     1.0  0.97992  0.85040  0.67170  1.0000
  C   C3447     1.0  0.97964  0.83468  0.56336  1.0000
  H   H6123     1.0  0.98600  0.92883  0.53044  1.0000
  C   C3448     1.0  0.88993  0.97435  0.61667  1.0000
  S   S764      1.0  0.99633  0.64098  0.94927  1.0000
  H   H6124     1.0  0.80631  0.81244  0.80130  1.0000
  H   H6125     1.0  0.80931  0.68175  0.56897  1.0000
  C   C3449     1.0  0.81446  0.71415  0.57229  1.0000
  C   C3450     1.0  0.99042  0.61200  0.89744  1.0000
  C   C3451     1.0  0.90962  0.50411  0.99112  1.0000
  H   H6126     1.0  0.90769  0.51001  0.93098  1.0000
  H   H6127     1.0  0.99377  0.62256  0.98861  1.0000
  S   S765      1.0  0.99428  0.68337  0.92942  1.0000
  H   H6128     1.0  0.98512  0.83963  0.54950  1.0000
  H   H6129     1.0  0.98030  0.63151  0.80183  1.0000
  H   H6130     1.0  0.99491  0.76345  0.61885  1.0000
  H   H6131     1.0  0.80178  0.84449  0.60637  1.0000
  H   H6132     1.0  0.97774  0.49754  0.83349  1.0000
  H   H6133     1.0  0.81668  0.68977  0.59367  1.0000
  S   S766      1.0  0.99359  0.69556  0.87844  1.0000
  C   C3452     1.0  0.85138  0.49658  0.98030  1.0000
  H   H6134     1.0  0.92653  0.98901  0.58659  1.0000
  H   H6135     1.0  0.80052  0.93379  0.57568  1.0000
  H   H6136     1.0  0.93986  0.96235  0.49633  1.0000
  S   S767      1.0  0.80178  0.67356  0.90186  1.0000
  C   C3453     1.0  0.99475  0.97057  0.51119  1.0000
  S   S768      1.0  0.99305  0.61116  0.91885  1.0000
  H   H6137     1.0  0.84527  0.99319  0.61964  1.0000
  H   H6138     1.0  0.99545  0.71006  0.76355  1.0000
  C   C3454     1.0  0.99646  0.70499  0.77772  1.0000
  H   H6139     1.0  0.98946  0.65973  0.79740  1.0000
  C   C3455     1.0  0.85957  0.99326  0.61338  1.0000
  N   N192      1.0  0.99583  0.95115  0.51202  1.0000
  H   H6140     1.0  0.99727  0.63517  0.78179  1.0000
  C   C3456     1.0  0.99450  0.63233  0.79655  1.0000
  H   H6141     1.0  0.99351  0.64438  0.81774  1.0000
  H   H6142     1.0  0.99756  0.67957  0.80761  1.0000
  H   H6143     1.0  0.80058  0.95980  0.61122  1.0000
  H   H6144     1.0  0.91566  0.99582  0.60735  1.0000
