data_image0
_chemical_formula_structural       FeS2FeSHFeSFeCS2H3C4SH6CH2C2FeS2CSCFeCFeHS2HFeS2FeS2FeSFeS3C6H5C2H5C8H6C7H4NCH2SH3SH4CH3C2H3CH4CHC6H4C2HC3H13C3H2CH6CH10SH3CH6CH2C2H4CH4CHC2HCHCH3CHSH4C2HC3H3C2H5CH3SH2CH3C3H2CH3CH5CHNCH14CH2CH4CH2CH2C2HCH2C2H3CHSCHC3HC2HCH3NH3C2H2CH3CH5NH2CH5FeC2H3C3HSH4CHCH4C2NCH3CSH6CHFeH2NC9SC3H2C4H5CHC4HC2H4SHCNH6CH2SHSH2CHSC2SHFeSFeSCHFeSCFeSFe2SFeS3FeSHFeS2FeSFeS5CH2CH2CSHSHFeSH5C2H3C2H2C6H4C6H4C4HCH3C6HCH2C6H6CH2CNH3C2H16S2FeHCH2CHCH2C2H3NC2H2CHC2H2CH4SFeCHCH2C6H9CH2NHC5H13CH2CNH2SCH3SH3CH4CFeNC7H15CNCHC4HCHC2H2C2H5CH2CH2C2HC2HFeH4CHCH2C2H2SHCSHCHSC2H4SHSH4CHNCH6NC4HC2HC2H8CH13NC12H26CHCFeH3NFeH4CHCH5C2HCFeCH3CH2CH2CHCHSHC5HCH5CHCH2SHCH4CFeCHSCHC3H2CH2CSCH3SHFeCHCH4CH3C2HFeNHCH4CH3CH5CH4CH6CH3FeCHCH2FeHCSCSH2C2HSH2CSHCH2C2SHCHC2H6C2H3CHC2FeH3CHSH2CH7CHS2H4CHFeS2FeS2FeSFeCS3CNFeS2FeS2FeCFeHS2FeS2FeS2FeCFeCS2C2HSC2H3CS3C3HC3HCH4C2HCFeH2C3H2C5H6C6H4C2HC3H3C6H4C6H4C2FeHCFeC4HCH2SHC4H5CSHC3HCHCH7CHCHCHC2FeH3SH2C2H2SH5C4HSCH2C3H4NFeCH5CH3CHCH3CNCH3CHSHC2H2FeSH2CFeH5CH7CH2CNHNC9H22SC2HCH11CH2NCHCH4CHFeCH3C3H3C2SH3SHC2H2CH8NC8HC3H16FeH11C4H3C2H4C2H5SHSH3CHC2H2C3H2CH4NH6CH8CHS2H3FeH2FeCH2CH4CH4CH2C2SH2SHCHCSH2C2H4C3H2SCHNCH4CHC2H2CH2CH8C2HCH3C2HCH5CNH4C2H3C2H4CH11C2FeSHFeS2FeHFeS3HCNH2N2C2HFeS2FeS2FeSFeS3CFeSHFeS2H2FeSCSH7CH2CH3SCH2CH2CH2C4H8C2H2C2H4C6H2SHC2HCHCH2C5H4C3HC6H4C2HCHCH6CH9SCFeHCH2CH7CHCHCHCNC2HC2H2CHCH14CHCH7CH3C3FeCH2CNH2C2H4C2H2SHCH2SCHNCHCHC2HS2H3CHCHNHC2H3CHFeHCH9CH3CSCHC2SH2C2H2NC8H16C2HC3HC9H5C2HCH5CH5CH4CHC2HNH3CH5CH2C2H5C3HCH4C2H3CH2CHCH3CHCHC3H3C2HCH5C2HSCHCH2C2H3CH3CHC3HCHCH5CH13CHCH3C2H2CFeHFeSCFeSFeSNSHCSH2C3HCH4CHC3H3C2H12CH5CHNCNHC2HCHC2HCH3C2H3C6HCH2C2H3CH2C2HCHNCH2C3H2CNH6CHCH6CHC2H8CH3NCHCH5CH3CH3CH5C2HCH5C2H3CHC2HCHC2H2CSH6CHSCH2CSH4CH3CH2SCHC2H2CH3CH2CH4C2H2C3FeSH5FeS2FeSFeSFeS3FeS2FeS2FeSFeS3CFeCSHFeHS2H2Fe2SFe2S2HCFeSC2S2C6H11CH2C2SHCHCH4C6H4C6H6C4H4C3H4C6H4CHC4H4CSC6H7CSH4SHCFeSCH7CSH4CH3C2NC12H16CH12CSFeHNCH2C3NHFeSCH5C4SCH6CSCH8C4H2NH2CH3Fe2C2FeH5SCH2CHCH8CH3SC2HCH5C2HC4H2C3H3NH10SH2C2H6CHNC6H16SHSHCNH2C5HSCH2CHC4H4SHCNC9HSH17CNCH2S2CHCH6CH3C4H2CH5CH3CH2CH4C2SH5CFeCHFeH2C2HNC9H18FeC3H3CH4CH10C2SHC2HC2HCHCH2CHC3H4C3H2C2HFeC2H7CH5CHSC2H3CH2CH4CH3C3H2SCH4C2HSHCHC2H7FeHCHSHCHCH6CH5SH2CFeHC3HCH3NSH3CNHCSCHC2HC2H2SHSH2C2H3C2H6C2H3C2H5C2H2CHC3H8CH3SC3SCH3CHCHSH3CH4C2H2C4HCSH2CHC3HSFe2SCHFeS2FeS2FeSFeS3FeS2FeS2FeSFeS2FeS3CHNFeS2HFeS2C2FeSHSHCH2C6H5CH5SC6H4C6H4C6H4C4H6C6H5CH2CHCHCSH2C4FeH6C3H4C4HCFeHCHCHNFeH2CSH4CH2CH2CHSHCH12CH3SC2H5FeC2H3C2H4NH2C5HC2H2NHCH2SFeNH5CFe2CH11CHC2H8NCSC6H8CH4CH3CH2CSHC4H2CHCH5CH2C2H5SCH3FeH5NC2HCHCHCHCH2CSH6FeHCH2SC3HS2CHCHCHCH3C2H2CHC3H3CH2CHSCHCH5NC11H26CHNC9H9CH11NC9HC2H9CH7CH2CH2CH4NC4H2C4HCH12CH8CH6NC12H20SH2CH3C3H3C2HNHC2HSHSCH2C3HC2HCHSCHC2HCHC2HCH2CH4C2H4CSHCHCH6CHC2H2C4HCH3CH6SH3CHFeH2C2HCHCH2SFeCH2CHC2HCHCH7C2SCH4CH4NH11CFeHCFeCH6SH2SCHCH2CH2C3H2CHCH4C2FeH5CH2SH3CHCSH2CH2SHCH3SH4NCH3CH2SH2SH4C2H13C3H4FeHC2HCHCHSCH3C2SHNCH5SHCH4CHCHFeCH2FeH2FeHSHCSCSCH2CHNHC5H3CHCH2CH2FeCH2CHNHC2H4C5H4CH2CHC3H7CHSHNHC2HC2H4CH5CHC2NCHCH6C3H3CH4SHCH2CHC3FeHCHC2H2CH4CH2CHCH2C2H3CH2SH3CHCHCSH2SCHSFeS2C2SHC2H2C3H2C2HFeHSH2CFeHFeSHFeS2CHFeHFeCS2HSHS2FeS2C3H9C2H2CHSCH2NCHCHCH3C2H3C2H4C4H4C6H5CHCSHCH2CH2C7H3C7H3CH3SNHC7H4CH6C2HCH3C3H4CH3SCHC2H2CHCH6SC2HCH5CHFe2SH3CNH4FeH2C2H5C2SH4CH3CH2SC5HSCFeH4CH3CH5SHNH7CH3NC2H10CH2CHCHNC4H3CHCHCHC3H3CH4CFeHCHCH3C2HC2HSH4FeH5CH3CH2SHSHCH4CHCH3SC3H3CH5SCHCS2CFeS2FeS2FeSFeS3FeSHFeSCFeSFeS4H3CHS2H5CSH3C2HCHNHC6H3C6HCH2C6H4C6H7SC2SCH2C6H6C2FeH4CHCHFeHSCFeH2NC9H20CH4NC4HCHCHSCH4CH2CH5CSH5C2H4C3NC7HC4H3SH12C3H4CH4NHC2HC5H6CH12CH3CSHNHCH4SCH2CH7FeH3FeH4C2HCNH4CHSH2CHCSFeNC12H22FeCH3CHNH2C2H2CH2C5H4CH7Fe2CH5SH5NHSC3H2SHCH3FeHCH2C3SC2NH9FeCHC2H3C2H3C2FeH2CHCHCH4CHCHCHSHCH3C2HC2SHSCFeH2SH6CSH3CH3C2H2CH5C2H5CHCSH5NHSCH4CHC3H2CH7SH5SCHFeCH3SC3SC2HCHCH2CHCH2CH2CHCSH8CH5SH2SHC2HCHC5HCH9CH2CH2FeHFeC4HCH4C2HCH2CHSH3CFeSCHSH3CS2HC2SH2SFeS2FeS2FeSFeS3FeS2FeS2HCFeCS3HCFeSCHS2HFeCH2CHCH2C4H7C2H2C5H2C2H2C3HSHC6H4C6H5C4HCH6CHC3H2C2H8S2H4SHCHCSHC3H2C2H3CH10C2SNH2CH4NH2NC8HCHCH16CH2CSCH2SH3C2H3C6HCNH3NH5CH2CSH5CHNC10H7Fe2H4CH9SNC10HCH19CH9CHSHCH4FeCHCHCH7CH2CH4SHSH2FeHC2FeCHCH3C3NCH2CHCHCFeH3SCH2FeH2FeHC2HFeSCH5CH6FeH3CHCHCHC4SH3C2H8NC3H5FeHCH3CH4FeC2H2C2FeHSCH2CH2SC2HNH4SCFeCHCH2CH5C2HCHCH4CHCFeH2CHSHCS2HCH2SHC3SCHFeH2CHCHCH3SHC2HSH3CH3SCH2NHCH7FeHC2NH3FeC2HCH2CHCHC2HCHCH2CHCHSCHCH4CH5CHCH4CH4CH3CHC2HCH3CSH3CFe3S2HSCFeSCSH3C2H3FeHCHSCH2CH2FeS2HFeHS2HFeCSHCSFeS2HFeCS2HSH2CSHFeH5SH2CH2CH4C2HC6H2C3HC4H4C2H2C6H11CHNSH2CH5SH2SCH2C7H4CFeC4FeCH4C2HC3HC3H4NC2HCH4CHCH4CHC2H4C2HSH2CHCH3SH5SH2CH2CH2CH4C2SHC4HCH2CH3NC8HC2H16CH10CH5C3H4CNCHCH2CH3CFeH4CH3CHCH2CHFeCHCHC2HCHCH12CHC4H2NCH3C2HCH2CNCH2CFeC2HC3HSH7CH10CH5CH4FeNCHCH3CSC2FeS2FeS2FeSFeS4HC4HS2FeCFeS2H2CHCH3S2H3C2FeS2CFeNCSFeSFeS2H2C3FeCHC3H2CH2C5H3CH3C2HC7H4CFeHCH2C4FeH3C5H3C5H3C6H4C4H3SHC7H4C5H12Fe2HCH2CH6NC12H33SHCH3C2H2CH2CHC2H2CH2CH3CH3CHCH5NH2SCH2CH4CH2CHCH5SH7CNC5H4CSCH2CHNC12H21CH9C4HCH9CSH3CH3C2SH3CH2CH5C3H2SH4FeCHNH2C4H2CH4SH4SHS2H4CNC12H17SCH6CHCNC12H24NC11H14FeH5SHSH10SC2H2CH2SHSHC3HCHC2SH2CFe2SHCSNC3H4CFeH2CH2CN2SHCH4S2HFeSHSH2C2HSCFeS2H2CH3C2HC4SHC2HCHC2H2CH2CSCFeH2C2H2SH2CHCH4FeH3C4H2FeSHSHSNCH5FeH3CH2C7HCHFeHCHFeH2CH4CHCH3FeH6CHCSHC2H5CHC2H2CSH6CHC4FeCH12CH3CHC3HC2H4CH2SCHCNCH2CH2CH2CHCHSH4CHFeHCHCNH10CH2CSH5CH4CH3C2H4Fe2S2H2FeS2CH2C2HCH3SHCH3S2HCHCSH3CSFeSCH2SCH5CH3C2H4FeSHFeS2FeSFeS2HC2HCH5C4H2CH2SH3C2HSH3C6H4CHSHC4H5C4HC6H5CNCHCH2FeCHCHC2HCH3NH4CSH2CHSH3C4HCHC2H4C2H10CH3CHC4HC2H3NHCNH5C3NH4C2H5CH7C2HC2H5CH2CH5C2HCHC3SCH3C2HCHC2H6CH10C2FeH3CH3CH8CHCH4C3HCH2CSCH4CHCFeHCSH3SHCH5CHCSHCH2CHSH6C5H5Fe2S2FeHFeS2H2SHCSH3FeS2HSFeSFeHSHC6H4C2SC2H6CH4CHC6H5CH3CH3CHC3H2C2H4C3HC2H3C6H8SH2NHSC3HCHCH12NHCH4CH2CHCHCHFeHC2H4C2HC3H2C2H5CSH2C2H6C2H2SHCH2CHFeHCSNCHC2H3CNCH2C3NH2CH4CH3S2HCH2C2HCH4CH5CHCHFeHSHCSH2C2H2FeCSC2H2CHFeSFeSH2SFeS2FeS2C3FeS2FeS2FeSFeS3CHSFeS2FeS2C6H3C6H4C3SC2H3SH4C2FeCH4C3H2C2H2C6H2SCNH2CHC2H2CHC4HC7H7SCHC3H4C2H2CHCHFeH4C2HSNC9H2CH20NHCH5FeH9SCHSH4C4H2CHSCFeHCH2SH2FeHFeHSHC2H2CH2SHCHCNC2H2CH3SH2CHCH3CH2CH2CHCHC2H3FeH4CH4C4H2NC9H13CHC2H2NC11H26CNCHSCH2SCSC2SHCHNC12H19CH7SHCH2C4NHCFeH2CH4CHC2FeCH2C3H2CH2NCHC2HC5FeH5FeH4SH2CH9CNC7H2CHCHFeH7CH5CHSH6CH5CH5CH2CH7C6H3CH2SH9NCHSCNH2CH3SH3CHCH2CH2CHCHFeHCHC2H4C2H2FeCH3C2HCSHCH4C2HC2SH2CHSCHFeC2H3FeSC2SHCH2CH3CH6SCSNHCH2CHCH4S2CHCHCH4SHFeHNSHCH2C2HCH4CH3C3H6C2H2FeH2C2H2C4HCH3C2H3NH3C2H3C3SCH6CHCFeH2CH3N2HC2H2C2HCH5C2H8CH8SC2H2CHSH3CH3CH4C2H2CHCH2SFeH3SH3C4H4SHCH3CH5CH6CSH3CH3C2HFe2SFeS2FeSHFeSFeS3HS2H2CHS2H2SFeSFe2S3HFeS2FeSFeHFeSCS3FeSC5H2C5H5C6H4CHSCFeC2HCH5C7H4C6H5SHCHC2FeH2CH2C4H3C3H2CHNC4HCH10SH3NC9HSH6FeH4SHCH7CH6CNC8HCHCH16CHSH2SH5C2HCH8CH4CSCH5C2H3CHCH4C2H4CH2C3H5CHCH3FeHSHCFeSHC2FeH2SCFeCH4FeHSCH5C3HNH3C2H3C2H2SHCH4CH2CH2C2FeHC3H7NC12H29CHCH3SFeC2H3C2HCH2FeH3SCH3CH2CSH4FeCH2CH7CNHCH2C2H2C4H2C2HNHCH4SH4SCHC4NH3CH2CH2CH2SH7CSCHFeHSH3SCFeHCHC2HSH2CH3CH2CFeHCHCHNC2H4CHCHCHSC2SH2CH2CHCH3CHC3H3CSHCH2CH3CHSH2SH2SCHFeC2HCHC3N2H2C4H2C4H2SFeS2C3HSH8CHC2H9CHC2HC2N2CH2SH2CHCSCH3CH2C3H3CSCHCHCH7CH3C2HCH6C2H3FeH4CH2CHSH4NH6C2NHCNC3SH2CH3CH2FeSFeS2FeSH2SC3H3CHC2H4SFeHC3H8CH4CH3SCH3SH2CH6C2HC2HC2H2C3SCHCHC3H2CHC4H9CH6CH3SC2H3CNCH5C2H2CH3FeSCHSH2C6H6NHC2HCHC2H2C3H5C2FeH5C3HSH2CH2CHCHFeCH8FeH7C5HC3SHCH5SHSCH2CHC4H4CHNH6FeS2FeSC2FeS2C3H3SHCHC2H2C2HC4H5SH4C2HC6H5C2FeHSNHCHCH2SH6NC3HC2H6CHCH2CH3CH8CHCHNHC2H5CH5C2HCHC2FeCH4CHCH2CH2SH5C2H2C3H3CHCH3CH5CH3CFeCH4CH3CHCH2CHC2H5S2H3SFeSH2CFeS2FeSCFe2S6HS2NHFeS2FeS2FeCFeS3HSHCFeS2CSH3C7HCH2FeHC7H4C2HC5H3C4H2C6H6CHC3HC3FeC6H4FeC3H2SNSCSCH3C2HC2HCHCH6CH2CH2SC2HCH2C2HCH7CNH4C2H6CH3FeCH6CH2C2SHSHC3H10FeCH9SCH2C3FeHCH2CH3CNHNH4C2H3SC5H15CH2CNC2H2CH2C2H2CH4CHCHCHC2H2CHCH2CH2C2HCH2SC2HCH2FeCHCHFeC2HCHFeCFeH2CH2CHCH3CNCHNC12H16NCH10NSCH2CH2C2H2CH4C3H3C2H7CSCH2CH2CNC11SH12CFeH5SHCH5C2HC3FeC2H6CHS2HCH7CH3C2H3CH2S2HFeHCSH2CHCH3C2SHSC3H3FeHFeSCH2S2H8CSH3C2HCH3SH3CHCHC2HSCHCHCHSCH2SCHFeCH2SHCFeNHCH3CH3C2H2SH9CHCHCHCSCSCSCHCH6CHCH3SH2CHCH4CH2CHC2H2FeH6CNCHFeH7C2N2HCHSCH3CH2CHCHC2HCFeH3CHCHCH15C2HSH2SH3CH2CHCH5CH3CH4SH5C3H2CFeCHCH14CH3CH2
_chemical_formula_sum              "Fe384 S768 H6144 C3456 N192"
_cell_length_a       67.4763
_cell_length_b       67.0142
_cell_length_c       67.174
_cell_angle_alpha    75.3249
_cell_angle_beta     75.3425
_cell_angle_gamma    75.4689

_space_group_name_H-M_alt    "P 1"
_space_group_IT_number       1

loop_
  _space_group_symop_operation_xyz
  'x, y, z'

loop_
  _atom_site_type_symbol
  _atom_site_label
  _atom_site_symmetry_multiplicity
  _atom_site_fract_x
  _atom_site_fract_y
  _atom_site_fract_z
  _atom_site_occupancy
  Fe  Fe1       1.0  0.12779  0.44263  0.10139  1.0000
  S   S1        1.0  0.13157  0.41595  0.12910  1.0000
  S   S2        1.0  0.09976  0.46889  0.09973  1.0000
  Fe  Fe2       1.0  0.16934  0.42709  0.07531  1.0000
  S   S3        1.0  0.17685  0.39911  0.10044  1.0000
  H   H1        1.0  0.00857  0.36666  0.13443  1.0000
  Fe  Fe3       1.0  0.14367  0.39576  0.10470  1.0000
  S   S4        1.0  0.13900  0.36260  0.10798  1.0000
  Fe  Fe4       1.0  0.16442  0.42161  0.12254  1.0000
  C   C1        1.0  0.14581  0.02935  0.39231  1.0000
  S   S5        1.0  0.13731  0.42208  0.07750  1.0000
  S   S6        1.0  0.15948  0.45004  0.09679  1.0000
  H   H2        1.0  0.04082  0.42720  0.13759  1.0000
  H   H3        1.0  0.01414  0.07228  0.42818  1.0000
  H   H4        1.0  0.99431  0.16151  0.26806  1.0000
  C   C2        1.0  0.02008  0.48124  0.13398  1.0000
  C   C3        1.0  0.14669  0.26296  0.99981  1.0000
  C   C4        1.0  0.14605  0.34615  0.19901  1.0000
  C   C5        1.0  0.03317  0.16790  0.43099  1.0000
  S   S7        1.0  0.01104  0.27376  0.07694  1.0000
  H   H5        1.0  0.10578  0.02889  0.48290  1.0000
  H   H6        1.0  0.06021  0.02090  0.33299  1.0000
  H   H7        1.0  0.99693  0.01413  0.47009  1.0000
  H   H8        1.0  0.02631  0.05289  0.31190  1.0000
  H   H9        1.0  0.05688  0.14224  0.44080  1.0000
  H   H10       1.0  0.09827  0.14046  0.37830  1.0000
  C   C6        1.0  0.16070  0.49170  0.02863  1.0000
  H   H11       1.0  0.08355  0.25785  0.99889  1.0000
  H   H12       1.0  0.12078  0.08810  0.41990  1.0000
  C   C7        1.0  0.13910  0.03003  0.41569  1.0000
  C   C8        1.0  0.13414  0.41961  0.02056  1.0000
  Fe  Fe5       1.0  0.05945  0.32418  0.06561  1.0000
  S   S8        1.0  0.06511  0.28880  0.07260  1.0000
  S   S9        1.0  0.05857  0.34553  0.08731  1.0000
  C   C9        1.0  0.00170  0.14748  0.33651  1.0000
  S   S10       1.0  0.05359  0.29285  0.02661  1.0000
  C   C10       1.0  0.09125  0.01043  0.37625  1.0000
  Fe  Fe6       1.0  0.03632  0.29250  0.05982  1.0000
  C   C11       1.0  0.18233  0.35700  0.14425  1.0000
  Fe  Fe7       1.0  0.08185  0.29185  0.03877  1.0000
  H   H13       1.0  0.00553  0.30144  0.12317  1.0000
  S   S11       1.0  0.02914  0.32774  0.05553  1.0000
  S   S12       1.0  0.07866  0.32697  0.03278  1.0000
  H   H14       1.0  0.14356  0.39906  0.99811  1.0000
  Fe  Fe8       1.0  0.11649  0.11381  0.33316  1.0000
  S   S13       1.0  0.10563  0.08666  0.35721  1.0000
  S   S14       1.0  0.14443  0.12632  0.33310  1.0000
  Fe  Fe9       1.0  0.07931  0.12388  0.31193  1.0000
  S   S15       1.0  0.06531  0.09796  0.33454  1.0000
  S   S16       1.0  0.06330  0.14555  0.28646  1.0000
  Fe  Fe10      1.0  0.07432  0.10820  0.35944  1.0000
  S   S17       1.0  0.05072  0.11279  0.38879  1.0000
  Fe  Fe11      1.0  0.09766  0.07882  0.33000  1.0000
  S   S18       1.0  0.09787  0.04588  0.32835  1.0000
  S   S19       1.0  0.08551  0.13609  0.33742  1.0000
  S   S20       1.0  0.11144  0.10402  0.30544  1.0000
  C   C12       1.0  0.07107  0.08277  0.45133  1.0000
  C   C13       1.0  0.08194  0.07456  0.43347  1.0000
  C   C14       1.0  0.07589  0.08348  0.41398  1.0000
  C   C15       1.0  0.05894  0.10052  0.41251  1.0000
  C   C16       1.0  0.04799  0.10824  0.43044  1.0000
  C   C17       1.0  0.05387  0.09924  0.44978  1.0000
  H   H15       1.0  0.09515  0.06158  0.43462  1.0000
  H   H16       1.0  0.08424  0.07713  0.40026  1.0000
  H   H17       1.0  0.03484  0.12123  0.42933  1.0000
  H   H18       1.0  0.04478  0.10477  0.46364  1.0000
  H   H19       1.0  0.15053  0.44511  0.01455  1.0000
  C   C18       1.0  0.01059  0.23855  0.03578  1.0000
  C   C19       1.0  0.01559  0.25297  0.04478  1.0000
  H   H20       1.0  0.19070  0.42566  0.00273  1.0000
  H   H21       1.0  0.07566  0.21332  0.00278  1.0000
  H   H22       1.0  0.04801  0.04650  0.33919  1.0000
  H   H23       1.0  0.01884  0.23620  0.02029  1.0000
  H   H24       1.0  0.02772  0.26158  0.03624  1.0000
  C   C20       1.0  0.14389  0.43749  0.00561  1.0000
  C   C21       1.0  0.01793  0.04571  0.45436  1.0000
  C   C22       1.0  0.13838  0.04979  0.46488  1.0000
  C   C23       1.0  0.01730  0.11399  0.29348  1.0000
  C   C24       1.0  0.03627  0.11879  0.29364  1.0000
  C   C25       1.0  0.04011  0.13906  0.28493  1.0000
  C   C26       1.0  0.02509  0.15437  0.27536  1.0000
  C   C27       1.0  0.00602  0.14956  0.27514  1.0000
  H   H25       1.0  0.01437  0.09834  0.30045  1.0000
  H   H26       1.0  0.04809  0.10670  0.30013  1.0000
  H   H27       1.0  0.02804  0.17005  0.26846  1.0000
  H   H28       1.0  0.18943  0.23872  0.09639  1.0000
  H   H29       1.0  0.03083  0.03702  0.46257  1.0000
  H   H30       1.0  0.02390  0.16649  0.44734  1.0000
  C   C28       1.0  0.00163  0.09531  0.37812  1.0000
  C   C29       1.0  0.11643  0.03574  0.30816  1.0000
  C   C30       1.0  0.11766  0.01504  0.30663  1.0000
  C   C31       1.0  0.13329  0.00602  0.29154  1.0000
  C   C32       1.0  0.14763  0.01761  0.27795  1.0000
  C   C33       1.0  0.14574  0.03869  0.27869  1.0000
  C   C34       1.0  0.13026  0.04771  0.29401  1.0000
  H   H31       1.0  0.10686  0.00581  0.31741  1.0000
  H   H32       1.0  0.99500  0.31547  0.01709  1.0000
  H   H33       1.0  0.15685  0.04770  0.26812  1.0000
  H   H34       1.0  0.12939  0.06368  0.29512  1.0000
  N   N1        1.0  0.15253  0.00358  0.36738  1.0000
  C   C35       1.0  0.08064  0.00214  0.25696  1.0000
  H   H35       1.0  0.03446  0.47334  0.02276  1.0000
  H   H36       1.0  0.11189  0.35929  0.01774  1.0000
  S   S21       1.0  0.03403  0.43881  0.06817  1.0000
  H   H37       1.0  0.07437  0.04266  0.29915  1.0000
  H   H38       1.0  0.05463  0.23578  0.00420  1.0000
  H   H39       1.0  0.99826  0.19593  0.10171  1.0000
  S   S22       1.0  0.07901  0.07311  0.47556  1.0000
  H   H40       1.0  0.02909  0.07479  0.44589  1.0000
  H   H41       1.0  0.09742  0.45847  0.04198  1.0000
  H   H42       1.0  0.12453  0.02382  0.42267  1.0000
  H   H43       1.0  0.00605  0.05743  0.25079  1.0000
  C   C36       1.0  0.05832  0.39367  0.04902  1.0000
  H   H44       1.0  0.01246  0.19824  0.18882  1.0000
  H   H45       1.0  0.06170  0.16766  0.43973  1.0000
  H   H46       1.0  0.08101  0.00756  0.23985  1.0000
  C   C37       1.0  0.15331  0.09702  0.36838  1.0000
  C   C38       1.0  0.15473  0.11705  0.35600  1.0000
  H   H47       1.0  0.01130  0.12254  0.46171  1.0000
  H   H48       1.0  0.14577  0.06341  0.46288  1.0000
  H   H49       1.0  0.14556  0.08698  0.36404  1.0000
  C   C39       1.0  0.18301  0.43832  0.15908  1.0000
  H   H50       1.0  0.10689  0.34686  0.14878  1.0000
  H   H51       1.0  0.05142  0.46117  0.12709  1.0000
  H   H52       1.0  0.17315  0.22780  0.08595  1.0000
  H   H53       1.0  0.14793  0.24634  0.00660  1.0000
  C   C40       1.0  0.09336  0.47321  0.03044  1.0000
  H   H54       1.0  0.11934  0.41636  0.99688  1.0000
  C   C41       1.0  0.11681  0.35835  0.10142  1.0000
  C   C42       1.0  0.11740  0.33891  0.09669  1.0000
  C   C43       1.0  0.09982  0.33492  0.09185  1.0000
  C   C44       1.0  0.08129  0.35005  0.09250  1.0000
  C   C45       1.0  0.08054  0.36923  0.09778  1.0000
  C   C46       1.0  0.09836  0.37359  0.10175  1.0000
  H   H55       1.0  0.13150  0.32690  0.09676  1.0000
  H   H56       1.0  0.10038  0.31991  0.08825  1.0000
  H   H57       1.0  0.06609  0.38078  0.09875  1.0000
  H   H58       1.0  0.09762  0.38846  0.10570  1.0000
  C   C47       1.0  0.05220  0.44747  0.07670  1.0000
  C   C48       1.0  0.05052  0.46887  0.07582  1.0000
  H   H59       1.0  0.14529  0.18512  0.41342  1.0000
  C   C49       1.0  0.08155  0.46071  0.09072  1.0000
  C   C50       1.0  0.08299  0.43931  0.09186  1.0000
  C   C51       1.0  0.06859  0.43275  0.08446  1.0000
  H   H60       1.0  0.99481  0.15427  0.12306  1.0000
  H   H61       1.0  0.13149  0.46887  0.03775  1.0000
  H   H62       1.0  0.09497  0.42775  0.09879  1.0000
  H   H63       1.0  0.06985  0.41621  0.08524  1.0000
  H   H64       1.0  0.11997  0.42649  0.03109  1.0000
  H   H65       1.0  0.08449  0.35835  0.16637  1.0000
  H   H66       1.0  0.08973  0.18290  0.41387  1.0000
  H   H67       1.0  0.01600  0.13013  0.36328  1.0000
  H   H68       1.0  0.00892  0.06797  0.36306  1.0000
  H   H69       1.0  0.04040  0.04930  0.37706  1.0000
  H   H70       1.0  0.11951  0.39651  0.17947  1.0000
  H   H71       1.0  0.02696  0.15942  0.42243  1.0000
  H   H72       1.0  0.16601  0.26078  0.05793  1.0000
  C   C52       1.0  0.12875  0.40566  0.00825  1.0000
  C   C53       1.0  0.16538  0.01811  0.35120  1.0000
  C   C54       1.0  0.13051  0.00895  0.36335  1.0000
  H   H73       1.0  0.16133  0.36127  0.21507  1.0000
  H   H74       1.0  0.12612  0.12839  0.42986  1.0000
  C   C55       1.0  0.16928  0.01555  0.32809  1.0000
  H   H75       1.0  0.04728  0.38270  0.05371  1.0000
  H   H76       1.0  0.11387  0.09449  0.44583  1.0000
  H   H77       1.0  0.04840  0.27242  0.99527  1.0000
  H   H78       1.0  0.09176  0.00387  0.36247  1.0000
  H   H79       1.0  0.15777  0.03487  0.35142  1.0000
  H   H80       1.0  0.12626  0.02602  0.35639  1.0000
  C   C56       1.0  0.02591  0.06372  0.43794  1.0000
  H   H81       1.0  0.06501  0.17453  0.39966  1.0000
  H   H82       1.0  0.01838  0.16744  0.34436  1.0000
  H   H83       1.0  0.13253  0.03806  0.38461  1.0000
  H   H84       1.0  0.15455  0.01533  0.32379  1.0000
  H   H85       1.0  0.08101  0.17489  0.36511  1.0000
  H   H86       1.0  0.01392  0.17498  0.31781  1.0000
  H   H87       1.0  0.01097  0.07680  0.22700  1.0000
  H   H88       1.0  0.17600  0.33601  0.20980  1.0000
  H   H89       1.0  0.16517  0.47589  0.03856  1.0000
  H   H90       1.0  0.10732  0.19192  0.33779  1.0000
  S   S23       1.0  0.17645  0.99389  0.46014  1.0000
  H   H91       1.0  0.14312  0.34325  0.15622  1.0000
  H   H92       1.0  0.15679  0.43142  0.99332  1.0000
  H   H93       1.0  0.06476  0.49206  0.08102  1.0000
  C   C57       1.0  0.17425  0.12254  0.37926  1.0000
  H   H94       1.0  0.14769  0.29459  0.06363  1.0000
  H   H95       1.0  0.13394  0.48182  0.06624  1.0000
  H   H96       1.0  0.13443  0.15613  0.40546  1.0000
  H   H97       1.0  0.12377  0.18094  0.39090  1.0000
  H   H98       1.0  0.05004  0.02004  0.26644  1.0000
  H   H99       1.0  0.12959  0.17202  0.43653  1.0000
  C   C58       1.0  0.99490  0.22719  0.04668  1.0000
  H   H100      1.0  0.14061  0.09117  0.43175  1.0000
  H   H101      1.0  0.00433  0.39469  0.15320  1.0000
  C   C59       1.0  0.03626  0.46034  0.13809  1.0000
  C   C60       1.0  0.01793  0.16141  0.33056  1.0000
  H   H102      1.0  0.04373  0.46278  0.99903  1.0000
  H   H103      1.0  0.17885  0.06530  0.33909  1.0000
  H   H104      1.0  0.15877  0.03805  0.38529  1.0000
  H   H105      1.0  0.13482  0.36673  0.00142  1.0000
  C   C61       1.0  0.12930  0.27744  0.00739  1.0000
  H   H106      1.0  0.18477  0.37317  0.14249  1.0000
  H   H107      1.0  0.16772  0.04864  0.31308  1.0000
  H   H108      1.0  0.12143  0.42465  0.19627  1.0000
  H   H109      1.0  0.12273  0.30328  0.04114  1.0000
  C   C62       1.0  0.15324  0.00636  0.38875  1.0000
  H   H110      1.0  0.01622  0.46755  0.01063  1.0000
  C   C63       1.0  0.18919  0.23048  0.08405  1.0000
  C   C64       1.0  0.00482  0.25624  0.06477  1.0000
  H   H111      1.0  0.12963  0.00074  0.35119  1.0000
  C   C65       1.0  0.12978  0.04217  0.48819  1.0000
  H   H112      1.0  0.11352  0.34078  0.18484  1.0000
  C   C66       1.0  0.00882  0.12661  0.35165  1.0000
  H   H113      1.0  0.02635  0.44455  0.11869  1.0000
  H   H114      1.0  0.03114  0.18482  0.42329  1.0000
  H   H115      1.0  0.08885  0.07461  0.28491  1.0000
  C   C67       1.0  0.00806  0.19277  0.11373  1.0000
  H   H116      1.0  0.02201  0.11742  0.34198  1.0000
  S   S24       1.0  0.16886  0.00501  0.26148  1.0000
  H   H117      1.0  0.15548  0.38968  0.16002  1.0000
  H   H118      1.0  0.02782  0.07513  0.27652  1.0000
  H   H119      1.0  0.13310  0.12231  0.47567  1.0000
  H   H120      1.0  0.03372  0.15242  0.32493  1.0000
  C   C68       1.0  0.18147  0.47033  0.18023  1.0000
  C   C69       1.0  0.08609  0.24355  0.99223  1.0000
  H   H121      1.0  0.02888  0.30798  0.10496  1.0000
  C   C70       1.0  0.02880  0.44181  0.13497  1.0000
  C   C71       1.0  0.13113  0.31564  0.04091  1.0000
  C   C72       1.0  0.00015  0.34531  0.10869  1.0000
  H   H122      1.0  0.12558  0.05471  0.45596  1.0000
  H   H123      1.0  0.00344  0.10860  0.43420  1.0000
  H   H124      1.0  0.16645  0.14520  0.35188  1.0000
  C   C73       1.0  0.06543  0.47551  0.08253  1.0000
  C   C74       1.0  0.03521  0.06844  0.24537  1.0000
  H   H125      1.0  0.15963  0.28433  0.02658  1.0000
  H   H126      1.0  0.02925  0.29820  0.13243  1.0000
  H   H127      1.0  0.14983  0.31826  0.23711  1.0000
  H   H128      1.0  0.08587  0.36963  0.05135  1.0000
  H   H129      1.0  0.15588  0.45831  0.14819  1.0000
  C   C75       1.0  0.11837  0.37321  0.00804  1.0000
  H   H130      1.0  0.01459  0.03518  0.44580  1.0000
  H   H131      1.0  0.05797  0.49085  0.12715  1.0000
  H   H132      1.0  0.08635  0.02783  0.37225  1.0000
  S   S25       1.0  0.04963  0.12890  0.48803  1.0000
  H   H133      1.0  0.10202  0.23488  0.99432  1.0000
  H   H134      1.0  0.03812  0.48024  0.06939  1.0000
  C   C76       1.0  0.15246  0.38086  0.17649  1.0000
  H   H135      1.0  0.02868  0.08340  0.35476  1.0000
  H   H136      1.0  0.05917  0.39854  0.06330  1.0000
  H   H137      1.0  0.01865  0.05497  0.39819  1.0000
  C   C77       1.0  0.03749  0.06211  0.26866  1.0000
  C   C78       1.0  0.12770  0.37654  0.03982  1.0000
  C   C79       1.0  0.15124  0.36639  0.03402  1.0000
  H   H138      1.0  0.18252  0.03033  0.29655  1.0000
  H   H139      1.0  0.12982  0.35259  0.20644  1.0000
  C   C80       1.0  0.16114  0.35912  0.05337  1.0000
  H   H140      1.0  0.13542  0.34364  0.24270  1.0000
  H   H141      1.0  0.16267  0.13059  0.48532  1.0000
  H   H142      1.0  0.13195  0.44937  0.99794  1.0000
  C   C81       1.0  0.06597  0.01840  0.26913  1.0000
  H   H143      1.0  0.09454  0.40660  0.04251  1.0000
  H   H144      1.0  0.12571  0.38683  0.05118  1.0000
  H   H145      1.0  0.11968  0.36354  0.04917  1.0000
  H   H146      1.0  0.16044  0.37733  0.02240  1.0000
  H   H147      1.0  0.15310  0.35246  0.02715  1.0000
  C   C82       1.0  0.02951  0.06210  0.38438  1.0000
  H   H148      1.0  0.14571  0.41035  0.03029  1.0000
  N   N2        1.0  0.05946  0.05729  0.27255  1.0000
  C   C83       1.0  0.99607  0.11926  0.46342  1.0000
  H   H149      1.0  0.14608  0.32962  0.19858  1.0000
  H   H150      1.0  0.15399  0.48606  0.16752  1.0000
  H   H151      1.0  0.15214  0.34870  0.06596  1.0000
  H   H152      1.0  0.17727  0.35010  0.04923  1.0000
  H   H153      1.0  0.16178  0.37289  0.05940  1.0000
  H   H154      1.0  0.08841  0.41052  0.01756  1.0000
  H   H155      1.0  0.05209  0.40767  0.03774  1.0000
  H   H156      1.0  0.12774  0.38623  0.20443  1.0000
  H   H157      1.0  0.06394  0.14779  0.40183  1.0000
  H   H158      1.0  0.07761  0.37556  0.02694  1.0000
  H   H159      1.0  0.13121  0.12203  0.40418  1.0000
  H   H160      1.0  0.16188  0.07402  0.39534  1.0000
  H   H161      1.0  0.15773  0.31807  0.05127  1.0000
  H   H162      1.0  0.12092  0.32600  0.05154  1.0000
  C   C84       1.0  0.00787  0.19014  0.15110  1.0000
  H   H163      1.0  0.00967  0.10083  0.38769  1.0000
  H   H164      1.0  0.08597  0.11064  0.26294  1.0000
  C   C85       1.0  0.13245  0.39394  0.18779  1.0000
  H   H165      1.0  0.13412  0.32521  0.02475  1.0000
  H   H166      1.0  0.18020  0.09204  0.32589  1.0000
  H   H167      1.0  0.14406  0.99612  0.40143  1.0000
  H   H168      1.0  0.15148  0.02050  0.42434  1.0000
  C   C86       1.0  0.16530  0.12973  0.36143  1.0000
  H   H169      1.0  0.02763  0.17247  0.18511  1.0000
  H   H170      1.0  0.16954  0.00091  0.39153  1.0000
  C   C87       1.0  0.08994  0.07655  0.26780  1.0000
  H   H171      1.0  0.09829  0.16144  0.43333  1.0000
  H   H172      1.0  0.08684  0.21977  0.03283  1.0000
  C   C88       1.0  0.99788  0.39985  0.12182  1.0000
  C   C89       1.0  0.04585  0.03343  0.33307  1.0000
  H   H173      1.0  0.07118  0.07977  0.24529  1.0000
  C   C90       1.0  0.16007  0.34526  0.21445  1.0000
  H   H174      1.0  0.10226  0.06364  0.26214  1.0000
  H   H175      1.0  0.09221  0.11926  0.41200  1.0000
  C   C91       1.0  0.16285  0.08954  0.38590  1.0000
  C   C92       1.0  0.12657  0.48527  0.02913  1.0000
  H   H176      1.0  0.04064  0.08335  0.23749  1.0000
  H   H177      1.0  0.01748  0.22381  0.10160  1.0000
  H   H178      1.0  0.03945  0.02787  0.30553  1.0000
  C   C93       1.0  0.16743  0.45653  0.15745  1.0000
  H   H179      1.0  0.08919  0.03600  0.26609  1.0000
  S   S26       1.0  0.11052  0.26816  0.02875  1.0000
  C   C94       1.0  0.17886  0.03334  0.31274  1.0000
  H   H180      1.0  0.18103  0.01597  0.35507  1.0000
  C   C95       1.0  0.01953  0.30822  0.12111  1.0000
  C   C96       1.0  0.00206  0.12939  0.28445  1.0000
  C   C97       1.0  0.02472  0.20690  0.10520  1.0000
  H   H181      1.0  0.07605  0.47787  0.03306  1.0000
  C   C98       1.0  0.11429  0.35644  0.17435  1.0000
  C   C99       1.0  0.16644  0.47226  0.16835  1.0000
  H   H182      1.0  0.03892  0.07054  0.38956  1.0000
  C   C100      1.0  0.03883  0.20177  0.08469  1.0000
  H   H183      1.0  0.99979  0.14406  0.32188  1.0000
  H   H184      1.0  0.16524  0.47642  0.00191  1.0000
  H   H185      1.0  0.00417  0.15150  0.14655  1.0000
  N   N3        1.0  0.18743  0.28090  0.03857  1.0000
  H   H186      1.0  0.11129  0.01389  0.39443  1.0000
  H   H187      1.0  0.01710  0.17640  0.11406  1.0000
  H   H188      1.0  0.02232  0.17831  0.14698  1.0000
  C   C101      1.0  0.00496  0.37639  0.11929  1.0000
  C   C102      1.0  0.07088  0.22933  0.00640  1.0000
  H   H189      1.0  0.07588  0.04430  0.24499  1.0000
  H   H190      1.0  0.13128  0.48487  0.01211  1.0000
  C   C103      1.0  0.15156  0.30548  0.04840  1.0000
  H   H191      1.0  0.03480  0.20464  0.11664  1.0000
  H   H192      1.0  0.00484  0.47780  0.14362  1.0000
  H   H193      1.0  0.05717  0.06708  0.30170  1.0000
  C   C104      1.0  0.01230  0.07207  0.24377  1.0000
  H   H194      1.0  0.02048  0.37504  0.10826  1.0000
  H   H195      1.0  0.17136  0.30684  0.01781  1.0000
  H   H196      1.0  0.15043  0.03716  0.45835  1.0000
  H   H197      1.0  0.16159  0.33382  0.24739  1.0000
  H   H198      1.0  0.01127  0.40795  0.11444  1.0000
  N   N4        1.0  0.11750  0.38841  0.02149  1.0000
  H   H199      1.0  0.07929  0.00433  0.38954  1.0000
  H   H200      1.0  0.16593  0.38161  0.18286  1.0000
  C   C105      1.0  0.06862  0.07679  0.26272  1.0000
  H   H201      1.0  0.05023  0.21240  0.07875  1.0000
  H   H202      1.0  0.04760  0.18523  0.08721  1.0000
  H   H203      1.0  0.02940  0.20421  0.07257  1.0000
  H   H204      1.0  0.00457  0.17485  0.20566  1.0000
  H   H205      1.0  0.11268  0.09650  0.26073  1.0000
  Fe  Fe12      1.0  0.04888  0.32770  0.02333  1.0000
  C   C106      1.0  0.12933  0.18202  0.42059  1.0000
  C   C107      1.0  0.04145  0.04142  0.31088  1.0000
  H   H206      1.0  0.04067  0.05756  0.42762  1.0000
  H   H207      1.0  0.13609  0.04656  0.41767  1.0000
  H   H208      1.0  0.00073  0.06762  0.47494  1.0000
  C   C108      1.0  0.07332  0.03958  0.26241  1.0000
  C   C109      1.0  0.01731  0.07725  0.36845  1.0000
  C   C110      1.0  0.99796  0.05420  0.46972  1.0000
  H   H209      1.0  0.14897  0.41441  0.19535  1.0000
  S   S27       1.0  0.18438  0.41776  0.14639  1.0000
  H   H210      1.0  0.10712  0.36858  0.18394  1.0000
  H   H211      1.0  0.13920  0.42475  0.17128  1.0000
  H   H212      1.0  0.03255  0.02671  0.34369  1.0000
  H   H213      1.0  0.08945  0.12824  0.43546  1.0000
  C   C111      1.0  0.17337  0.10232  0.39129  1.0000
  H   H214      1.0  0.11841  0.19730  0.42198  1.0000
  C   C112      1.0  0.07095  0.22698  0.02960  1.0000
  H   H215      1.0  0.17445  0.33068  0.16918  1.0000
  H   H216      1.0  0.11993  0.14859  0.38123  1.0000
  H   H217      1.0  0.09492  0.18770  0.37598  1.0000
  H   H218      1.0  0.06627  0.01198  0.28592  1.0000
  C   C113      1.0  0.05907  0.05237  0.29594  1.0000
  C   C114      1.0  0.11252  0.00449  0.38262  1.0000
  N   N5        1.0  0.15198  0.35835  0.17692  1.0000
  C   C115      1.0  0.09732  0.09717  0.25712  1.0000
  H   H219      1.0  0.19046  0.26053  0.01721  1.0000
  H   H220      1.0  0.02764  0.33631  0.12346  1.0000
  H   H221      1.0  0.09919  0.09983  0.23979  1.0000
  C   C116      1.0  0.16966  0.48989  0.00531  1.0000
  S   S28       1.0  0.18509  0.09365  0.41324  1.0000
  H   H222      1.0  0.02964  0.04854  0.27588  1.0000
  H   H223      1.0  0.00301  0.38407  0.08033  1.0000
  H   H224      1.0  0.17156  0.35753  0.13401  1.0000
  H   H225      1.0  0.11316  0.16392  0.33965  1.0000
  H   H226      1.0  0.10074  0.37499  0.14747  1.0000
  H   H227      1.0  0.12801  0.17578  0.35073  1.0000
  C   C117      1.0  0.13579  0.41572  0.18765  1.0000
  H   H228      1.0  0.01397  0.43946  0.14623  1.0000
  Fe  Fe13      1.0  0.00186  0.45834  0.07390  1.0000
  H   H229      1.0  0.04420  0.05591  0.23665  1.0000
  H   H230      1.0  0.05742  0.09091  0.26747  1.0000
  N   N6        1.0  0.09295  0.15221  0.40684  1.0000
  C   C118      1.0  0.10264  0.15281  0.38385  1.0000
  C   C119      1.0  0.09782  0.12982  0.41881  1.0000
  C   C120      1.0  0.06948  0.15835  0.40879  1.0000
  C   C121      1.0  0.10007  0.16701  0.41597  1.0000
  C   C122      1.0  0.12274  0.17083  0.40686  1.0000
  C   C123      1.0  0.09640  0.17408  0.36879  1.0000
  C   C124      1.0  0.05621  0.15842  0.43138  1.0000
  C   C125      1.0  0.12099  0.12049  0.41995  1.0000
  C   C126      1.0  0.12412  0.09712  0.43000  1.0000
  S   S29       1.0  0.03898  0.34909  0.99445  1.0000
  C   C127      1.0  0.11225  0.17652  0.34802  1.0000
  C   C128      1.0  0.15110  0.33457  0.23674  1.0000
  C   C129      1.0  0.18954  0.07589  0.32943  1.0000
  H   H231      1.0  0.13726  0.37101  0.14988  1.0000
  H   H232      1.0  0.04249  0.48746  0.16326  1.0000
  C   C130      1.0  0.13736  0.35745  0.16346  1.0000
  C   C131      1.0  0.17377  0.34780  0.16765  1.0000
  C   C132      1.0  0.10083  0.35935  0.15822  1.0000
  C   C133      1.0  0.09517  0.39818  0.02995  1.0000
  H   H233      1.0  0.05997  0.21671  0.03933  1.0000
  H   H234      1.0  0.06581  0.24254  0.03426  1.0000
  H   H235      1.0  0.99945  0.09787  0.33661  1.0000
  H   H236      1.0  0.09933  0.47029  0.01423  1.0000
  H   H237      1.0  0.11421  0.31014  0.00396  1.0000
  C   C134      1.0  0.07990  0.38264  0.03920  1.0000
  H   H238      1.0  0.01350  0.20456  0.15064  1.0000
  C   C135      1.0  0.01160  0.18177  0.18931  1.0000
  C   C136      1.0  0.03090  0.47354  0.00742  1.0000
  C   C137      1.0  0.18098  0.26492  0.05818  1.0000
  C   C138      1.0  0.12773  0.29892  0.99844  1.0000
  H   H239      1.0  0.99529  0.00353  0.18377  1.0000
  C   C139      1.0  0.99807  0.18134  0.17436  1.0000
  C   C140      1.0  0.16771  0.29419  0.03170  1.0000
  H   H240      1.0  0.18950  0.30287  0.05636  1.0000
  H   H241      1.0  0.18535  0.34886  0.17635  1.0000
  H   H242      1.0  0.18052  0.00070  0.32573  1.0000
  H   H243      1.0  0.03898  0.45663  0.15436  1.0000
  S   S30       1.0  0.17904  0.49002  0.19441  1.0000
  H   H244      1.0  0.17762  0.27185  0.07240  1.0000
  C   C141      1.0  0.10238  0.49071  0.03356  1.0000
  N   N7        1.0  0.99429  0.19479  0.13504  1.0000
  H   H245      1.0  0.01604  0.48472  0.17126  1.0000
  H   H246      1.0  0.00467  0.33003  0.14138  1.0000
  H   H247      1.0  0.09076  0.38964  0.99384  1.0000
  H   H248      1.0  0.01856  0.48440  0.11725  1.0000
  H   H249      1.0  0.09673  0.99915  0.25990  1.0000
  H   H250      1.0  0.01154  0.34559  0.09341  1.0000
  C   C142      1.0  0.01309  0.33072  0.12494  1.0000
  H   H251      1.0  0.99672  0.16475  0.17638  1.0000
  H   H252      1.0  0.13033  0.01178  0.48306  1.0000
  S   S31       1.0  0.19181  0.03442  0.40793  1.0000
  H   H253      1.0  0.18220  0.13250  0.38353  1.0000
  S   S32       1.0  0.18902  0.43382  0.04313  1.0000
  H   H254      1.0  0.00264  0.08485  0.25197  1.0000
  H   H255      1.0  0.14553  0.14964  0.55455  1.0000
  C   C143      1.0  0.12786  0.99472  0.63208  1.0000
  H   H256      1.0  0.04013  0.43052  0.90120  1.0000
  S   S33       1.0  0.15496  0.16700  0.80037  1.0000
  C   C144      1.0  0.15005  0.04638  0.67978  1.0000
  C   C145      1.0  0.10130  0.99507  0.51520  1.0000
  S   S34       1.0  0.15285  0.17547  0.74982  1.0000
  H   H257      1.0  0.09420  0.48291  0.86217  1.0000
  Fe  Fe14      1.0  0.14891  0.19459  0.77417  1.0000
  S   S35       1.0  0.12354  0.22330  0.77778  1.0000
  Fe  Fe15      1.0  0.16165  0.14808  0.77536  1.0000
  S   S36       1.0  0.15018  0.11811  0.78111  1.0000
  C   C146      1.0  0.00633  0.12673  0.59832  1.0000
  H   H258      1.0  0.13205  0.20665  0.52259  1.0000
  Fe  Fe16      1.0  0.17130  0.19929  0.56938  1.0000
  S   S37       1.0  0.13669  0.21198  0.57573  1.0000
  C   C147      1.0  0.16056  0.18246  0.52301  1.0000
  Fe  Fe17      1.0  0.17175  0.17583  0.61435  1.0000
  S   S38       1.0  0.13714  0.18629  0.62450  1.0000
  Fe  Fe18      1.0  0.01856  0.12305  0.50796  1.0000
  Fe  Fe19      1.0  0.13460  0.17917  0.59424  1.0000
  S   S39       1.0  0.11282  0.15776  0.59506  1.0000
  Fe  Fe20      1.0  0.14243  0.21797  0.60526  1.0000
  S   S40       1.0  0.12828  0.24832  0.61725  1.0000
  S   S41       1.0  0.16901  0.16617  0.58573  1.0000
  S   S42       1.0  0.17727  0.20774  0.59707  1.0000
  Fe  Fe21      1.0  0.03932  0.30379  0.88542  1.0000
  S   S43       1.0  0.05318  0.33253  0.87862  1.0000
  H   H259      1.0  0.00868  0.49120  0.88599  1.0000
  Fe  Fe22      1.0  0.08062  0.27579  0.87060  1.0000
  S   S44       1.0  0.09815  0.30200  0.86226  1.0000
  S   S45       1.0  0.09691  0.24238  0.86922  1.0000
  Fe  Fe23      1.0  0.07931  0.31025  0.89274  1.0000
  S   S46       1.0  0.09633  0.31505  0.91526  1.0000
  Fe  Fe24      1.0  0.07052  0.32172  0.84878  1.0000
  S   S47       1.0  0.07551  0.34328  0.81701  1.0000
  S   S48       1.0  0.06385  0.28249  0.90224  1.0000
  S   S49       1.0  0.05461  0.29459  0.85436  1.0000
  S   S50       1.0  0.10326  0.43366  0.83537  1.0000
  S   S51       1.0  0.07149  0.09684  0.52619  1.0000
  C   C148      1.0  0.05309  0.27899  0.97829  1.0000
  H   H260      1.0  0.11755  0.46852  0.72654  1.0000
  H   H261      1.0  0.13265  0.99806  0.66138  1.0000
  C   C149      1.0  0.99437  0.36226  0.85949  1.0000
  H   H262      1.0  0.13909  0.44446  0.90301  1.0000
  H   H263      1.0  0.05453  0.41568  0.93765  1.0000
  C   C150      1.0  0.14903  0.20486  0.51557  1.0000
  S   S52       1.0  0.16161  0.41096  0.83131  1.0000
  H   H264      1.0  0.01898  0.01575  0.49215  1.0000
  S   S53       1.0  0.16879  0.33255  0.67291  1.0000
  H   H265      1.0  0.12332  0.08815  0.60938  1.0000
  Fe  Fe25      1.0  0.17814  0.33421  0.70229  1.0000
  S   S54       1.0  0.15505  0.35105  0.72648  1.0000
  H   H266      1.0  0.15373  0.99660  0.50191  1.0000
  H   H267      1.0  0.11866  0.05568  0.49409  1.0000
  H   H268      1.0  0.16779  0.29064  0.59820  1.0000
  H   H269      1.0  0.12201  0.30251  0.57287  1.0000
  H   H270      1.0  0.14651  0.21972  0.89151  1.0000
  C   C151      1.0  0.16634  0.35886  0.74352  1.0000
  C   C152      1.0  0.16390  0.38029  0.74336  1.0000
  H   H271      1.0  0.11758  0.02090  0.64763  1.0000
  H   H272      1.0  0.14759  0.29683  0.55667  1.0000
  H   H273      1.0  0.04608  0.39325  0.95616  1.0000
  C   C153      1.0  0.06330  0.45267  0.83122  1.0000
  C   C154      1.0  0.04813  0.46591  0.82031  1.0000
  H   H274      1.0  0.05859  0.44410  0.84702  1.0000
  H   H275      1.0  0.03181  0.46785  0.82788  1.0000
  C   C155      1.0  0.05275  0.36040  0.81008  1.0000
  C   C156      1.0  0.04577  0.35850  0.79286  1.0000
  C   C157      1.0  0.02897  0.37333  0.78573  1.0000
  C   C158      1.0  0.01920  0.39041  0.79552  1.0000
  C   C159      1.0  0.02598  0.39213  0.81299  1.0000
  C   C160      1.0  0.04274  0.37717  0.82024  1.0000
  H   H276      1.0  0.05358  0.34570  0.78480  1.0000
  H   H277      1.0  0.02382  0.37181  0.77228  1.0000
  H   H278      1.0  0.01824  0.40480  0.82109  1.0000
  H   H279      1.0  0.04822  0.37887  0.83340  1.0000
  C   C161      1.0  0.07975  0.32382  0.93738  1.0000
  C   C162      1.0  0.05934  0.33499  0.93663  1.0000
  C   C163      1.0  0.04689  0.34315  0.95407  1.0000
  C   C164      1.0  0.05457  0.33946  0.97247  1.0000
  C   C165      1.0  0.07488  0.32813  0.97323  1.0000
  C   C166      1.0  0.08757  0.32071  0.95559  1.0000
  H   H280      1.0  0.05330  0.33774  0.92252  1.0000
  H   H281      1.0  0.03125  0.35213  0.95344  1.0000
  H   H282      1.0  0.12510  0.03989  0.70699  1.0000
  H   H283      1.0  0.10344  0.31248  0.95617  1.0000
  C   C167      1.0  0.10228  0.15783  0.57337  1.0000
  C   C168      1.0  0.09363  0.14071  0.57366  1.0000
  C   C169      1.0  0.08531  0.14011  0.55661  1.0000
  C   C170      1.0  0.08547  0.15674  0.53911  1.0000
  H   H284      1.0  0.00057  0.34272  0.95156  1.0000
  C   C171      1.0  0.10240  0.17447  0.55591  1.0000
  H   H285      1.0  0.09336  0.12781  0.58714  1.0000
  H   H286      1.0  0.07876  0.12680  0.55701  1.0000
  H   H287      1.0  0.02353  0.47430  0.91268  1.0000
  C   C172      1.0  0.14342  0.25544  0.63128  1.0000
  C   C173      1.0  0.16182  0.24192  0.63577  1.0000
  C   C174      1.0  0.17350  0.24703  0.64756  1.0000
  C   C175      1.0  0.16684  0.26560  0.65531  1.0000
  C   C176      1.0  0.14864  0.27959  0.65050  1.0000
  C   C177      1.0  0.13695  0.27452  0.63843  1.0000
  H   H288      1.0  0.16675  0.22717  0.63068  1.0000
  C   C178      1.0  0.14395  0.30594  0.98252  1.0000
  H   H289      1.0  0.14330  0.29394  0.65649  1.0000
  H   H290      1.0  0.12268  0.28510  0.63499  1.0000
  C   C179      1.0  0.11522  0.22844  0.80326  1.0000
  C   C180      1.0  0.10879  0.24933  0.80597  1.0000
  C   C181      1.0  0.10281  0.25376  0.82623  1.0000
  C   C182      1.0  0.10288  0.23726  0.84380  1.0000
  C   C183      1.0  0.10857  0.21640  0.84108  1.0000
  C   C184      1.0  0.11493  0.21198  0.82084  1.0000
  H   H291      1.0  0.10862  0.26211  0.79246  1.0000
  H   H292      1.0  0.09824  0.26991  0.82824  1.0000
  H   H293      1.0  0.10792  0.20363  0.85466  1.0000
  H   H294      1.0  0.11919  0.19585  0.81888  1.0000
  H   H295      1.0  0.05759  0.05138  0.54493  1.0000
  H   H296      1.0  0.99364  0.48736  0.85734  1.0000
  C   C185      1.0  0.17924  0.03159  0.64164  1.0000
  H   H297      1.0  0.02751  0.30582  0.97892  1.0000
  H   H298      1.0  0.19042  0.01661  0.61382  1.0000
  C   C186      1.0  0.05412  0.47679  0.79975  1.0000
  N   N8        1.0  0.15586  0.03356  0.64488  1.0000
  H   H299      1.0  0.14320  0.03756  0.49622  1.0000
  H   H300      1.0  0.17150  0.00190  0.81511  1.0000
  H   H301      1.0  0.18173  0.99324  0.79051  1.0000
  C   C187      1.0  0.11832  0.47470  0.89631  1.0000
  C   C188      1.0  0.05973  0.45300  0.89461  1.0000
  H   H302      1.0  0.02676  0.05063  0.49299  1.0000
  H   H303      1.0  0.99302  0.35509  0.82143  1.0000
  H   H304      1.0  0.07754  0.04915  0.55935  1.0000
  H   H305      1.0  0.00958  0.31861  0.81129  1.0000
  H   H306      1.0  0.08628  0.13972  0.76150  1.0000
  H   H307      1.0  0.13492  0.16923  0.52168  1.0000
  H   H308      1.0  0.03290  0.45425  0.88251  1.0000
  H   H309      1.0  0.05714  0.03427  0.57045  1.0000
  H   H310      1.0  0.14557  0.32786  0.83181  1.0000
  H   H311      1.0  0.11496  0.05864  0.65262  1.0000
  H   H312      1.0  0.01642  0.24144  0.95779  1.0000
  H   H313      1.0  0.12395  0.48068  0.90741  1.0000
  H   H314      1.0  0.15900  0.23794  0.78619  1.0000
  H   H315      1.0  0.17434  0.28225  0.53200  1.0000
  H   H316      1.0  0.18017  0.46163  0.89303  1.0000
  H   H317      1.0  0.13028  0.40743  0.91215  1.0000
  S   S55       1.0  0.16924  0.48918  0.76302  1.0000
  S   S56       1.0  0.15137  0.43350  0.78441  1.0000
  Fe  Fe26      1.0  0.05818  0.13135  0.51756  1.0000
  H   H318      1.0  0.18691  0.23359  0.78436  1.0000
  C   C189      1.0  0.99785  0.32512  0.84282  1.0000
  H   H319      1.0  0.09062  0.01218  0.55677  1.0000
  H   H320      1.0  0.15497  0.17033  0.49877  1.0000
  C   C190      1.0  0.18456  0.35025  0.77247  1.0000
  H   H321      1.0  0.05808  0.40816  0.75723  1.0000
  C   C191      1.0  0.03350  0.29241  0.97072  1.0000
  H   H322      1.0  0.16653  0.24634  0.54038  1.0000
  H   H323      1.0  0.12539  0.00438  0.61650  1.0000
  C   C192      1.0  0.16868  0.30460  0.58512  1.0000
  C   C193      1.0  0.15770  0.11668  0.56003  1.0000
  H   H324      1.0  0.12206  0.14330  0.74144  1.0000
  H   H325      1.0  0.02007  0.32333  0.92306  1.0000
  H   H326      1.0  0.12348  0.36420  0.93117  1.0000
  N   N9        1.0  0.11087  0.01357  0.51414  1.0000
  C   C194      1.0  0.13402  0.11939  0.49248  1.0000
  C   C195      1.0  0.10707  0.43989  0.74460  1.0000
  H   H327      1.0  0.18579  0.19495  0.64459  1.0000
  H   H328      1.0  0.13358  0.27800  0.92872  1.0000
  C   C196      1.0  0.15967  0.13921  0.54723  1.0000
  H   H329      1.0  0.14410  0.05226  0.71127  1.0000
  C   C197      1.0  0.10848  0.36516  0.97745  1.0000
  C   C198      1.0  0.02236  0.45754  0.91574  1.0000
  H   H330      1.0  0.13364  0.28304  0.95386  1.0000
  H   H331      1.0  0.14645  0.10575  0.66601  1.0000
  C   C199      1.0  0.06320  0.42127  0.76059  1.0000
  H   H332      1.0  0.10066  0.04299  0.52519  1.0000
  H   H333      1.0  0.06393  0.28953  0.97643  1.0000
  H   H334      1.0  0.00723  0.47848  0.94803  1.0000
  H   H335      1.0  0.17366  0.13260  0.73990  1.0000
  S   S57       1.0  0.03209  0.07817  0.57751  1.0000
  Fe  Fe27      1.0  0.06036  0.09398  0.49837  1.0000
  C   C200      1.0  0.08450  0.45045  0.82166  1.0000
  H   H336      1.0  0.15091  0.02479  0.71003  1.0000
  C   C201      1.0  0.18696  0.26870  0.53144  1.0000
  H   H337      1.0  0.02820  0.45007  0.93055  1.0000
  H   H338      1.0  0.14162  0.11429  0.56151  1.0000
  C   C202      1.0  0.09302  0.39335  0.91887  1.0000
  C   C203      1.0  0.09667  0.37225  0.89198  1.0000
  C   C204      1.0  0.08442  0.39027  0.87748  1.0000
  C   C205      1.0  0.07313  0.38520  0.93207  1.0000
  C   C206      1.0  0.05997  0.39981  0.94678  1.0000
  C   C207      1.0  0.07048  0.38205  0.86804  1.0000
  H   H339      1.0  0.10655  0.35006  0.92767  1.0000
  H   H340      1.0  0.10111  0.39613  0.93016  1.0000
  H   H341      1.0  0.08800  0.40929  0.90951  1.0000
  H   H342      1.0  0.08586  0.36193  0.90217  1.0000
  H   H343      1.0  0.07427  0.40261  0.88584  1.0000
  H   H344      1.0  0.06304  0.38406  0.92183  1.0000
  H   H345      1.0  0.07741  0.36946  0.94190  1.0000
  H   H346      1.0  0.17754  0.11523  0.58169  1.0000
  H   H347      1.0  0.19237  0.20251  0.86886  1.0000
  C   C208      1.0  0.13152  0.00818  0.64562  1.0000
  H   H348      1.0  0.05796  0.37593  0.88061  1.0000
  H   H349      1.0  0.07974  0.36931  0.85966  1.0000
  N   N10       1.0  0.17885  0.31990  0.59009  1.0000
  H   H350      1.0  0.12790  0.24712  0.97139  1.0000
  C   C209      1.0  0.16697  0.32717  0.61019  1.0000
  C   C210      1.0  0.14608  0.31295  0.58150  1.0000
  C   C211      1.0  0.14920  0.34704  0.60831  1.0000
  C   C212      1.0  0.13563  0.34970  0.62976  1.0000
  C   C213      1.0  0.13897  0.29742  0.57298  1.0000
  H   H351      1.0  0.01905  0.05208  0.55659  1.0000
  H   H352      1.0  0.16576  0.34827  0.56955  1.0000
  H   H353      1.0  0.16040  0.31408  0.62160  1.0000
  H   H354      1.0  0.17781  0.33129  0.61794  1.0000
  H   H355      1.0  0.14455  0.32813  0.57008  1.0000
  H   H356      1.0  0.13529  0.31485  0.59672  1.0000
  H   H357      1.0  0.15611  0.36133  0.60147  1.0000
  H   H358      1.0  0.13878  0.34661  0.59819  1.0000
  H   H359      1.0  0.14513  0.35200  0.63997  1.0000
  H   H360      1.0  0.14135  0.10260  0.49737  1.0000
  H   H361      1.0  0.12853  0.33567  0.63733  1.0000
  H   H362      1.0  0.14167  0.28138  0.58290  1.0000
  H   H363      1.0  0.18722  0.04484  0.60763  1.0000
  C   C214      1.0  0.13850  0.46646  0.95421  1.0000
  H   H364      1.0  0.16556  0.48384  0.84136  1.0000
  H   H365      1.0  0.07075  0.44565  0.88186  1.0000
  C   C215      1.0  0.18888  0.07439  0.80550  1.0000
  N   N11       1.0  0.99996  0.45542  0.91883  1.0000
  H   H366      1.0  0.18143  0.20887  0.81758  1.0000
  H   H367      1.0  0.12069  0.09482  0.63455  1.0000
  S   S58       1.0  0.14959  0.46187  0.81826  1.0000
  C   C216      1.0  0.19213  0.03040  0.61908  1.0000
  H   H368      1.0  0.17849  0.29811  0.57126  1.0000
  H   H369      1.0  0.14123  0.06232  0.67405  1.0000
  H   H370      1.0  0.06910  0.40113  0.95786  1.0000
  S   S59       1.0  0.18082  0.26907  0.67263  1.0000
  H   H371      1.0  0.01331  0.32739  0.84381  1.0000
  H   H372      1.0  0.12172  0.99905  0.54324  1.0000
  H   H373      1.0  0.13226  0.02122  0.52898  1.0000
  C   C217      1.0  0.17585  0.00730  0.79783  1.0000
  H   H374      1.0  0.00003  0.07455  0.61433  1.0000
  H   H375      1.0  0.10603  0.11793  0.77029  1.0000
  H   H376      1.0  0.17094  0.00529  0.52499  1.0000
  H   H377      1.0  0.12801  0.47204  0.86325  1.0000
  C   C218      1.0  0.07536  0.47478  0.79030  1.0000
  Fe  Fe28      1.0  0.03875  0.09457  0.54364  1.0000
  N   N12       1.0  0.11795  0.15211  0.69831  1.0000
  C   C219      1.0  0.10562  0.15902  0.68104  1.0000
  C   C220      1.0  0.10362  0.14362  0.71827  1.0000
  C   C221      1.0  0.12529  0.17001  0.70232  1.0000
  C   C222      1.0  0.13682  0.18389  0.68306  1.0000
  C   C223      1.0  0.08622  0.17703  0.68401  1.0000
  C   C224      1.0  0.14056  0.20298  0.68905  1.0000
  C   C225      1.0  0.07675  0.18453  0.66432  1.0000
  H   H378      1.0  0.10013  0.14538  0.67914  1.0000
  H   H379      1.0  0.11547  0.16425  0.66562  1.0000
  H   H380      1.0  0.09592  0.13199  0.71540  1.0000
  H   H381      1.0  0.09075  0.15645  0.72346  1.0000
  H   H382      1.0  0.11191  0.18060  0.71044  1.0000
  H   H383      1.0  0.12787  0.18993  0.67031  1.0000
  H   H384      1.0  0.15235  0.17479  0.67713  1.0000
  H   H385      1.0  0.07391  0.17155  0.69728  1.0000
  H   H386      1.0  0.09035  0.19082  0.68708  1.0000
  H   H387      1.0  0.12551  0.21305  0.69500  1.0000
  H   H388      1.0  0.15028  0.19785  0.70123  1.0000
  H   H389      1.0  0.14898  0.21259  0.67500  1.0000
  H   H390      1.0  0.07216  0.17132  0.66054  1.0000
  H   H391      1.0  0.06262  0.19706  0.66696  1.0000
  H   H392      1.0  0.08813  0.19115  0.65066  1.0000
  C   C226      1.0  0.11409  0.13268  0.73746  1.0000
  N   N13       1.0  0.08503  0.24961  0.96923  1.0000
  C   C227      1.0  0.09066  0.22996  0.96031  1.0000
  H   H393      1.0  0.15434  0.26482  0.88130  1.0000
  C   C228      1.0  0.06337  0.26100  0.96607  1.0000
  C   C229      1.0  0.10003  0.26421  0.95826  1.0000
  C   C230      1.0  0.12365  0.25411  0.95583  1.0000
  C   C231      1.0  0.09191  0.23356  0.93629  1.0000
  H   H394      1.0  0.07007  0.01261  0.54413  1.0000
  C   C232      1.0  0.16150  0.11341  0.58224  1.0000
  H   H395      1.0  0.00703  0.36603  0.84583  1.0000
  C   C233      1.0  0.13695  0.27062  0.94461  1.0000
  C   C234      1.0  0.10029  0.21288  0.92855  1.0000
  H   H396      1.0  0.07883  0.21992  0.96786  1.0000
  H   H397      1.0  0.10563  0.22005  0.96422  1.0000
  C   C235      1.0  0.16203  0.34143  0.84754  1.0000
  C   C236      1.0  0.15615  0.23151  0.88243  1.0000
  H   H398      1.0  0.05248  0.24987  0.97026  1.0000
  H   H399      1.0  0.06367  0.26799  0.94912  1.0000
  H   H400      1.0  0.09700  0.27239  0.94236  1.0000
  H   H401      1.0  0.09743  0.27703  0.96693  1.0000
  H   H402      1.0  0.12807  0.24168  0.94644  1.0000
  C   C237      1.0  0.12198  0.45518  0.73934  1.0000
  H   H403      1.0  0.07611  0.24008  0.93261  1.0000
  H   H404      1.0  0.10227  0.24462  0.92709  1.0000
  C   C238      1.0  0.14689  0.13390  0.49535  1.0000
  H   H405      1.0  0.12114  0.44315  0.95527  1.0000
  H   H406      1.0  0.03278  0.44084  0.75793  1.0000
  C   C239      1.0  0.04371  0.43642  0.76892  1.0000
  C   C240      1.0  0.14535  0.25225  0.88951  1.0000
  H   H407      1.0  0.00890  0.01775  0.64494  1.0000
  C   C241      1.0  0.16147  0.07867  0.74107  1.0000
  C   C242      1.0  0.00969  0.37699  0.88222  1.0000
  H   H408      1.0  0.15380  0.26319  0.94300  1.0000
  Fe  Fe29      1.0  0.17729  0.37813  0.94963  1.0000
  H   H409      1.0  0.09006  0.20138  0.93682  1.0000
  H   H410      1.0  0.10058  0.21580  0.91146  1.0000
  H   H411      1.0  0.11646  0.20607  0.93110  1.0000
  H   H412      1.0  0.15299  0.02198  0.61855  1.0000
  C   C243      1.0  0.15897  0.10698  0.75871  1.0000
  H   H413      1.0  0.04509  0.01605  0.51240  1.0000
  C   C244      1.0  0.00689  0.02692  0.50075  1.0000
  H   H414      1.0  0.16596  0.12965  0.67179  1.0000
  H   H415      1.0  0.12727  0.48457  0.78027  1.0000
  C   C245      1.0  0.00194  0.31092  0.82707  1.0000
  C   C246      1.0  0.01809  0.04126  0.50704  1.0000
  H   H416      1.0  0.18768  0.23639  0.65094  1.0000
  H   H417      1.0  0.00156  0.22578  0.97962  1.0000
  S   S60       1.0  0.19202  0.29972  0.70940  1.0000
  H   H418      1.0  0.11705  0.44387  0.89235  1.0000
  C   C247      1.0  0.03387  0.02818  0.52045  1.0000
  S   S61       1.0  0.02590  0.12929  0.53651  1.0000
  H   H419      1.0  0.17487  0.08139  0.79837  1.0000
  C   C248      1.0  0.15803  0.23400  0.85847  1.0000
  H   H420      1.0  0.02047  0.99806  0.57948  1.0000
  S   S62       1.0  0.99873  0.40918  0.78534  1.0000
  C   C249      1.0  0.15475  0.08743  0.75914  1.0000
  C   C250      1.0  0.14712  0.05527  0.63359  1.0000
  H   H421      1.0  0.14927  0.31256  0.85741  1.0000
  H   H422      1.0  0.16178  0.01674  0.79171  1.0000
  H   H423      1.0  0.04278  0.03866  0.52326  1.0000
  H   H424      1.0  0.99882  0.45605  0.88663  1.0000
  S   S63       1.0  0.99333  0.47172  0.77067  1.0000
  H   H425      1.0  0.19073  0.25159  0.59205  1.0000
  S   S64       1.0  0.02895  0.08809  0.51684  1.0000
  H   H426      1.0  0.15790  0.06374  0.74128  1.0000
  H   H427      1.0  0.15233  0.06745  0.63854  1.0000
  H   H428      1.0  0.09951  0.37165  0.96476  1.0000
  H   H429      1.0  0.14865  0.15208  0.66147  1.0000
  C   C251      1.0  0.00324  0.32538  0.92761  1.0000
  H   H430      1.0  0.07081  0.42987  0.74544  1.0000
  N   N14       1.0  0.16938  0.21495  0.84910  1.0000
  C   C252      1.0  0.14586  0.32876  0.84803  1.0000
  H   H431      1.0  0.08265  0.03768  0.51299  1.0000
  H   H432      1.0  0.15072  0.15677  0.87953  1.0000
  H   H433      1.0  0.15466  0.01415  0.67601  1.0000
  H   H434      1.0  0.13150  0.33805  0.89682  1.0000
  H   H435      1.0  0.12290  0.36379  0.62786  1.0000
  H   H436      1.0  0.14733  0.13242  0.70366  1.0000
  N   N15       1.0  0.10042  0.40388  0.76834  1.0000
  C   C253      1.0  0.10364  0.39382  0.74972  1.0000
  C   C254      1.0  0.11288  0.42109  0.76237  1.0000
  C   C255      1.0  0.10931  0.38711  0.78535  1.0000
  C   C256      1.0  0.07769  0.41237  0.77683  1.0000
  H   H437      1.0  0.10122  0.48043  0.89788  1.0000
  C   C257      1.0  0.09462  0.37357  0.75440  1.0000
  C   C258      1.0  0.10952  0.39429  0.80549  1.0000
  H   H438      1.0  0.10789  0.43467  0.72998  1.0000
  C   C259      1.0  0.09282  0.36809  0.73428  1.0000
  C   C260      1.0  0.11707  0.37546  0.82193  1.0000
  H   H439      1.0  0.12061  0.38939  0.74309  1.0000
  H   H440      1.0  0.09725  0.40501  0.73657  1.0000
  H   H441      1.0  0.11101  0.42841  0.77600  1.0000
  H   H442      1.0  0.12985  0.41430  0.75797  1.0000
  H   H443      1.0  0.12566  0.37956  0.77900  1.0000
  H   H444      1.0  0.10023  0.37430  0.79080  1.0000
  H   H445      1.0  0.07041  0.39993  0.78866  1.0000
  H   H446      1.0  0.07639  0.42473  0.78578  1.0000
  C   C261      1.0  0.15204  0.01665  0.63582  1.0000
  H   H447      1.0  0.01160  0.13886  0.60320  1.0000
  H   H448      1.0  0.10514  0.35999  0.76233  1.0000
  H   H449      1.0  0.07898  0.37528  0.76487  1.0000
  H   H450      1.0  0.09369  0.40229  0.81243  1.0000
  H   H451      1.0  0.12055  0.40505  0.80212  1.0000
  H   H452      1.0  0.13191  0.13370  0.52791  1.0000
  H   H453      1.0  0.08177  0.38081  0.72611  1.0000
  H   H454      1.0  0.10838  0.36578  0.72359  1.0000
  H   H455      1.0  0.08681  0.35329  0.73827  1.0000
  H   H456      1.0  0.13278  0.36701  0.81525  1.0000
  H   H457      1.0  0.11818  0.38097  0.83578  1.0000
  H   H458      1.0  0.10604  0.36445  0.82708  1.0000
  H   H459      1.0  0.15629  0.39199  0.73184  1.0000
  N   N16       1.0  0.12692  0.28580  0.73339  1.0000
  C   C262      1.0  0.14192  0.27143  0.71966  1.0000
  C   C263      1.0  0.12302  0.30818  0.72109  1.0000
  C   C264      1.0  0.13729  0.28557  0.75101  1.0000
  C   C265      1.0  0.10663  0.27837  0.74328  1.0000
  C   C266      1.0  0.09436  0.27487  0.72829  1.0000
  C   C267      1.0  0.14625  0.24770  0.73002  1.0000
  C   C268      1.0  0.12632  0.30230  0.76483  1.0000
  C   C269      1.0  0.12081  0.31154  0.69799  1.0000
  C   C270      1.0  0.11157  0.33455  0.68962  1.0000
  C   C271      1.0  0.07772  0.26196  0.74042  1.0000
  C   C272      1.0  0.16152  0.23446  0.71503  1.0000
  C   C273      1.0  0.13730  0.29964  0.78291  1.0000
  H   H460      1.0  0.15717  0.27661  0.71397  1.0000
  H   H461      1.0  0.13643  0.27238  0.70517  1.0000
  H   H462      1.0  0.10886  0.31762  0.72956  1.0000
  H   H463      1.0  0.13621  0.31592  0.72008  1.0000
  H   H464      1.0  0.15364  0.28800  0.74455  1.0000
  H   H465      1.0  0.13856  0.26993  0.76188  1.0000
  H   H466      1.0  0.10939  0.26354  0.75508  1.0000
  H   H467      1.0  0.09556  0.28970  0.75246  1.0000
  H   H468      1.0  0.10457  0.26637  0.71608  1.0000
  H   H469      1.0  0.08606  0.29029  0.72064  1.0000
  H   H470      1.0  0.15310  0.24497  0.74406  1.0000
  H   H471      1.0  0.13158  0.24160  0.73453  1.0000
  H   H472      1.0  0.10984  0.30106  0.77187  1.0000
  H   H473      1.0  0.12655  0.31851  0.75547  1.0000
  H   H474      1.0  0.13647  0.30735  0.68803  1.0000
  H   H475      1.0  0.11087  0.30173  0.69591  1.0000
  H   H476      1.0  0.09557  0.33921  0.69878  1.0000
  H   H477      1.0  0.12156  0.34505  0.69056  1.0000
  H   H478      1.0  0.11053  0.33667  0.67298  1.0000
  H   H479      1.0  0.08518  0.24600  0.74796  1.0000
  H   H480      1.0  0.06672  0.26992  0.75275  1.0000
  H   H481      1.0  0.06870  0.26017  0.72948  1.0000
  H   H482      1.0  0.17716  0.23857  0.71110  1.0000
  H   H483      1.0  0.16327  0.21754  0.72261  1.0000
  H   H484      1.0  0.15575  0.23681  0.70035  1.0000
  H   H485      1.0  0.12950  0.31222  0.79198  1.0000
  C   C274      1.0  0.15216  0.16616  0.51623  1.0000
  H   H486      1.0  0.15394  0.30089  0.77679  1.0000
  C   C275      1.0  0.15602  0.40631  0.88596  1.0000
  Fe  Fe30      1.0  0.13624  0.43488  0.81802  1.0000
  H   H487      1.0  0.05886  0.47027  0.89000  1.0000
  H   H488      1.0  0.13623  0.16392  0.71340  1.0000
  H   H489      1.0  0.18285  0.04520  0.64569  1.0000
  N   N17       1.0  0.10793  0.37914  0.90500  1.0000
  Fe  Fe31      1.0  0.16741  0.45854  0.78597  1.0000
  H   H490      1.0  0.12757  0.12806  0.65584  1.0000
  H   H491      1.0  0.13543  0.31703  0.93187  1.0000
  H   H492      1.0  0.09563  0.39763  0.86437  1.0000
  H   H493      1.0  0.15841  0.17987  0.54033  1.0000
  C   C276      1.0  0.16561  0.17662  0.85152  1.0000
  H   H494      1.0  0.12495  0.35906  0.97034  1.0000
  C   C277      1.0  0.00823  0.05328  0.57133  1.0000
  H   H495      1.0  0.17312  0.14361  0.55065  1.0000
  H   H496      1.0  0.00207  0.11459  0.61246  1.0000
  H   H497      1.0  0.11326  0.44626  0.91926  1.0000
  H   H498      1.0  0.02568  0.02041  0.53590  1.0000
  H   H499      1.0  0.14285  0.32251  0.97575  1.0000
  C   C278      1.0  0.17663  0.34384  0.75817  1.0000
  C   C279      1.0  0.09395  0.17394  0.53892  1.0000
  H   H500      1.0  0.16461  0.00233  0.63777  1.0000
  C   C280      1.0  0.06748  0.04037  0.55558  1.0000
  Fe  Fe32      1.0  0.17628  0.43821  0.82924  1.0000
  C   C281      1.0  0.17414  0.43576  0.94488  1.0000
  H   H501      1.0  0.13091  0.11895  0.69798  1.0000
  H   H502      1.0  0.13630  0.28418  0.79370  1.0000
  H   H503      1.0  0.17035  0.04875  0.79736  1.0000
  C   C282      1.0  0.18533  0.04010  0.80230  1.0000
  H   H504      1.0  0.15524  0.21625  0.52058  1.0000
  H   H505      1.0  0.12111  0.46170  0.75327  1.0000
  C   C283      1.0  0.17168  0.38670  0.75776  1.0000
  H   H506      1.0  0.00105  0.34691  0.86886  1.0000
  H   H507      1.0  0.08478  0.00062  0.51317  1.0000
  C   C284      1.0  0.17020  0.11758  0.74035  1.0000
  H   H508      1.0  0.01231  0.36195  0.89379  1.0000
  C   C285      1.0  0.13611  0.13432  0.69348  1.0000
  H   H509      1.0  0.15386  0.21549  0.82420  1.0000
  S   S65       1.0  0.00523  0.30338  0.89736  1.0000
  H   H510      1.0  0.16065  0.34388  0.86355  1.0000
  C   C286      1.0  0.12219  0.45083  0.90307  1.0000
  C   C287      1.0  0.14729  0.03014  0.66830  1.0000
  C   C288      1.0  0.18378  0.13902  0.51233  1.0000
  C   C289      1.0  0.14826  0.13036  0.51875  1.0000
  C   C290      1.0  0.99964  0.43218  0.92387  1.0000
  H   H511      1.0  0.17022  0.40326  0.75712  1.0000
  C   C291      1.0  0.17220  0.08961  0.72256  1.0000
  H   H512      1.0  0.06598  0.44684  0.90925  1.0000
  H   H513      1.0  0.15152  0.33373  0.93444  1.0000
  H   H514      1.0  0.14420  0.25005  0.90667  1.0000
  H   H515      1.0  0.14185  0.23883  0.85541  1.0000
  H   H516      1.0  0.12462  0.47812  0.95808  1.0000
  C   C292      1.0  0.14198  0.04041  0.70346  1.0000
  H   H517      1.0  0.00813  0.42393  0.93687  1.0000
  C   C293      1.0  0.11812  0.35984  0.91879  1.0000
  H   H518      1.0  0.13514  0.16782  0.85946  1.0000
  H   H519      1.0  0.18416  0.31948  0.82902  1.0000
  S   S66       1.0  0.07592  0.15633  0.51694  1.0000
  H   H520      1.0  0.02375  0.37781  0.86942  1.0000
  C   C294      1.0  0.09799  0.12585  0.75698  1.0000
  H   H521      1.0  0.08992  0.11459  0.75414  1.0000
  H   H522      1.0  0.13006  0.33662  0.85524  1.0000
  H   H523      1.0  0.10881  0.18783  0.55560  1.0000
  H   H524      1.0  0.09401  0.18693  0.52553  1.0000
  C   C295      1.0  0.01137  0.06472  0.58466  1.0000
  Fe  Fe33      1.0  0.18570  0.29895  0.67832  1.0000
  C   C296      1.0  0.16872  0.09216  0.83580  1.0000
  H   H525      1.0  0.04790  0.45092  0.77038  1.0000
  S   S67       1.0  0.00460  0.44771  0.81691  1.0000
  C   C297      1.0  0.18257  0.24841  0.53606  1.0000
  H   H526      1.0  0.10790  0.36219  0.88153  1.0000
  C   C298      1.0  0.09052  0.46152  0.80123  1.0000
  C   C299      1.0  0.13673  0.34516  0.90733  1.0000
  C   C300      1.0  0.19173  0.20802  0.85192  1.0000
  H   H527      1.0  0.16878  0.10421  0.55253  1.0000
  H   H528      1.0  0.11517  0.39471  0.97774  1.0000
  C   C301      1.0  0.14664  0.32733  0.92312  1.0000
  H   H529      1.0  0.06309  0.39506  0.85661  1.0000
  H   H530      1.0  0.03570  0.42891  0.78449  1.0000
  C   C302      1.0  0.09392  0.03005  0.52362  1.0000
  S   S68       1.0  0.17865  0.08019  0.69922  1.0000
  C   C303      1.0  0.03814  0.44793  0.89768  1.0000
  H   H531      1.0  0.10685  0.45969  0.79383  1.0000
  H   H532      1.0  0.08007  0.48314  0.77442  1.0000
  H   H533      1.0  0.17178  0.22671  0.88663  1.0000
  S   S69       1.0  0.18226  0.44270  0.85916  1.0000
  H   H534      1.0  0.11783  0.12249  0.50187  1.0000
  Fe  Fe34      1.0  0.00609  0.47891  0.79524  1.0000
  C   C304      1.0  0.16832  0.21936  0.82606  1.0000
  H   H535      1.0  0.15356  0.05718  0.61643  1.0000
  C   C305      1.0  0.12404  0.39106  0.89060  1.0000
  H   H536      1.0  0.11634  0.40632  0.88188  1.0000
  H   H537      1.0  0.09893  0.08858  0.62808  1.0000
  H   H538      1.0  0.15237  0.25231  0.81830  1.0000
  H   H539      1.0  0.16665  0.04719  0.67753  1.0000
  C   C306      1.0  0.15824  0.19706  0.86056  1.0000
  H   H540      1.0  0.15969  0.09733  0.59101  1.0000
  H   H541      1.0  0.17843  0.32727  0.75847  1.0000
  H   H542      1.0  0.01961  0.11935  0.58720  1.0000
  C   C307      1.0  0.08079  0.02207  0.54558  1.0000
  C   C308      1.0  0.14930  0.13589  0.67069  1.0000
  H   H543      1.0  0.16540  0.24777  0.85074  1.0000
  Fe  Fe35      1.0  0.18850  0.16994  0.78904  1.0000
  N   N18       1.0  0.16124  0.14319  0.52370  1.0000
  H   H544      1.0  0.15774  0.35740  0.83789  1.0000
  C   C309      1.0  0.16792  0.24234  0.81352  1.0000
  H   H545      1.0  0.02122  0.28300  0.97433  1.0000
  H   H546      1.0  0.14925  0.35360  0.89784  1.0000
  H   H547      1.0  0.00722  0.39023  0.89025  1.0000
  H   H548      1.0  0.12572  0.11831  0.73426  1.0000
  C   C310      1.0  0.13904  0.39632  0.90177  1.0000
  H   H549      1.0  0.13347  0.38241  0.87805  1.0000
  H   H550      1.0  0.18129  0.03410  0.81952  1.0000
  H   H551      1.0  0.14712  0.38229  0.91155  1.0000
  C   C311      1.0  0.17683  0.10886  0.72233  1.0000
  H   H552      1.0  0.04390  0.99933  0.60206  1.0000
  H   H553      1.0  0.16560  0.41110  0.89447  1.0000
  H   H554      1.0  0.15400  0.11326  0.52387  1.0000
  H   H555      1.0  0.15433  0.09723  0.82914  1.0000
  H   H556      1.0  0.14897  0.42044  0.87539  1.0000
  C   C312      1.0  0.00644  0.24125  0.97373  1.0000
  H   H557      1.0  0.13835  0.44718  0.73401  1.0000
  H   H558      1.0  0.09115  0.44891  0.74978  1.0000
  H   H559      1.0  0.16641  0.39494  0.87650  1.0000
  H   H560      1.0  0.15441  0.12403  0.64227  1.0000
  C   C313      1.0  0.14393  0.12261  0.65805  1.0000
  H   H561      1.0  0.18520  0.11722  0.70806  1.0000
  H   H562      1.0  0.18160  0.16867  0.85397  1.0000
  H   H563      1.0  0.16007  0.19209  0.87720  1.0000
  H   H564      1.0  0.14718  0.47627  0.87433  1.0000
  H   H565      1.0  0.17161  0.25995  0.78129  1.0000
  H   H566      1.0  0.17420  0.31033  0.87715  1.0000
  C   C314      1.0  0.18115  0.33873  0.57232  1.0000
  H   H567      1.0  0.16576  0.17986  0.83450  1.0000
  H   H568      1.0  0.14115  0.20244  0.86116  1.0000
  H   H569      1.0  0.18496  0.14422  0.49504  1.0000
  Fe  Fe36      1.0  0.17807  0.41135  0.79780  1.0000
  C   C315      1.0  0.11889  0.02340  0.49156  1.0000
  H   H570      1.0  0.12926  0.25733  0.88629  1.0000
  C   C316      1.0  0.15122  0.16101  0.86234  1.0000
  H   H571      1.0  0.14608  0.07919  0.77335  1.0000
  H   H572      1.0  0.15715  0.14644  0.85585  1.0000
  Fe  Fe37      1.0  0.18682  0.17705  0.74293  1.0000
  H   H573      1.0  0.15005  0.12494  0.59088  1.0000
  C   C317      1.0  0.12310  0.06134  0.63593  1.0000
  S   S70       1.0  0.03518  0.49244  0.78556  1.0000
  C   C318      1.0  0.13652  0.44662  0.95264  1.0000
  S   S71       1.0  0.15066  0.40621  0.94703  1.0000
  H   H574      1.0  0.00674  0.05226  0.51637  1.0000
  H   H575      1.0  0.18033  0.36417  0.53242  1.0000
  C   C319      1.0  0.15428  0.43110  0.94819  1.0000
  C   C320      1.0  0.15827  0.47120  0.95104  1.0000
  H   H576      1.0  0.00797  0.42483  0.91014  1.0000
  S   S72       1.0  0.18127  0.29945  0.95445  1.0000
  H   H577      1.0  0.01252  0.29588  0.83230  1.0000
  H   H578      1.0  0.18590  0.01735  0.65246  1.0000
  C   C321      1.0  0.16130  0.29137  0.97498  1.0000
  S   S73       1.0  0.17342  0.35158  0.97761  1.0000
  H   H579      1.0  0.17157  0.05965  0.83616  1.0000
  C   C322      1.0  0.17159  0.24347  0.78990  1.0000
  H   H580      1.0  0.18879  0.34946  0.57671  1.0000
  H   H581      1.0  0.16069  0.31776  0.91484  1.0000
  C   C323      1.0  0.18159  0.07153  0.82969  1.0000
  C   C324      1.0  0.11620  0.08463  0.62639  1.0000
  S   S74       1.0  0.18206  0.19901  0.76462  1.0000
  H   H582      1.0  0.16409  0.08998  0.85317  1.0000
  C   C325      1.0  0.17616  0.45587  0.94613  1.0000
  H   H583      1.0  0.11790  0.05214  0.62730  1.0000
  C   C326      1.0  0.12767  0.00712  0.52697  1.0000
  C   C327      1.0  0.99744  0.06601  0.60385  1.0000
  H   H584      1.0  0.17491  0.28283  0.90904  1.0000
  H   H585      1.0  0.17797  0.10477  0.82989  1.0000
  H   H586      1.0  0.19104  0.40699  0.71316  1.0000
  H   H587      1.0  0.03706  0.29888  0.95356  1.0000
  H   H588      1.0  0.18790  0.42397  0.94126  1.0000
  H   H589      1.0  0.17577  0.25856  0.97744  1.0000
  C   C328      1.0  0.18203  0.37169  0.77235  1.0000
  C   C329      1.0  0.13032  0.48150  0.87363  1.0000
  H   H590      1.0  0.13032  0.03016  0.67206  1.0000
  H   H591      1.0  0.18814  0.10487  0.51400  1.0000
  H   H592      1.0  0.17742  0.18174  0.51607  1.0000
  C   C330      1.0  0.00485  0.00580  0.63866  1.0000
  H   H593      1.0  0.18998  0.33773  0.87934  1.0000
  C   C331      1.0  0.16251  0.26987  0.98345  1.0000
  C   C332      1.0  0.19080  0.27534  0.90172  1.0000
  Fe  Fe38      1.0  0.18848  0.33030  0.95479  1.0000
  H   H594      1.0  0.18816  0.29243  0.86044  1.0000
  H   H595      1.0  0.08090  0.32527  0.98737  1.0000
  H   H596      1.0  0.01578  0.24314  0.98430  1.0000
  C   C333      1.0  0.19009  0.30408  0.86872  1.0000
  H   H597      1.0  0.15126  0.20877  0.49817  1.0000
  S   S75       1.0  0.18883  0.35660  0.92653  1.0000
  H   H598      1.0  0.19149  0.45936  0.94369  1.0000
  H   H599      1.0  0.19115  0.20643  0.67506  1.0000
  C   C334      1.0  0.18472  0.33131  0.83783  1.0000
  H   H600      1.0  0.19081  0.34379  0.82522  1.0000
  H   H601      1.0  0.00027  0.01688  0.51563  1.0000
  H   H602      1.0  0.18415  0.36832  0.85286  1.0000
  H   H603      1.0  0.17990  0.24931  0.81632  1.0000
  H   H604      1.0  0.18499  0.32531  0.54476  1.0000
  H   H605      1.0  0.99342  0.14809  0.57327  1.0000
  H   H606      1.0  0.00854  0.01013  0.62122  1.0000
  C   C335      1.0  0.19130  0.18344  0.65749  1.0000
  H   H607      1.0  0.18957  0.26330  0.89362  1.0000
  S   S76       1.0  0.19286  0.37928  0.78989  1.0000
  S   S77       1.0  0.19240  0.15341  0.63555  1.0000
  H   H608      1.0  0.19263  0.33858  0.78366  1.0000
  H   H609      1.0  0.19275  0.14872  0.51642  1.0000
  H   H610      1.0  0.10156  0.35202  0.98829  1.0000
  H   H611      1.0  0.13903  0.15027  0.48961  1.0000
  C   C336      1.0  0.10743  0.38241  0.98904  1.0000
  H   H612      1.0  0.01345  0.51040  0.07247  1.0000
  Fe  Fe39      1.0  0.08524  0.82416  0.36065  1.0000
  S   S78       1.0  0.07386  0.79462  0.36390  1.0000
  S   S79       1.0  0.09110  0.84931  0.33201  1.0000
  Fe  Fe40      1.0  0.09152  0.81384  0.40542  1.0000
  S   S80       1.0  0.08098  0.78318  0.41310  1.0000
  S   S81       1.0  0.10490  0.82446  0.42730  1.0000
  Fe  Fe41      1.0  0.09993  0.77867  0.38129  1.0000
  S   S82       1.0  0.12381  0.74893  0.37714  1.0000
  Fe  Fe42      1.0  0.05585  0.80148  0.39534  1.0000
  C   C337      1.0  0.14161  0.85193  0.22987  1.0000
  S   S83       1.0  0.11277  0.80780  0.37528  1.0000
  S   S84       1.0  0.06480  0.83258  0.39043  1.0000
  S   S85       1.0  0.07882  0.61219  0.02031  1.0000
  C   C338      1.0  0.03282  0.53329  0.06687  1.0000
  N   N19       1.0  0.13739  0.49987  0.03441  1.0000
  Fe  Fe43      1.0  0.12160  0.69623  0.09747  1.0000
  S   S86       1.0  0.15491  0.67899  0.09325  1.0000
  S   S87       1.0  0.10038  0.67391  0.10002  1.0000
  Fe  Fe44      1.0  0.13385  0.73592  0.10160  1.0000
  S   S88       1.0  0.16788  0.72125  0.09769  1.0000
  S   S89       1.0  0.12518  0.77023  0.10409  1.0000
  Fe  Fe45      1.0  0.16245  0.70877  0.07212  1.0000
  C   C339      1.0  0.05829  0.84640  0.48355  1.0000
  Fe  Fe46      1.0  0.15711  0.69292  0.11910  1.0000
  H   H613      1.0  0.12590  0.84837  0.23682  1.0000
  S   S90       1.0  0.12897  0.72541  0.07405  1.0000
  S   S91       1.0  0.12322  0.70823  0.12540  1.0000
  Fe  Fe47      1.0  0.15510  0.64442  0.27634  1.0000
  S   S92       1.0  0.17960  0.66194  0.25610  1.0000
  S   S93       1.0  0.15569  0.61123  0.27401  1.0000
  Fe  Fe48      1.0  0.13355  0.68052  0.29914  1.0000
  S   S94       1.0  0.15650  0.70078  0.28054  1.0000
  S   S95       1.0  0.10586  0.69394  0.32203  1.0000
  Fe  Fe49      1.0  0.15330  0.68962  0.25305  1.0000
  C   C340      1.0  0.02640  0.95066  0.15829  1.0000
  Fe  Fe50      1.0  0.18056  0.67120  0.28539  1.0000
  C   C341      1.0  0.17928  0.75662  0.40845  1.0000
  S   S96       1.0  0.12836  0.67158  0.27101  1.0000
  S   S97       1.0  0.15795  0.65150  0.30638  1.0000
  C   C342      1.0  0.99575  0.56024  0.08084  1.0000
  C   C343      1.0  0.01185  0.82743  0.45617  1.0000
  H   H614      1.0  0.05173  0.53706  0.00600  1.0000
  S   S98       1.0  0.16206  0.79590  0.16988  1.0000
  C   C344      1.0  0.13176  0.49861  0.05786  1.0000
  C   C345      1.0  0.01234  0.55914  0.02158  1.0000
  H   H615      1.0  0.08542  0.51274  0.11150  1.0000
  H   H616      1.0  0.01294  0.84785  0.34551  1.0000
  H   H617      1.0  0.09698  0.50520  0.02243  1.0000
  C   C346      1.0  0.18812  0.51153  0.12498  1.0000
  S   S99       1.0  0.01135  0.93357  0.32918  1.0000
  S   S100      1.0  0.01204  0.89589  0.29305  1.0000
  S   S101      1.0  0.01749  0.95557  0.27841  1.0000
  C   C347      1.0  0.00567  0.87686  0.35620  1.0000
  C   C348      1.0  0.10895  0.95453  0.31115  1.0000
  C   C349      1.0  0.13348  0.69935  0.03073  1.0000
  H   H618      1.0  0.06477  0.93582  0.48887  1.0000
  C   C350      1.0  0.00270  0.93794  0.39694  1.0000
  C   C351      1.0  0.10857  0.71014  0.00753  1.0000
  C   C352      1.0  0.13565  0.76649  0.02129  1.0000
  H   H619      1.0  0.99504  0.88418  0.36909  1.0000
  C   C353      1.0  0.02664  0.50865  0.19398  1.0000
  H   H620      1.0  0.05890  0.72721  0.45673  1.0000
  H   H621      1.0  0.00316  0.52082  0.17533  1.0000
  H   H622      1.0  0.15262  0.96363  0.39703  1.0000
  H   H623      1.0  0.12771  0.77779  0.00911  1.0000
  C   C354      1.0  0.04494  0.50444  0.12428  1.0000
  C   C355      1.0  0.10813  0.87497  0.39277  1.0000
  H   H624      1.0  0.00146  0.89390  0.43626  1.0000
  C   C356      1.0  0.15361  0.96321  0.38042  1.0000
  Fe  Fe51      1.0  0.16093  0.93311  0.30586  1.0000
  H   H625      1.0  0.15458  0.74611  0.00092  1.0000
  H   H626      1.0  0.17981  0.97858  0.36619  1.0000
  C   C357      1.0  0.03114  0.96844  0.47817  1.0000
  C   C358      1.0  0.07836  0.83512  0.48561  1.0000
  C   C359      1.0  0.14288  0.74461  0.01590  1.0000
  H   H627      1.0  0.16726  0.85755  0.23940  1.0000
  H   H628      1.0  0.05888  0.93121  0.32472  1.0000
  C   C360      1.0  0.07260  0.52658  0.10872  1.0000
  C   C361      1.0  0.15751  0.70121  0.20088  1.0000
  C   C362      1.0  0.15327  0.71338  0.18163  1.0000
  C   C363      1.0  0.15790  0.70408  0.16409  1.0000
  C   C364      1.0  0.16755  0.68289  0.16558  1.0000
  H   H629      1.0  0.06271  0.89276  0.45217  1.0000
  H   H630      1.0  0.01110  0.84456  0.37300  1.0000
  H   H631      1.0  0.14582  0.72983  0.18044  1.0000
  H   H632      1.0  0.15415  0.71333  0.14938  1.0000
  H   H633      1.0  0.06964  0.52841  0.09276  1.0000
  H   H634      1.0  0.07496  0.98709  0.26233  1.0000
  C   C365      1.0  0.13693  0.77765  0.12112  1.0000
  C   C366      1.0  0.13222  0.79866  0.12348  1.0000
  C   C367      1.0  0.14085  0.80468  0.13754  1.0000
  C   C368      1.0  0.15388  0.78961  0.14967  1.0000
  C   C369      1.0  0.15878  0.76867  0.14713  1.0000
  C   C370      1.0  0.15061  0.76281  0.13266  1.0000
  H   H635      1.0  0.12137  0.81018  0.11489  1.0000
  H   H636      1.0  0.13656  0.82075  0.13979  1.0000
  H   H637      1.0  0.16858  0.75686  0.15669  1.0000
  H   H638      1.0  0.15437  0.74668  0.13090  1.0000
  C   C371      1.0  0.08946  0.67329  0.07894  1.0000
  C   C372      1.0  0.08798  0.65382  0.07575  1.0000
  H   H639      1.0  0.99829  0.96934  0.36067  1.0000
  C   C373      1.0  0.06964  0.67145  0.04724  1.0000
  C   C374      1.0  0.07069  0.69088  0.05080  1.0000
  C   C375      1.0  0.08089  0.69184  0.06631  1.0000
  H   H640      1.0  0.09426  0.63941  0.08571  1.0000
  H   H641      1.0  0.06335  0.70529  0.04164  1.0000
  H   H642      1.0  0.08138  0.70691  0.06905  1.0000
  C   C376      1.0  0.06852  0.86177  0.32205  1.0000
  C   C377      1.0  0.05526  0.85014  0.31921  1.0000
  C   C378      1.0  0.03833  0.86052  0.30937  1.0000
  C   C379      1.0  0.03428  0.88249  0.30320  1.0000
  C   C380      1.0  0.04759  0.89400  0.30604  1.0000
  C   C381      1.0  0.06470  0.88363  0.31533  1.0000
  H   H643      1.0  0.05840  0.83316  0.32403  1.0000
  H   H644      1.0  0.02822  0.85158  0.30689  1.0000
  H   H645      1.0  0.04490  0.91091  0.30077  1.0000
  H   H646      1.0  0.07524  0.89252  0.31693  1.0000
  C   C382      1.0  0.11851  0.73352  0.36212  1.0000
  C   C383      1.0  0.09958  0.73851  0.35534  1.0000
  C   C384      1.0  0.09578  0.72617  0.34319  1.0000
  C   C385      1.0  0.11109  0.70909  0.33727  1.0000
  C   C386      1.0  0.13004  0.70404  0.34406  1.0000
  C   C387      1.0  0.13356  0.71602  0.35679  1.0000
  H   H647      1.0  0.08774  0.75171  0.35962  1.0000
  H   H648      1.0  0.08103  0.72999  0.33813  1.0000
  H   H649      1.0  0.14176  0.69064  0.33986  1.0000
  H   H650      1.0  0.14793  0.71173  0.36253  1.0000
  C   C388      1.0  0.15016  0.85889  0.24552  1.0000
  C   C389      1.0  0.11018  0.93300  0.31873  1.0000
  Fe  Fe52      1.0  0.05318  0.64090  0.02081  1.0000
  H   H651      1.0  0.03854  0.81138  0.43675  1.0000
  C   C390      1.0  0.09209  0.92462  0.32392  1.0000
  Fe  Fe53      1.0  0.02152  0.96246  0.30800  1.0000
  C   C391      1.0  0.05237  0.85081  0.46411  1.0000
  C   C392      1.0  0.06639  0.84360  0.44683  1.0000
  C   C393      1.0  0.08661  0.83264  0.44885  1.0000
  C   C394      1.0  0.09262  0.82867  0.46817  1.0000
  H   H652      1.0  0.01986  0.52605  0.02197  1.0000
  C   C395      1.0  0.07281  0.93776  0.32090  1.0000
  H   H653      1.0  0.06165  0.84673  0.43194  1.0000
  H   H654      1.0  0.10827  0.82026  0.46973  1.0000
  S   S102      1.0  0.05673  0.56319  0.05787  1.0000
  H   H655      1.0  0.04494  0.92769  0.48198  1.0000
  C   C396      1.0  0.18002  0.57565  0.22989  1.0000
  C   C397      1.0  0.16902  0.58287  0.24826  1.0000
  C   C398      1.0  0.16838  0.60337  0.25008  1.0000
  C   C399      1.0  0.17822  0.61688  0.23308  1.0000
  H   H656      1.0  0.19256  0.86492  0.03292  1.0000
  H   H657      1.0  0.09453  0.87331  0.47989  1.0000
  H   H658      1.0  0.16102  0.57251  0.26115  1.0000
  H   H659      1.0  0.17742  0.63283  0.23410  1.0000
  H   H660      1.0  0.99575  0.92324  0.25166  1.0000
  C   C400      1.0  0.19044  0.58890  0.21317  1.0000
  S   S103      1.0  0.13426  0.91661  0.32214  1.0000
  H   H661      1.0  0.17708  0.50056  0.12980  1.0000
  C   C401      1.0  0.07124  0.72768  0.41643  1.0000
  C   C402      1.0  0.00379  0.85395  0.35955  1.0000
  C   C403      1.0  0.02631  0.49582  0.16155  1.0000
  H   H662      1.0  0.07745  0.63781  0.05733  1.0000
  C   C404      1.0  0.01001  0.81373  0.42664  1.0000
  H   H663      1.0  0.11135  0.73883  0.02713  1.0000
  C   C405      1.0  0.14013  0.88883  0.37314  1.0000
  H   H664      1.0  0.09570  0.49299  0.04983  1.0000
  H   H665      1.0  0.16948  0.50207  0.03196  1.0000
  H   H666      1.0  0.09863  0.53001  0.03745  1.0000
  H   H667      1.0  0.99568  0.93296  0.21351  1.0000
  H   H668      1.0  0.00814  0.57426  0.01062  1.0000
  H   H669      1.0  0.16432  0.74634  0.32604  1.0000
  H   H670      1.0  0.13014  0.52149  0.00619  1.0000
  C   C406      1.0  0.17410  0.59213  0.32830  1.0000
  H   H671      1.0  0.17478  0.60397  0.13889  1.0000
  C   C407      1.0  0.19148  0.56230  0.30893  1.0000
  H   H672      1.0  0.07301  0.89969  0.37260  1.0000
  C   C408      1.0  0.18863  0.78657  0.41772  1.0000
  H   H673      1.0  0.17845  0.56696  0.30027  1.0000
  C   C409      1.0  0.17285  0.93633  0.45417  1.0000
  C   C410      1.0  0.13587  0.87915  0.44346  1.0000
  Fe  Fe54      1.0  0.07150  0.61215  0.98959  1.0000
  H   H674      1.0  0.19049  0.67628  0.34114  1.0000
  H   H675      1.0  0.17410  0.54113  0.28859  1.0000
  H   H676      1.0  0.00749  0.94582  0.23913  1.0000
  S   S104      1.0  0.17665  0.86695  0.47221  1.0000
  H   H677      1.0  0.17475  0.51322  0.27061  1.0000
  H   H678      1.0  0.99453  0.75886  0.37798  1.0000
  C   C411      1.0  0.16685  0.67989  0.20241  1.0000
  C   C412      1.0  0.99526  0.53976  0.07991  1.0000
  H   H679      1.0  0.11826  0.85957  0.39763  1.0000
  H   H680      1.0  0.01901  0.49571  0.20428  1.0000
  S   S105      1.0  0.18686  0.70666  0.04269  1.0000
  H   H681      1.0  0.00158  0.93093  0.46178  1.0000
  H   H682      1.0  0.16019  0.59541  0.32110  1.0000
  H   H683      1.0  0.17154  0.58107  0.34369  1.0000
  H   H684      1.0  0.00666  0.54238  0.00145  1.0000
  H   H685      1.0  0.17178  0.86418  0.34918  1.0000
  C   C413      1.0  0.13388  0.51306  0.08870  1.0000
  C   C414      1.0  0.14459  0.50944  0.06660  1.0000
  C   C415      1.0  0.18617  0.97242  0.42825  1.0000
  C   C416      1.0  0.01903  0.54094  0.00998  1.0000
  H   H686      1.0  0.10803  0.98965  0.48308  1.0000
  S   S106      1.0  0.16885  0.89056  0.18928  1.0000
  C   C417      1.0  0.00514  0.96125  0.39213  1.0000
  H   H687      1.0  0.18979  0.72707  0.28805  1.0000
  H   H688      1.0  0.09014  0.90876  0.48760  1.0000
  C   C418      1.0  0.03442  0.76494  0.46377  1.0000
  C   C419      1.0  0.18923  0.60965  0.21467  1.0000
  C   C420      1.0  0.12436  0.73646  0.01334  1.0000
  H   H689      1.0  0.02580  0.96046  0.36127  1.0000
  H   H690      1.0  0.11878  0.52443  0.08828  1.0000
  H   H691      1.0  0.18874  0.85466  0.36794  1.0000
  H   H692      1.0  0.05393  0.50155  0.00434  1.0000
  N   N20       1.0  0.17143  0.77810  0.41397  1.0000
  Fe  Fe55      1.0  0.18339  0.86324  0.17305  1.0000
  C   C421      1.0  0.02628  0.92432  0.42213  1.0000
  H   H693      1.0  0.16978  0.67035  0.21723  1.0000
  H   H694      1.0  0.11019  0.69348  0.00664  1.0000
  H   H695      1.0  0.06829  0.90702  0.42550  1.0000
  H   H696      1.0  0.15152  0.88324  0.43675  1.0000
  H   H697      1.0  0.03834  0.89016  0.43149  1.0000
  C   C422      1.0  0.18953  0.53265  0.28138  1.0000
  H   H698      1.0  0.00823  0.52281  0.11616  1.0000
  H   H699      1.0  0.15200  0.85544  0.38618  1.0000
  H   H700      1.0  0.17133  0.68710  0.00476  1.0000
  C   C423      1.0  0.09946  0.87264  0.37419  1.0000
  H   H701      1.0  0.05703  0.52154  0.14089  1.0000
  C   C424      1.0  0.14577  0.71028  0.99168  1.0000
  H   H702      1.0  0.14957  0.83073  0.36776  1.0000
  H   H703      1.0  0.15829  0.77730  0.47904  1.0000
  H   H704      1.0  0.06882  0.71678  0.99914  1.0000
  C   C425      1.0  0.05241  0.76144  0.47550  1.0000
  N   N21       1.0  0.18148  0.82721  0.06229  1.0000
  C   C426      1.0  0.17735  0.97230  0.44943  1.0000
  H   H705      1.0  0.12211  0.64957  0.99528  1.0000
  H   H706      1.0  0.12021  0.56643  0.01189  1.0000
  H   H707      1.0  0.13448  0.99001  0.29039  1.0000
  C   C427      1.0  0.05037  0.74011  0.42633  1.0000
  H   H708      1.0  0.13795  0.86157  0.42029  1.0000
  S   S107      1.0  0.18562  0.91426  0.42199  1.0000
  H   H709      1.0  0.04711  0.52295  0.06121  1.0000
  C   C428      1.0  0.16386  0.75993  0.22072  1.0000
  C   C429      1.0  0.14151  0.77209  0.22653  1.0000
  H   H710      1.0  0.05523  0.92107  0.44649  1.0000
  H   H711      1.0  0.02085  0.82941  0.46650  1.0000
  Fe  Fe56      1.0  0.18282  0.83942  0.45678  1.0000
  S   S108      1.0  0.15072  0.71280  0.22286  1.0000
  H   H712      1.0  0.17689  0.77366  0.23805  1.0000
  H   H713      1.0  0.17596  0.78870  0.21218  1.0000
  C   C430      1.0  0.01995  0.73347  0.48464  1.0000
  Fe  Fe57      1.0  0.05292  0.59412  0.03464  1.0000
  H   H714      1.0  0.04388  0.50350  0.19208  1.0000
  H   H715      1.0  0.18329  0.74457  0.42240  1.0000
  H   H716      1.0  0.18307  0.94020  0.37843  1.0000
  H   H717      1.0  0.11487  0.98781  0.39070  1.0000
  H   H718      1.0  0.02661  0.93859  0.42756  1.0000
  C   C431      1.0  0.07160  0.95942  0.31329  1.0000
  H   H719      1.0  0.04353  0.50634  0.10772  1.0000
  H   H720      1.0  0.14696  0.52481  0.05631  1.0000
  H   H721      1.0  0.16575  0.75651  0.20497  1.0000
  H   H722      1.0  0.16536  0.74500  0.23254  1.0000
  H   H723      1.0  0.13834  0.77517  0.24264  1.0000
  H   H724      1.0  0.13882  0.78725  0.21515  1.0000
  H   H725      1.0  0.13035  0.76261  0.22605  1.0000
  C   C432      1.0  0.01081  0.96979  0.36846  1.0000
  H   H726      1.0  0.13798  0.96385  0.37771  1.0000
  H   H727      1.0  0.15052  0.74357  0.28679  1.0000
  C   C433      1.0  0.07837  0.65287  0.05976  1.0000
  N   N22       1.0  0.00460  0.92548  0.41882  1.0000
  H   H728      1.0  0.14732  0.90295  0.36830  1.0000
  N   N23       1.0  0.12338  0.88595  0.26684  1.0000
  C   C434      1.0  0.10752  0.87228  0.27091  1.0000
  C   C435      1.0  0.13187  0.88266  0.28646  1.0000
  C   C436      1.0  0.11207  0.90870  0.26258  1.0000
  C   C437      1.0  0.14074  0.88213  0.24813  1.0000
  C   C438      1.0  0.09301  0.87803  0.25482  1.0000
  C   C439      1.0  0.12480  0.92560  0.26098  1.0000
  C   C440      1.0  0.14212  0.86000  0.29573  1.0000
  C   C441      1.0  0.14633  0.85871  0.31735  1.0000
  C   C442      1.0  0.08072  0.86084  0.25771  1.0000
  H   H729      1.0  0.02166  0.52239  0.20177  1.0000
  H   H730      1.0  0.09720  0.87308  0.28648  1.0000
  H   H731      1.0  0.11491  0.85542  0.27222  1.0000
  H   H732      1.0  0.14415  0.89204  0.28363  1.0000
  H   H733      1.0  0.11909  0.88850  0.29912  1.0000
  H   H734      1.0  0.09778  0.91133  0.27512  1.0000
  H   H735      1.0  0.10656  0.91260  0.24751  1.0000
  H   H736      1.0  0.13595  0.89123  0.23316  1.0000
  H   H737      1.0  0.15408  0.88881  0.24864  1.0000
  H   H738      1.0  0.08132  0.89267  0.25714  1.0000
  H   H739      1.0  0.10210  0.88069  0.23845  1.0000
  H   H740      1.0  0.13961  0.92357  0.24918  1.0000
  H   H741      1.0  0.12846  0.92476  0.27638  1.0000
  H   H742      1.0  0.13208  0.84857  0.29769  1.0000
  H   H743      1.0  0.15751  0.85526  0.28559  1.0000
  H   H744      1.0  0.13152  0.86329  0.32845  1.0000
  H   H745      1.0  0.15349  0.84227  0.32355  1.0000
  H   H746      1.0  0.15714  0.86920  0.31626  1.0000
  H   H747      1.0  0.07004  0.86576  0.24642  1.0000
  H   H748      1.0  0.09136  0.84579  0.25494  1.0000
  H   H749      1.0  0.07117  0.85820  0.27385  1.0000
  H   H750      1.0  0.04104  0.53855  0.12270  1.0000
  S   S109      1.0  0.17423  0.67163  0.14345  1.0000
  C   C443      1.0  0.17631  0.86777  0.36246  1.0000
  C   C444      1.0  0.16684  0.94189  0.37646  1.0000
  H   H751      1.0  0.01472  0.93034  0.38493  1.0000
  C   C445      1.0  0.18531  0.74837  0.04034  1.0000
  H   H752      1.0  0.13710  0.90308  0.40591  1.0000
  H   H753      1.0  0.03824  0.73885  0.41842  1.0000
  H   H754      1.0  0.16388  0.50446  0.99445  1.0000
  H   H755      1.0  0.15048  0.73414  0.02859  1.0000
  H   H756      1.0  0.16299  0.95457  0.47859  1.0000
  H   H757      1.0  0.13762  0.66478  0.06450  1.0000
  H   H758      1.0  0.12482  0.76586  0.03685  1.0000
  H   H759      1.0  0.11859  0.93505  0.39019  1.0000
  H   H760      1.0  0.05156  0.75682  0.42272  1.0000
  H   H761      1.0  0.03994  0.70191  0.48747  1.0000
  H   H762      1.0  0.13096  0.49799  0.09941  1.0000
  C   C446      1.0  0.01314  0.86861  0.40982  1.0000
  H   H763      1.0  0.99990  0.84712  0.29270  1.0000
  H   H764      1.0  0.07046  0.87785  0.36344  1.0000
  N   N24       1.0  0.11979  0.89259  0.38874  1.0000
  C   C447      1.0  0.18190  0.93644  0.43297  1.0000
  H   H765      1.0  0.18234  0.78152  0.34156  1.0000
  C   C448      1.0  0.05846  0.78228  0.47452  1.0000
  H   H766      1.0  0.07461  0.73381  0.39920  1.0000
  H   H767      1.0  0.16304  0.87394  0.39328  1.0000
  H   H768      1.0  0.16254  0.66461  0.04621  1.0000
  H   H769      1.0  0.10136  0.85556  0.37474  1.0000
  C   C449      1.0  0.17489  0.80691  0.37941  1.0000
  H   H770      1.0  0.00769  0.89841  0.38871  1.0000
  Fe  Fe58      1.0  0.00445  0.92828  0.30004  1.0000
  C   C450      1.0  0.99712  0.77373  0.38038  1.0000
  H   H771      1.0  0.15197  0.83725  0.22566  1.0000
  H   H772      1.0  0.19111  0.72477  0.21412  1.0000
  H   H773      1.0  0.10996  0.90590  0.41686  1.0000
  C   C451      1.0  0.02180  0.81699  0.43951  1.0000
  C   C452      1.0  0.15748  0.87051  0.38052  1.0000
  C   C453      1.0  0.07611  0.88229  0.37557  1.0000
  H   H774      1.0  0.14333  0.67093  0.01659  1.0000
  H   H775      1.0  0.14809  0.70132  0.03401  1.0000
  H   H776      1.0  0.01749  0.96313  0.39927  1.0000
  C   C454      1.0  0.18829  0.73853  0.29803  1.0000
  C   C455      1.0  0.16341  0.81921  0.36183  1.0000
  S   S110      1.0  0.05761  0.67124  0.02679  1.0000
  H   H777      1.0  0.03896  0.77420  0.44774  1.0000
  H   H778      1.0  0.14235  0.80515  0.03587  1.0000
  H   H779      1.0  0.12287  0.96093  0.30754  1.0000
  S   S111      1.0  0.04805  0.59157  0.00376  1.0000
  H   H780      1.0  0.17422  0.82774  0.34920  1.0000
  C   C456      1.0  0.14944  0.78796  0.48924  1.0000
  C   C457      1.0  0.16864  0.70330  0.99521  1.0000
  H   H781      1.0  0.18162  0.52565  0.11400  1.0000
  H   H782      1.0  0.16318  0.97905  0.34925  1.0000
  C   C458      1.0  0.18782  0.95477  0.41995  1.0000
  H   H783      1.0  0.02521  0.90235  0.45326  1.0000
  H   H784      1.0  0.03676  0.85936  0.46259  1.0000
  H   H785      1.0  0.07072  0.71073  0.41926  1.0000
  H   H786      1.0  0.01030  0.98116  0.16366  1.0000
  H   H787      1.0  0.14861  0.84712  0.26033  1.0000
  H   H788      1.0  0.00729  0.72540  0.48481  1.0000
  H   H789      1.0  0.09310  0.90798  0.33027  1.0000
  H   H790      1.0  0.03021  0.89370  0.39983  1.0000
  N   N25       1.0  0.12072  0.63890  0.17203  1.0000
  C   C459      1.0  0.12433  0.65735  0.17872  1.0000
  C   C460      1.0  0.13961  0.63142  0.15610  1.0000
  C   C461      1.0  0.10237  0.64689  0.16106  1.0000
  C   C462      1.0  0.11589  0.62111  0.19038  1.0000
  C   C463      1.0  0.12612  0.61801  0.20960  1.0000
  C   C464      1.0  0.10494  0.66918  0.19233  1.0000
  C   C465      1.0  0.09738  0.63106  0.15057  1.0000
  C   C466      1.0  0.16011  0.62118  0.16418  1.0000
  H   H791      1.0  0.02205  0.87771  0.35558  1.0000
  C   C467      1.0  0.12283  0.59750  0.22512  1.0000
  C   C468      1.0  0.11106  0.68274  0.20404  1.0000
  C   C469      1.0  0.07517  0.63780  0.14634  1.0000
  H   H792      1.0  0.12953  0.66926  0.16465  1.0000
  H   H793      1.0  0.13743  0.65254  0.18720  1.0000
  H   H794      1.0  0.13669  0.61920  0.14932  1.0000
  H   H795      1.0  0.14275  0.64472  0.14264  1.0000
  H   H796      1.0  0.10480  0.66117  0.14858  1.0000
  H   H797      1.0  0.08786  0.65203  0.17233  1.0000
  H   H798      1.0  0.09874  0.62317  0.19681  1.0000
  H   H799      1.0  0.12026  0.60591  0.18494  1.0000
  H   H800      1.0  0.11900  0.63099  0.21825  1.0000
  H   H801      1.0  0.14312  0.61769  0.20509  1.0000
  H   H802      1.0  0.09440  0.67984  0.18206  1.0000
  H   H803      1.0  0.09584  0.65815  0.20401  1.0000
  H   H804      1.0  0.09891  0.61500  0.16051  1.0000
  H   H805      1.0  0.10828  0.63036  0.13516  1.0000
  H   H806      1.0  0.16466  0.63177  0.17173  1.0000
  H   H807      1.0  0.15839  0.60622  0.17561  1.0000
  Fe  Fe59      1.0  0.17689  0.97127  0.27782  1.0000
  H   H808      1.0  0.00500  0.73874  0.44868  1.0000
  H   H809      1.0  0.06663  0.75096  0.46865  1.0000
  H   H810      1.0  0.10599  0.59675  0.22979  1.0000
  H   H811      1.0  0.13176  0.58374  0.21808  1.0000
  H   H812      1.0  0.12850  0.59668  0.23951  1.0000
  H   H813      1.0  0.11841  0.69527  0.19265  1.0000
  H   H814      1.0  0.09691  0.69040  0.21407  1.0000
  H   H815      1.0  0.12205  0.67306  0.21428  1.0000
  H   H816      1.0  0.07266  0.65410  0.13689  1.0000
  H   H817      1.0  0.07267  0.62712  0.13738  1.0000
  H   H818      1.0  0.06348  0.63709  0.16135  1.0000
  C   C470      1.0  0.16100  0.79352  0.39706  1.0000
  C   C471      1.0  0.15516  0.77603  0.43411  1.0000
  C   C472      1.0  0.13524  0.76890  0.43324  1.0000
  C   C473      1.0  0.11964  0.76851  0.45422  1.0000
  H   H819      1.0  0.15336  0.78522  0.38960  1.0000
  H   H820      1.0  0.14806  0.80537  0.40409  1.0000
  H   H821      1.0  0.14988  0.79136  0.43932  1.0000
  C   C474      1.0  0.00006  0.90409  0.42062  1.0000
  C   C475      1.0  0.01382  0.52625  0.07299  1.0000
  H   H822      1.0  0.13913  0.75277  0.43003  1.0000
  H   H823      1.0  0.12724  0.77968  0.42087  1.0000
  H   H824      1.0  0.12155  0.95954  0.25425  1.0000
  H   H825      1.0  0.09591  0.71290  0.02137  1.0000
  C   C476      1.0  0.16655  0.73854  0.31274  1.0000
  C   C477      1.0  0.05674  0.90662  0.44059  1.0000
  H   H826      1.0  0.11565  0.54139  0.04558  1.0000
  H   H827      1.0  0.16740  0.94010  0.36032  1.0000
  H   H828      1.0  0.04483  0.79340  0.48149  1.0000
  H   H829      1.0  0.02773  0.52820  0.16322  1.0000
  H   H830      1.0  0.08415  0.95442  0.38355  1.0000
  S   S112      1.0  0.02752  0.62287  0.03758  1.0000
  H   H831      1.0  0.03962  0.71630  0.45201  1.0000
  S   S113      1.0  0.16951  0.85697  0.14864  1.0000
  H   H832      1.0  0.00095  0.82872  0.33091  1.0000
  H   H833      1.0  0.16795  0.92232  0.46428  1.0000
  H   H834      1.0  0.11494  0.50511  0.06313  1.0000
  C   C478      1.0  0.16563  0.82428  0.05129  1.0000
  H   H835      1.0  0.10871  0.95019  0.23892  1.0000
  C   C479      1.0  0.17331  0.84630  0.07225  1.0000
  C   C480      1.0  0.15720  0.84389  0.09322  1.0000
  H   H836      1.0  0.16186  0.76448  0.44698  1.0000
  H   H837      1.0  0.18259  0.88246  0.35674  1.0000
  C   C481      1.0  0.15038  0.80939  0.06381  1.0000
  C   C482      1.0  0.13437  0.80967  0.05116  1.0000
  C   C483      1.0  0.14935  0.86474  0.10072  1.0000
  H   H838      1.0  0.08418  0.72942  0.42291  1.0000
  H   H839      1.0  0.13740  0.88626  0.35850  1.0000
  C   C484      1.0  0.14648  0.66166  0.04890  1.0000
  H   H840      1.0  0.17405  0.80393  0.09066  1.0000
  H   H841      1.0  0.15606  0.83975  0.04525  1.0000
  H   H842      1.0  0.17376  0.81760  0.03705  1.0000
  H   H843      1.0  0.07771  0.54090  0.10931  1.0000
  N   N26       1.0  0.02462  0.50036  0.13875  1.0000
  H   H844      1.0  0.99679  0.86625  0.41338  1.0000
  H   H845      1.0  0.16606  0.85988  0.06119  1.0000
  H   H846      1.0  0.16436  0.83224  0.10572  1.0000
  H   H847      1.0  0.14337  0.83908  0.09145  1.0000
  H   H848      1.0  0.00122  0.88595  0.34116  1.0000
  H   H849      1.0  0.09747  0.95051  0.26643  1.0000
  C   C485      1.0  0.18282  0.89415  0.20647  1.0000
  H   H850      1.0  0.18132  0.50200  0.29607  1.0000
  H   H851      1.0  0.15899  0.79287  0.06742  1.0000
  H   H852      1.0  0.14167  0.81382  0.07879  1.0000
  H   H853      1.0  0.12427  0.79822  0.06009  1.0000
  H   H854      1.0  0.12427  0.82556  0.04834  1.0000
  H   H855      1.0  0.16257  0.87059  0.10275  1.0000
  H   H856      1.0  0.14105  0.87680  0.08928  1.0000
  H   H857      1.0  0.13831  0.86240  0.11610  1.0000
  C   C486      1.0  0.02033  0.51489  0.17259  1.0000
  H   H858      1.0  0.99866  0.55675  0.03446  1.0000
  S   S114      1.0  0.16722  0.96164  0.31289  1.0000
  S   S115      1.0  0.16085  0.81953  0.45690  1.0000
  H   H859      1.0  0.09145  0.95113  0.35657  1.0000
  H   H860      1.0  0.12657  0.75712  0.46704  1.0000
  H   H861      1.0  0.04636  0.97131  0.46801  1.0000
  Fe  Fe60      1.0  0.02453  0.62161  0.00523  1.0000
  H   H862      1.0  0.18823  0.77659  0.30540  1.0000
  H   H863      1.0  0.18644  0.85163  0.07523  1.0000
  Fe  Fe61      1.0  0.17881  0.82280  0.16296  1.0000
  C   C487      1.0  0.17811  0.61562  0.14615  1.0000
  H   H864      1.0  0.16471  0.92525  0.20853  1.0000
  H   H865      1.0  0.11920  0.67196  0.03552  1.0000
  C   C488      1.0  0.08969  0.96778  0.30871  1.0000
  H   H866      1.0  0.13363  0.74800  0.31137  1.0000
  H   H867      1.0  0.17060  0.74828  0.05148  1.0000
  H   H868      1.0  0.11902  0.74755  0.99951  1.0000
  H   H869      1.0  0.10409  0.91193  0.36393  1.0000
  C   C489      1.0  0.12356  0.89520  0.40914  1.0000
  H   H870      1.0  0.13758  0.86472  0.45591  1.0000
  H   H871      1.0  0.15806  0.80850  0.35507  1.0000
  H   H872      1.0  0.08889  0.98450  0.30315  1.0000
  H   H873      1.0  0.17252  0.71360  0.00352  1.0000
  C   C490      1.0  0.13218  0.52203  0.02196  1.0000
  H   H874      1.0  0.10494  0.55425  0.00154  1.0000
  H   H875      1.0  0.02224  0.86054  0.39686  1.0000
  C   C491      1.0  0.03317  0.55406  0.06711  1.0000
  C   C492      1.0  0.11270  0.53706  0.03185  1.0000
  S   S116      1.0  0.18940  0.82945  0.18941  1.0000
  H   H876      1.0  0.14909  0.76710  0.29603  1.0000
  H   H877      1.0  0.18576  0.55193  0.32403  1.0000
  S   S117      1.0  0.16720  0.94444  0.27098  1.0000
  H   H878      1.0  0.03781  0.92468  0.40692  1.0000
  C   C493      1.0  0.18004  0.77239  0.22134  1.0000
  H   H879      1.0  0.19272  0.79373  0.07006  1.0000
  C   C494      1.0  0.01371  0.89197  0.40342  1.0000
  S   S118      1.0  0.02192  0.79983  0.40639  1.0000
  H   H880      1.0  0.11198  0.86991  0.43407  1.0000
  H   H881      1.0  0.18790  0.75396  0.28688  1.0000
  C   C495      1.0  0.05280  0.52381  0.12545  1.0000
  C   C496      1.0  0.14896  0.75000  0.30091  1.0000
  H   H882      1.0  0.06449  0.78972  0.45805  1.0000
  H   H883      1.0  0.10539  0.76375  0.45313  1.0000
  H   H884      1.0  0.09032  0.91464  0.38985  1.0000
  H   H885      1.0  0.10426  0.96690  0.36519  1.0000
  C   C497      1.0  0.18666  0.51112  0.28014  1.0000
  C   C498      1.0  0.01459  0.56755  0.07403  1.0000
  C   C499      1.0  0.17002  0.95453  0.46223  1.0000
  H   H886      1.0  0.01450  0.50559  0.00278  1.0000
  H   H887      1.0  0.19261  0.60857  0.15233  1.0000
  S   S119      1.0  0.04776  0.97657  0.30994  1.0000
  C   C500      1.0  0.13511  0.67555  0.03175  1.0000
  H   H888      1.0  0.16022  0.49920  0.06761  1.0000
  N   N27       1.0  0.02734  0.74560  0.46278  1.0000
  C   C501      1.0  0.09741  0.95257  0.37001  1.0000
  H   H889      1.0  0.19188  0.74532  0.33694  1.0000
  H   H890      1.0  0.12529  0.89222  0.45059  1.0000
  H   H891      1.0  0.16002  0.92900  0.38785  1.0000
  H   H892      1.0  0.07097  0.77941  0.48354  1.0000
  C   C502      1.0  0.17217  0.67080  0.18469  1.0000
  H   H893      1.0  0.11497  0.78435  0.45824  1.0000
  C   C503      1.0  0.03561  0.90472  0.43760  1.0000
  C   C504      1.0  0.10749  0.55745  0.01603  1.0000
  H   H894      1.0  0.18395  0.93099  0.23276  1.0000
  H   H895      1.0  0.19133  0.67813  0.36720  1.0000
  C   C505      1.0  0.11229  0.94780  0.25471  1.0000
  H   H896      1.0  0.12795  0.93395  0.36280  1.0000
  H   H897      1.0  0.18945  0.77431  0.45116  1.0000
  C   C506      1.0  0.01050  0.96466  0.17222  1.0000
  H   H898      1.0  0.04197  0.95490  0.15504  1.0000
  H   H899      1.0  0.16456  0.72201  0.31897  1.0000
  H   H900      1.0  0.02131  0.77566  0.47191  1.0000
  H   H901      1.0  0.14401  0.51962  0.09501  1.0000
  H   H902      1.0  0.02027  0.86143  0.42381  1.0000
  H   H903      1.0  0.01479  0.58357  0.07433  1.0000
  H   H904      1.0  0.16665  0.75156  0.40421  1.0000
  H   H905      1.0  0.17954  0.65436  0.18588  1.0000
  C   C507      1.0  0.17721  0.91297  0.21384  1.0000
  C   C508      1.0  0.04442  0.73149  0.45035  1.0000
  H   H906      1.0  0.02289  0.96181  0.46977  1.0000
  C   C509      1.0  0.11419  0.93336  0.37598  1.0000
  H   H907      1.0  0.09490  0.87625  0.40651  1.0000
  H   H908      1.0  0.14549  0.53022  0.01875  1.0000
  H   H909      1.0  0.02170  0.95285  0.14304  1.0000
  C   C510      1.0  0.00910  0.75269  0.45168  1.0000
  C   C511      1.0  0.04063  0.54151  0.99516  1.0000
  H   H910      1.0  0.06696  0.87623  0.39122  1.0000
  C   C512      1.0  0.12706  0.87500  0.42644  1.0000
  H   H911      1.0  0.09291  0.56731  0.02311  1.0000
  H   H912      1.0  0.18953  0.79719  0.37235  1.0000
  H   H913      1.0  0.12114  0.70353  0.04440  1.0000
  H   H914      1.0  0.10821  0.87894  0.35849  1.0000
  H   H915      1.0  0.14759  0.64483  0.04898  1.0000
  C   C513      1.0  0.10618  0.91268  0.37958  1.0000
  N   N28       1.0  0.12865  0.71396  0.01062  1.0000
  H   H916      1.0  0.18441  0.78112  0.03819  1.0000
  H   H917      1.0  0.17587  0.60717  0.33107  1.0000
  H   H918      1.0  0.18076  0.62988  0.13394  1.0000
  H   H919      1.0  0.01342  0.76281  0.43601  1.0000
  C   C514      1.0  0.18767  0.80744  0.07796  1.0000
  C   C515      1.0  0.02807  0.49589  0.99417  1.0000
  H   H920      1.0  0.18209  0.71345  0.34528  1.0000
  H   H921      1.0  0.14096  0.86402  0.21519  1.0000
  H   H922      1.0  0.02511  0.56009  0.02864  1.0000
  C   C516      1.0  0.00740  0.51884  0.13338  1.0000
  C   C517      1.0  0.18789  0.91611  0.22785  1.0000
  H   H923      1.0  0.01625  0.96207  0.18690  1.0000
  H   H924      1.0  0.14941  0.77232  0.02200  1.0000
  H   H925      1.0  0.18224  0.80259  0.42128  1.0000
  H   H926      1.0  0.19184  0.98608  0.41826  1.0000
  C   C518      1.0  0.14848  0.80964  0.48238  1.0000
  H   H927      1.0  0.08331  0.53701  0.98965  1.0000
  H   H928      1.0  0.18022  0.55989  0.22865  1.0000
  H   H929      1.0  0.00950  0.53332  0.13702  1.0000
  H   H930      1.0  0.00546  0.81308  0.36529  1.0000
  H   H931      1.0  0.18940  0.51654  0.13910  1.0000
  H   H932      1.0  0.01414  0.77377  0.37557  1.0000
  H   H933      1.0  0.18541  0.84871  0.01927  1.0000
  H   H934      1.0  0.02142  0.98368  0.48140  1.0000
  H   H935      1.0  0.17919  0.81857  0.38590  1.0000
  H   H936      1.0  0.02785  0.93382  0.16627  1.0000
  H   H937      1.0  0.01269  0.98634  0.36553  1.0000
  C   C519      1.0  0.16313  0.98137  0.36503  1.0000
  C   C520      1.0  0.04835  0.50477  0.98935  1.0000
  Fe  Fe62      1.0  0.08213  0.80240  0.55402  1.0000
  S   S120      1.0  0.07559  0.83765  0.54861  1.0000
  H   H938      1.0  0.04129  0.66795  0.90399  1.0000
  Fe  Fe63      1.0  0.03643  0.79902  0.56910  1.0000
  S   S121      1.0  0.02616  0.83407  0.56553  1.0000
  S   S122      1.0  0.01270  0.77783  0.58255  1.0000
  Fe  Fe64      1.0  0.04937  0.83520  0.53499  1.0000
  H   H939      1.0  0.02780  0.66954  0.78134  1.0000
  Fe  Fe65      1.0  0.05342  0.83299  0.57961  1.0000
  S   S123      1.0  0.04938  0.85095  0.60520  1.0000
  S   S124      1.0  0.05787  0.80027  0.53758  1.0000
  S   S125      1.0  0.06172  0.79767  0.58604  1.0000
  H   H940      1.0  0.09274  0.51260  0.87975  1.0000
  C   C521      1.0  0.06318  0.89507  0.50722  1.0000
  N   N29       1.0  0.02462  0.64633  0.88431  1.0000
  H   H941      1.0  0.15516  0.80409  0.54023  1.0000
  H   H942      1.0  0.05176  0.53331  0.93277  1.0000
  N   N30       1.0  0.02126  0.94439  0.64578  1.0000
  N   N31       1.0  0.04708  0.52777  0.97900  1.0000
  C   C522      1.0  0.00325  0.67697  0.60731  1.0000
  C   C523      1.0  0.12727  0.79373  0.52262  1.0000
  H   H943      1.0  0.14169  0.58275  0.86762  1.0000
  Fe  Fe66      1.0  0.11915  0.60124  0.83151  1.0000
  S   S126      1.0  0.11361  0.56865  0.84646  1.0000
  S   S127      1.0  0.14966  0.61106  0.82685  1.0000
  Fe  Fe67      1.0  0.07512  0.61840  0.82446  1.0000
  S   S128      1.0  0.06569  0.58748  0.83886  1.0000
  S   S129      1.0  0.05306  0.64742  0.81181  1.0000
  Fe  Fe68      1.0  0.08349  0.58530  0.86328  1.0000
  S   S130      1.0  0.06780  0.57338  0.89622  1.0000
  Fe  Fe69      1.0  0.09629  0.57332  0.82072  1.0000
  S   S131      1.0  0.09172  0.54700  0.80857  1.0000
  S   S132      1.0  0.09040  0.61767  0.85070  1.0000
  S   S133      1.0  0.10449  0.60455  0.80394  1.0000
  C   C524      1.0  0.01319  0.59162  0.88505  1.0000
  Fe  Fe70      1.0  0.15892  0.93965  0.61322  1.0000
  S   S134      1.0  0.14560  0.96112  0.58621  1.0000
  H   H944      1.0  0.13240  0.50029  0.83201  1.0000
  Fe  Fe71      1.0  0.13384  0.90640  0.61471  1.0000
  S   S135      1.0  0.11954  0.92537  0.58757  1.0000
  S   S136      1.0  0.12433  0.87501  0.62974  1.0000
  H   H945      1.0  0.00499  0.69643  0.82489  1.0000
  H   H946      1.0  0.12718  0.56619  0.96173  1.0000
  Fe  Fe72      1.0  0.11503  0.95244  0.60322  1.0000
  S   S137      1.0  0.08545  0.97717  0.60562  1.0000
  C   C525      1.0  0.10240  0.51240  0.86378  1.0000
  S   S138      1.0  0.12750  0.93320  0.63173  1.0000
  H   H947      1.0  0.02182  0.78685  0.62005  1.0000
  H   H948      1.0  0.00979  0.57791  0.89768  1.0000
  H   H949      1.0  0.99756  0.66140  0.77226  1.0000
  H   H950      1.0  0.02542  0.72164  0.52676  1.0000
  H   H951      1.0  0.01675  0.79389  0.64530  1.0000
  H   H952      1.0  0.10057  0.98471  0.53110  1.0000
  H   H953      1.0  0.15274  0.55538  0.94821  1.0000
  C   C526      1.0  0.00703  0.91782  0.67935  1.0000
  H   H954      1.0  0.15110  0.84131  0.52452  1.0000
  H   H955      1.0  0.02399  0.49520  0.97939  1.0000
  C   C527      1.0  0.05355  0.65551  0.89741  1.0000
  H   H956      1.0  0.07764  0.57984  0.76276  1.0000
  H   H957      1.0  0.05177  0.91382  0.66718  1.0000
  H   H958      1.0  0.99862  0.74983  0.61992  1.0000
  S   S139      1.0  0.02674  0.97345  0.54771  1.0000
  C   C528      1.0  0.01511  0.60925  0.89468  1.0000
  H   H959      1.0  0.17012  0.79452  0.56010  1.0000
  H   H960      1.0  0.12512  0.82274  0.55951  1.0000
  C   C529      1.0  0.14921  0.63625  0.91543  1.0000
  H   H961      1.0  0.02856  0.67780  0.65566  1.0000
  H   H962      1.0  0.14654  0.84699  0.59198  1.0000
  C   C530      1.0  0.15627  0.65119  0.89493  1.0000
  H   H963      1.0  0.08643  0.69928  0.98297  1.0000
  H   H964      1.0  0.04911  0.95114  0.65081  1.0000
  C   C531      1.0  0.04372  0.97702  0.56187  1.0000
  C   C532      1.0  0.06472  0.96688  0.55822  1.0000
  C   C533      1.0  0.07785  0.96742  0.57117  1.0000
  C   C534      1.0  0.07011  0.97836  0.58761  1.0000
  H   H965      1.0  0.18473  0.82258  0.51716  1.0000
  H   H966      1.0  0.11373  0.98796  0.63994  1.0000
  H   H967      1.0  0.07066  0.95793  0.54591  1.0000
  H   H968      1.0  0.09395  0.95941  0.56839  1.0000
  H   H969      1.0  0.08637  0.96390  0.50610  1.0000
  H   H970      1.0  0.13642  0.84007  0.49038  1.0000
  H   H971      1.0  0.00012  0.74865  0.64617  1.0000
  H   H972      1.0  0.17081  0.64330  0.88556  1.0000
  C   C535      1.0  0.11312  0.53236  0.79409  1.0000
  C   C536      1.0  0.11137  0.51272  0.79190  1.0000
  H   H973      1.0  0.18981  0.50535  0.81571  1.0000
  H   H974      1.0  0.06071  0.50769  0.87137  1.0000
  C   C537      1.0  0.14866  0.52713  0.77385  1.0000
  C   C538      1.0  0.13168  0.53974  0.78492  1.0000
  H   H975      1.0  0.01293  0.98041  0.66393  1.0000
  H   H976      1.0  0.14576  0.80564  0.59840  1.0000
  H   H977      1.0  0.16324  0.53249  0.76720  1.0000
  H   H978      1.0  0.13300  0.55501  0.78646  1.0000
  C   C539      1.0  0.07607  0.58301  0.91388  1.0000
  C   C540      1.0  0.09621  0.58712  0.90953  1.0000
  C   C541      1.0  0.10283  0.59396  0.92440  1.0000
  C   C542      1.0  0.08903  0.59739  0.94325  1.0000
  C   C543      1.0  0.06870  0.59400  0.94709  1.0000
  C   C544      1.0  0.06234  0.58653  0.93258  1.0000
  H   H979      1.0  0.10679  0.58467  0.89490  1.0000
  H   H980      1.0  0.11849  0.59684  0.92107  1.0000
  S   S140      1.0  0.04780  0.64226  0.98866  1.0000
  H   H981      1.0  0.04669  0.58372  0.93572  1.0000
  C   C545      1.0  0.16084  0.60492  0.84910  1.0000
  C   C546      1.0  0.14756  0.99180  0.51889  1.0000
  H   H982      1.0  0.02097  0.90221  0.60751  1.0000
  C   C547      1.0  0.02450  0.93269  0.61066  1.0000
  H   H983      1.0  0.02078  0.92237  0.58387  1.0000
  C   C548      1.0  0.11173  0.98108  0.49861  1.0000
  H   H984      1.0  0.99430  0.87497  0.56445  1.0000
  H   H985      1.0  0.10922  0.65866  0.97311  1.0000
  C   C549      1.0  0.00585  0.61994  0.81270  1.0000
  C   C550      1.0  0.02287  0.62451  0.81777  1.0000
  C   C551      1.0  0.03106  0.64217  0.80626  1.0000
  C   C552      1.0  0.02161  0.65575  0.79015  1.0000
  C   C553      1.0  0.18214  0.54071  0.85302  1.0000
  H   H986      1.0  0.01292  0.91677  0.71010  1.0000
  H   H987      1.0  0.02944  0.61448  0.83074  1.0000
  H   H988      1.0  0.17774  0.97711  0.52648  1.0000
  H   H989      1.0  0.14393  0.65592  0.88543  1.0000
  C   C554      1.0  0.16204  0.84834  0.58180  1.0000
  C   C555      1.0  0.02958  0.66284  0.86475  1.0000
  C   C556      1.0  0.13707  0.82336  0.49568  1.0000
  H   H990      1.0  0.11350  0.79114  0.61442  1.0000
  C   C557      1.0  0.07114  0.85686  0.61112  1.0000
  C   C558      1.0  0.08751  0.86385  0.59545  1.0000
  C   C559      1.0  0.10328  0.87067  0.60090  1.0000
  C   C560      1.0  0.10352  0.86915  0.62206  1.0000
  C   C561      1.0  0.08752  0.86147  0.63763  1.0000
  C   C562      1.0  0.07114  0.85596  0.63217  1.0000
  H   H991      1.0  0.08761  0.86474  0.57913  1.0000
  H   H992      1.0  0.11547  0.87679  0.58885  1.0000
  H   H993      1.0  0.08766  0.86003  0.65401  1.0000
  H   H994      1.0  0.05859  0.85064  0.64439  1.0000
  C   C563      1.0  0.00372  0.60141  0.96790  1.0000
  C   C564      1.0  0.00837  0.77312  0.54396  1.0000
  H   H995      1.0  0.09451  0.74028  0.98910  1.0000
  C   C565      1.0  0.01155  0.94019  0.66907  1.0000
  H   H996      1.0  0.01266  0.74454  0.49547  1.0000
  C   C566      1.0  0.99992  0.59338  0.74053  1.0000
  H   H997      1.0  0.01900  0.78382  0.53665  1.0000
  H   H998      1.0  0.99969  0.60613  0.82156  1.0000
  H   H999      1.0  0.14332  0.69785  0.98479  1.0000
  H   H1000     1.0  0.15910  0.66556  0.89819  1.0000
  H   H1001     1.0  0.05665  0.59522  0.74964  1.0000
  H   H1002     1.0  0.11129  0.51643  0.95359  1.0000
  C   C567      1.0  0.02248  0.68864  0.66674  1.0000
  H   H1003     1.0  0.06618  0.60483  0.78818  1.0000
  H   H1004     1.0  0.12360  0.89731  0.52711  1.0000
  H   H1005     1.0  0.02738  0.60275  0.90413  1.0000
  H   H1006     1.0  0.18344  0.62375  0.96202  1.0000
  H   H1007     1.0  0.17260  0.64188  0.92967  1.0000
  H   H1008     1.0  0.05776  0.59738  0.96109  1.0000
  H   H1009     1.0  0.07528  0.61684  0.76124  1.0000
  H   H1010     1.0  0.06241  0.66304  0.88221  1.0000
  H   H1011     1.0  0.00276  0.77068  0.51454  1.0000
  S   S141      1.0  0.18692  0.98281  0.70023  1.0000
  C   C568      1.0  0.03025  0.71958  0.62771  1.0000
  Fe  Fe73      1.0  0.18926  0.50863  0.93967  1.0000
  H   H1012     1.0  0.04091  0.62696  0.90891  1.0000
  C   C569      1.0  0.99687  0.63308  0.79616  1.0000
  H   H1013     1.0  0.06068  0.63904  0.92801  1.0000
  H   H1014     1.0  0.16833  0.85268  0.53210  1.0000
  C   C570      1.0  0.08172  0.71585  0.98511  1.0000
  H   H1015     1.0  0.07421  0.52096  0.95450  1.0000
  H   H1016     1.0  0.13404  0.86985  0.55679  1.0000
  H   H1017     1.0  0.00937  0.68570  0.70026  1.0000
  H   H1018     1.0  0.06977  0.73965  0.63667  1.0000
  H   H1019     1.0  0.16779  0.50601  0.85001  1.0000
  H   H1020     1.0  0.03534  0.73025  0.65434  1.0000
  H   H1021     1.0  0.15758  0.96366  0.69120  1.0000
  C   C571      1.0  0.04885  0.93231  0.49508  1.0000
  H   H1022     1.0  0.02590  0.52551  0.91746  1.0000
  C   C572      1.0  0.17008  0.96505  0.67750  1.0000
  H   H1023     1.0  0.12018  0.86064  0.54255  1.0000
  C   C573      1.0  0.00023  0.91511  0.70322  1.0000
  H   H1024     1.0  0.12894  0.97690  0.49662  1.0000
  C   C574      1.0  0.99556  0.89924  0.51698  1.0000
  N   N32       1.0  0.04880  0.91445  0.51395  1.0000
  C   C575      1.0  0.99525  0.74053  0.63619  1.0000
  C   C576      1.0  0.02718  0.90962  0.52278  1.0000
  H   H1025     1.0  0.06775  0.54752  0.95773  1.0000
  C   C577      1.0  0.05599  0.92060  0.53063  1.0000
  C   C578      1.0  0.05834  0.90343  0.55075  1.0000
  H   H1026     1.0  0.16913  0.50210  0.80524  1.0000
  H   H1027     1.0  0.99994  0.61373  0.90522  1.0000
  C   C579      1.0  0.17658  0.84742  0.59629  1.0000
  H   H1028     1.0  0.99731  0.57940  0.77322  1.0000
  C   C580      1.0  0.06576  0.91167  0.56628  1.0000
  H   H1029     1.0  0.01310  0.70324  0.52103  1.0000
  H   H1030     1.0  0.14026  0.76317  0.51497  1.0000
  H   H1031     1.0  0.14141  0.98152  0.62974  1.0000
  H   H1032     1.0  0.06129  0.88083  0.51982  1.0000
  H   H1033     1.0  0.02807  0.58634  0.87440  1.0000
  H   H1034     1.0  0.00663  0.84163  0.62727  1.0000
  H   H1035     1.0  0.09723  0.86139  0.50668  1.0000
  H   H1036     1.0  0.03018  0.55294  0.95875  1.0000
  H   H1037     1.0  0.07097  0.92623  0.52412  1.0000
  H   H1038     1.0  0.04461  0.93428  0.53601  1.0000
  H   H1039     1.0  0.06981  0.88908  0.54719  1.0000
  H   H1040     1.0  0.04313  0.89885  0.55870  1.0000
  H   H1041     1.0  0.01100  0.60080  0.72715  1.0000
  H   H1042     1.0  0.04050  0.70376  0.62867  1.0000
  C   C581      1.0  0.10362  0.96057  0.50454  1.0000
  H   H1043     1.0  0.14120  0.58396  0.98050  1.0000
  C   C582      1.0  0.16144  0.50117  0.83878  1.0000
  H   H1044     1.0  0.00770  0.86599  0.59774  1.0000
  H   H1045     1.0  0.09159  0.51460  0.75003  1.0000
  H   H1046     1.0  0.99584  0.58023  0.73615  1.0000
  H   H1047     1.0  0.99838  0.81838  0.60648  1.0000
  H   H1048     1.0  0.08236  0.91323  0.56050  1.0000
  H   H1049     1.0  0.05599  0.92714  0.56878  1.0000
  H   H1050     1.0  0.06420  0.90074  0.58175  1.0000
  C   C583      1.0  0.04468  0.94118  0.64235  1.0000
  H   H1051     1.0  0.00722  0.52501  0.94204  1.0000
  H   H1052     1.0  0.08762  0.90108  0.65139  1.0000
  H   H1053     1.0  0.05881  0.89196  0.49356  1.0000
  C   C584      1.0  0.09260  0.49959  0.85380  1.0000
  C   C585      1.0  0.18436  0.70333  0.97437  1.0000
  C   C586      1.0  0.99727  0.81434  0.62372  1.0000
  Fe  Fe74      1.0  0.15149  0.93217  0.57320  1.0000
  C   C587      1.0  0.05616  0.91847  0.64985  1.0000
  H   H1054     1.0  0.01626  0.53281  0.97183  1.0000
  H   H1055     1.0  0.02860  0.66320  0.69317  1.0000
  C   C588      1.0  0.06356  0.72916  0.63040  1.0000
  N   N33       1.0  0.00770  0.71824  0.63737  1.0000
  H   H1056     1.0  0.09280  0.89692  0.51425  1.0000
  H   H1057     1.0  0.18167  0.69253  0.96564  1.0000
  C   C589      1.0  0.12338  0.65854  0.97879  1.0000
  C   C590      1.0  0.99994  0.70785  0.62412  1.0000
  H   H1058     1.0  0.08543  0.91989  0.62713  1.0000
  H   H1059     1.0  0.13886  0.88070  0.50885  1.0000
  H   H1060     1.0  0.02629  0.51679  0.84291  1.0000
  H   H1061     1.0  0.08166  0.63416  0.90575  1.0000
  C   C591      1.0  0.03873  0.52636  0.94376  1.0000
  C   C592      1.0  0.06883  0.64624  0.91226  1.0000
  H   H1062     1.0  0.01414  0.51451  0.82287  1.0000
  H   H1063     1.0  0.99313  0.55124  0.69080  1.0000
  S   S142      1.0  0.16416  0.93499  0.53863  1.0000
  H   H1064     1.0  0.00275  0.66771  0.68796  1.0000
  C   C593      1.0  0.01529  0.67556  0.68838  1.0000
  H   H1065     1.0  0.18527  0.89620  0.56218  1.0000
  H   H1066     1.0  0.02735  0.68181  0.61976  1.0000
  S   S143      1.0  0.16659  0.91086  0.59904  1.0000
  C   C594      1.0  0.01007  0.68447  0.62371  1.0000
  H   H1067     1.0  0.01725  0.92112  0.53249  1.0000
  N   N34       1.0  0.12540  0.50468  0.86428  1.0000
  C   C595      1.0  0.08684  0.89552  0.50084  1.0000
  H   H1068     1.0  0.16105  0.86398  0.57107  1.0000
  C   C596      1.0  0.18687  0.80929  0.53067  1.0000
  H   H1069     1.0  0.00561  0.53768  0.83445  1.0000
  C   C597      1.0  0.18436  0.91055  0.51015  1.0000
  C   C598      1.0  0.03636  0.98923  0.57729  1.0000
  H   H1070     1.0  0.02817  0.89408  0.53390  1.0000
  S   S144      1.0  0.11463  0.78364  0.54799  1.0000
  S   S145      1.0  0.18542  0.95123  0.61914  1.0000
  H   H1071     1.0  0.14449  0.65948  0.94902  1.0000
  H   H1072     1.0  0.14546  0.62284  0.91117  1.0000
  H   H1073     1.0  0.07492  0.56236  0.73934  1.0000
  C   C599      1.0  0.07973  0.91702  0.64444  1.0000
  H   H1074     1.0  0.08398  0.92866  0.65097  1.0000
  C   C600      1.0  0.04962  0.99001  0.59004  1.0000
  H   H1075     1.0  0.00886  0.68576  0.59127  1.0000
  N   N35       1.0  0.15622  0.82787  0.55628  1.0000
  H   H1076     1.0  0.17044  0.86070  0.60472  1.0000
  C   C601      1.0  0.18686  0.97385  0.67768  1.0000
  C   C602      1.0  0.14380  0.56044  0.96302  1.0000
  H   H1077     1.0  0.00030  0.59696  0.87621  1.0000
  H   H1078     1.0  0.03410  0.98473  0.64183  1.0000
  H   H1079     1.0  0.02133  0.94390  0.67824  1.0000
  C   C603      1.0  0.99710  0.60553  0.64183  1.0000
  H   H1080     1.0  0.10779  0.95105  0.51960  1.0000
  Fe  Fe75      1.0  0.99351  0.97820  0.56565  1.0000
  H   H1081     1.0  0.99482  0.61678  0.65223  1.0000
  C   C604      1.0  0.08610  0.52572  0.97922  1.0000
  H   H1082     1.0  0.10683  0.54380  0.95529  1.0000
  H   H1083     1.0  0.16773  0.54742  0.86336  1.0000
  H   H1084     1.0  0.01887  0.95164  0.50874  1.0000
  H   H1085     1.0  0.18286  0.78734  0.51364  1.0000
  H   H1086     1.0  0.11703  0.82614  0.52569  1.0000
  H   H1087     1.0  0.06664  0.52514  0.84627  1.0000
  H   H1088     1.0  0.19256  0.84875  0.58718  1.0000
  H   H1089     1.0  0.03391  0.75014  0.63084  1.0000
  H   H1090     1.0  0.16165  0.57115  0.89656  1.0000
  C   C605      1.0  0.13512  0.82463  0.56954  1.0000
  H   H1091     1.0  0.10380  0.53528  0.75137  1.0000
  H   H1092     1.0  0.10813  0.81947  0.60949  1.0000
  H   H1093     1.0  0.01181  0.65978  0.84273  1.0000
  C   C606      1.0  0.03973  0.73321  0.63694  1.0000
  S   S146      1.0  0.15965  0.49607  0.95445  1.0000
  C   C607      1.0  0.13922  0.77997  0.50954  1.0000
  H   H1094     1.0  0.14406  0.97587  0.52213  1.0000
  C   C608      1.0  0.00445  0.64738  0.92301  1.0000
  C   C609      1.0  0.04390  0.63830  0.89380  1.0000
  S   S147      1.0  0.09718  0.60603  0.96185  1.0000
  H   H1095     1.0  0.05268  0.90704  0.64246  1.0000
  H   H1096     1.0  0.16749  0.57050  0.97205  1.0000
  C   C610      1.0  0.16493  0.99046  0.53019  1.0000
  C   C611      1.0  0.16940  0.95795  0.65971  1.0000
  H   H1097     1.0  0.05154  0.94670  0.62548  1.0000
  H   H1098     1.0  0.03196  0.72640  0.61051  1.0000
  N   N36       1.0  0.04086  0.55964  0.77465  1.0000
  C   C612      1.0  0.02949  0.56825  0.75660  1.0000
  C   C613      1.0  0.06005  0.54310  0.76890  1.0000
  C   C614      1.0  0.02615  0.54915  0.79297  1.0000
  C   C615      1.0  0.04659  0.57685  0.78151  1.0000
  C   C616      1.0  0.00945  0.58550  0.76018  1.0000
  C   C617      1.0  0.03562  0.53634  0.81238  1.0000
  C   C618      1.0  0.07210  0.54619  0.74569  1.0000
  C   C619      1.0  0.09334  0.53116  0.74331  1.0000
  H   H1099     1.0  0.00607  0.63011  0.92705  1.0000
  H   H1100     1.0  0.08307  0.83158  0.50057  1.0000
  H   H1101     1.0  0.02512  0.55508  0.75239  1.0000
  H   H1102     1.0  0.03974  0.57521  0.74220  1.0000
  H   H1103     1.0  0.07131  0.54113  0.77913  1.0000
  H   H1104     1.0  0.05581  0.52740  0.77206  1.0000
  H   H1105     1.0  0.01943  0.53821  0.78772  1.0000
  H   H1106     1.0  0.01268  0.56103  0.79898  1.0000
  H   H1107     1.0  0.03233  0.58784  0.78769  1.0000
  H   H1108     1.0  0.05446  0.57021  0.79506  1.0000
  H   H1109     1.0  0.12767  0.62798  0.95748  1.0000
  H   H1110     1.0  0.01301  0.59936  0.76374  1.0000
  H   H1111     1.0  0.04081  0.54670  0.81970  1.0000
  H   H1112     1.0  0.04918  0.52376  0.80815  1.0000
  H   H1113     1.0  0.06292  0.54284  0.73573  1.0000
  H   H1114     1.0  0.99438  0.49655  0.92830  1.0000
  C   C620      1.0  0.01556  0.91921  0.60120  1.0000
  C   C621      1.0  0.01288  0.96713  0.63683  1.0000
  H   H1115     1.0  0.17852  0.54188  0.83749  1.0000
  C   C622      1.0  0.01475  0.93102  0.63445  1.0000
  C   C623      1.0  0.15510  0.59542  0.94732  1.0000
  C   C624      1.0  0.14210  0.62646  0.96327  1.0000
  H   H1116     1.0  0.01559  0.54918  0.92782  1.0000
  C   C625      1.0  0.00315  0.76745  0.56590  1.0000
  C   C626      1.0  0.18016  0.91205  0.53122  1.0000
  C   C627      1.0  0.13279  0.51703  0.87613  1.0000
  C   C628      1.0  0.13734  0.50844  0.84179  1.0000
  C   C629      1.0  0.17051  0.83068  0.56898  1.0000
  C   C630      1.0  0.00445  0.70678  0.66009  1.0000
  C   C631      1.0  0.10720  0.52746  0.96452  1.0000
  C   C632      1.0  0.11675  0.52621  0.89422  1.0000
  C   C633      1.0  0.12735  0.53573  0.90612  1.0000
  H   H1117     1.0  0.09960  0.52906  0.85515  1.0000
  H   H1118     1.0  0.14490  0.54658  0.97613  1.0000
  H   H1119     1.0  0.09997  0.49998  0.83704  1.0000
  H   H1120     1.0  0.13863  0.53083  0.86528  1.0000
  H   H1121     1.0  0.13368  0.52548  0.83438  1.0000
  C   C634      1.0  0.01479  0.90898  0.50642  1.0000
  C   C635      1.0  0.13515  0.86512  0.54193  1.0000
  H   H1122     1.0  0.05640  0.62889  0.88361  1.0000
  C   C636      1.0  0.14718  0.50698  0.77266  1.0000
  H   H1123     1.0  0.10461  0.53895  0.88771  1.0000
  H   H1124     1.0  0.00032  0.88283  0.52542  1.0000
  H   H1125     1.0  0.13884  0.52337  0.91409  1.0000
  H   H1126     1.0  0.13545  0.54806  0.89526  1.0000
  H   H1127     1.0  0.11537  0.54316  0.91817  1.0000
  C   C637      1.0  0.13739  0.88447  0.52437  1.0000
  H   H1128     1.0  0.14496  0.72474  0.97905  1.0000
  H   H1129     1.0  0.99562  0.96969  0.63847  1.0000
  H   H1130     1.0  0.03263  0.67669  0.86891  1.0000
  H   H1131     1.0  0.10200  0.80597  0.59229  1.0000
  H   H1132     1.0  0.15646  0.95113  0.65974  1.0000
  C   C638      1.0  0.00460  0.65111  0.78495  1.0000
  H   H1133     1.0  0.12650  0.83863  0.57617  1.0000
  H   H1134     1.0  0.14662  0.50734  0.88268  1.0000
  H   H1135     1.0  0.02083  0.90526  0.67591  1.0000
  H   H1136     1.0  0.11961  0.52345  0.97382  1.0000
  C   C639      1.0  0.01792  0.80023  0.62818  1.0000
  H   H1137     1.0  0.04186  0.96129  0.50709  1.0000
  C   C640      1.0  0.17739  0.61432  0.84829  1.0000
  C   C641      1.0  0.02010  0.62848  0.87736  1.0000
  H   H1138     1.0  0.17450  0.60090  0.97745  1.0000
  N   N37       1.0  0.16077  0.61485  0.94999  1.0000
  H   H1139     1.0  0.99643  0.57330  0.64385  1.0000
  H   H1140     1.0  0.01595  0.70438  0.84283  1.0000
  H   H1141     1.0  0.07044  0.71257  0.63674  1.0000
  C   C642      1.0  0.11333  0.80559  0.60190  1.0000
  H   H1142     1.0  0.13467  0.64482  0.92409  1.0000
  H   H1143     1.0  0.04767  0.62058  0.77217  1.0000
  H   H1144     1.0  0.17530  0.81569  0.57993  1.0000
  H   H1145     1.0  0.14020  0.79053  0.58239  1.0000
  H   H1146     1.0  0.03249  0.68804  0.82486  1.0000
  C   C643      1.0  0.16663  0.62825  0.92853  1.0000
  H   H1147     1.0  0.04428  0.65656  0.85423  1.0000
  H   H1148     1.0  0.15146  0.89018  0.52427  1.0000
  C   C644      1.0  0.12600  0.81546  0.51559  1.0000
  C   C645      1.0  0.01676  0.69134  0.83504  1.0000
  H   H1149     1.0  0.17800  0.92349  0.49884  1.0000
  H   H1150     1.0  0.16789  0.52690  0.81214  1.0000
  H   H1151     1.0  0.11251  0.72270  0.97326  1.0000
  H   H1152     1.0  0.03078  0.80915  0.62238  1.0000
  H   H1153     1.0  0.18718  0.52395  0.86039  1.0000
  C   C646      1.0  0.99920  0.76554  0.53142  1.0000
  C   C647      1.0  0.18818  0.89510  0.54595  1.0000
  C   C648      1.0  0.15364  0.84641  0.53808  1.0000
  H   H1154     1.0  0.10085  0.53247  0.72642  1.0000
  C   C649      1.0  0.16630  0.80828  0.54740  1.0000
  H   H1155     1.0  0.14026  0.59973  0.94158  1.0000
  H   H1156     1.0  0.05127  0.72078  0.49307  1.0000
  H   H1157     1.0  0.00491  0.67447  0.63921  1.0000
  H   H1158     1.0  0.07573  0.72582  0.97111  1.0000
  C   C650      1.0  0.06274  0.60914  0.77215  1.0000
  C   C651      1.0  0.06163  0.58968  0.76494  1.0000
  H   H1159     1.0  0.00181  0.71691  0.60760  1.0000
  H   H1160     1.0  0.06843  0.73253  0.61299  1.0000
  H   H1161     1.0  0.07579  0.65884  0.91414  1.0000
  C   C652      1.0  0.13522  0.80548  0.58821  1.0000
  H   H1162     1.0  0.03357  0.62274  0.86521  1.0000
  H   H1163     1.0  0.00300  0.89657  0.56881  1.0000
  C   C653      1.0  0.03217  0.53555  0.96401  1.0000
  H   H1164     1.0  0.04170  0.92703  0.60815  1.0000
  C   C654      1.0  0.17265  0.50952  0.81659  1.0000
  H   H1165     1.0  0.10880  0.51418  0.90569  1.0000
  H   H1166     1.0  0.03578  0.69511  0.66760  1.0000
  H   H1167     1.0  0.01877  0.91404  0.64145  1.0000
  C   C655      1.0  0.18822  0.60825  0.86474  1.0000
  H   H1168     1.0  0.99670  0.67575  0.86136  1.0000
  C   C656      1.0  0.01236  0.67162  0.85140  1.0000
  H   H1169     1.0  0.16676  0.58832  0.93485  1.0000
  C   C657      1.0  0.06852  0.53095  0.96655  1.0000
  C   C658      1.0  0.03637  0.71581  0.49489  1.0000
  C   C659      1.0  0.16592  0.58331  0.88319  1.0000
  H   H1170     1.0  0.18312  0.71948  0.96455  1.0000
  H   H1171     1.0  0.02456  0.89971  0.49464  1.0000
  H   H1172     1.0  0.00634  0.63391  0.86973  1.0000
  C   C660      1.0  0.02806  0.70858  0.51837  1.0000
  C   C661      1.0  0.06926  0.50850  0.85483  1.0000
  H   H1173     1.0  0.15925  0.98762  0.54744  1.0000
  C   C662      1.0  0.14321  0.64885  0.96472  1.0000
  H   H1174     1.0  0.01952  0.97125  0.61984  1.0000
  H   H1175     1.0  0.03960  0.69527  0.52512  1.0000
  H   H1176     1.0  0.00386  0.57830  0.66577  1.0000
  H   H1177     1.0  0.01164  0.58409  0.94295  1.0000
  H   H1178     1.0  0.02132  0.94896  0.60158  1.0000
  C   C663      1.0  0.17899  0.60924  0.96090  1.0000
  C   C664      1.0  0.99914  0.59208  0.95349  1.0000
  H   H1179     1.0  0.01349  0.60366  0.63288  1.0000
  S   S148      1.0  0.04072  0.85535  0.50513  1.0000
  C   C665      1.0  0.01726  0.98392  0.64654  1.0000
  H   H1180     1.0  0.04395  0.50901  0.94739  1.0000
  C   C666      1.0  0.10025  0.72356  0.98773  1.0000
  H   H1181     1.0  0.09695  0.50706  0.79877  1.0000
  H   H1182     1.0  0.01975  0.60041  0.96866  1.0000
  C   C667      1.0  0.01936  0.52573  0.82914  1.0000
  C   C668      1.0  0.00583  0.65608  0.89906  1.0000
  H   H1183     1.0  0.17734  0.83248  0.60819  1.0000
  H   H1184     1.0  0.01700  0.65124  0.92842  1.0000
  H   H1185     1.0  0.18541  0.83421  0.55850  1.0000
  C   C669      1.0  0.18301  0.59225  0.88184  1.0000
  H   H1186     1.0  0.00507  0.67329  0.89682  1.0000
  H   H1187     1.0  0.99820  0.92314  0.60472  1.0000
  H   H1188     1.0  0.04731  0.75469  0.49240  1.0000
  C   C670      1.0  0.15460  0.58990  0.86689  1.0000
  H   H1189     1.0  0.00989  0.65993  0.60798  1.0000
  C   C671      1.0  0.15231  0.57778  0.96720  1.0000
  C   C672      1.0  0.18558  0.95955  0.64202  1.0000
  C   C673      1.0  0.12843  0.50000  0.78139  1.0000
  H   H1190     1.0  0.18209  0.62608  0.83467  1.0000
  C   C674      1.0  0.02072  0.53182  0.93212  1.0000
  H   H1191     1.0  0.00453  0.83374  0.52939  1.0000
  C   C675      1.0  0.09939  0.87526  0.49379  1.0000
  H   H1192     1.0  0.00164  0.71788  0.67085  1.0000
  H   H1193     1.0  0.99946  0.52376  0.72227  1.0000
  H   H1194     1.0  0.06288  0.49919  0.84730  1.0000
  H   H1195     1.0  0.99605  0.95092  0.67233  1.0000
  H   H1196     1.0  0.00928  0.92514  0.49790  1.0000
  C   C676      1.0  0.03444  0.95355  0.49893  1.0000
  H   H1197     1.0  0.17991  0.61924  0.91873  1.0000
  H   H1198     1.0  0.99740  0.93479  0.63633  1.0000
  H   H1199     1.0  0.06034  0.49465  0.97939  1.0000
  H   H1200     1.0  0.15673  0.64853  0.97142  1.0000
  H   H1201     1.0  0.13918  0.61728  0.97966  1.0000
  H   H1202     1.0  0.04109  0.55818  0.98709  1.0000
  H   H1203     1.0  0.99665  0.89917  0.71006  1.0000
  H   H1204     1.0  0.99407  0.91531  0.67339  1.0000
  H   H1205     1.0  0.12385  0.67502  0.97846  1.0000
  H   H1206     1.0  0.08733  0.50949  0.98877  1.0000
  H   H1207     1.0  0.11096  0.95120  0.49213  1.0000
  H   H1208     1.0  0.11624  0.87585  0.48942  1.0000
  H   H1209     1.0  0.38709  0.45927  0.40274  1.0000
  C   C677      1.0  0.34793  0.49029  0.05579  1.0000
  H   H1210     1.0  0.22589  0.08867  0.31285  1.0000
  C   C678      1.0  0.26764  0.20602  0.45323  1.0000
  H   H1211     1.0  0.24969  0.06044  0.33027  1.0000
  H   H1212     1.0  0.20842  0.47208  0.13785  1.0000
  H   H1213     1.0  0.32928  0.20879  0.48010  1.0000
  C   C679      1.0  0.19778  0.43615  0.17133  1.0000
  C   C680      1.0  0.32835  0.33681  0.48091  1.0000
  H   H1214     1.0  0.34414  0.41485  0.38929  1.0000
  H   H1215     1.0  0.20108  0.30869  0.02953  1.0000
  C   C681      1.0  0.24777  0.20229  0.42730  1.0000
  Fe  Fe76      1.0  0.19807  0.01460  0.43883  1.0000
  H   H1216     1.0  0.30565  0.18348  0.48766  1.0000
  Fe  Fe77      1.0  0.20108  0.05960  0.41783  1.0000
  S   S149      1.0  0.23508  0.05077  0.40367  1.0000
  C   C682      1.0  0.20003  0.27000  0.02088  1.0000
  Fe  Fe78      1.0  0.22605  0.02377  0.39606  1.0000
  S   S150      1.0  0.23563  0.01862  0.36254  1.0000
  Fe  Fe79      1.0  0.23762  0.03014  0.43526  1.0000
  S   S151      1.0  0.26301  0.02746  0.45299  1.0000
  N   N38       1.0  0.38155  0.48233  0.23262  1.0000
  S   S152      1.0  0.20413  0.04090  0.44999  1.0000
  H   H1217     1.0  0.23397  0.13597  0.33126  1.0000
  C   C683      1.0  0.36331  0.44895  0.38408  1.0000
  S   S153      1.0  0.27768  0.10924  0.47494  1.0000
  H   H1218     1.0  0.38800  0.45644  0.34474  1.0000
  H   H1219     1.0  0.32143  0.48106  0.27132  1.0000
  C   C684      1.0  0.20418  0.39147  0.04630  1.0000
  C   C685      1.0  0.25245  0.45693  0.15604  1.0000
  C   C686      1.0  0.34860  0.46622  0.25087  1.0000
  H   H1220     1.0  0.24650  0.29369  0.05598  1.0000
  C   C687      1.0  0.22026  0.44877  0.10713  1.0000
  H   H1221     1.0  0.38783  0.47808  0.26361  1.0000
  H   H1222     1.0  0.24285  0.22988  0.43989  1.0000
  H   H1223     1.0  0.23604  0.23029  0.47823  1.0000
  H   H1224     1.0  0.20717  0.43172  0.09182  1.0000
  C   C688      1.0  0.23518  0.11139  0.38957  1.0000
  H   H1225     1.0  0.23860  0.46648  0.16459  1.0000
  C   C689      1.0  0.22976  0.09870  0.35907  1.0000
  C   C690      1.0  0.20994  0.37275  0.03870  1.0000
  C   C691      1.0  0.32502  0.47202  0.25866  1.0000
  H   H1226     1.0  0.34076  0.18611  0.46834  1.0000
  H   H1227     1.0  0.22514  0.26635  0.45941  1.0000
  H   H1228     1.0  0.30679  0.18665  0.45996  1.0000
  C   C692      1.0  0.23826  0.26992  0.46420  1.0000
  C   C693      1.0  0.20860  0.28437  0.00005  1.0000
  H   H1229     1.0  0.23624  0.47386  0.08839  1.0000
  H   H1230     1.0  0.25756  0.09967  0.30789  1.0000
  H   H1231     1.0  0.19364  0.03408  0.31667  1.0000
  H   H1232     1.0  0.26058  0.20665  0.41400  1.0000
  H   H1233     1.0  0.35860  0.43496  0.41803  1.0000
  H   H1234     1.0  0.23629  0.31108  0.03410  1.0000
  H   H1235     1.0  0.30120  0.04055  0.34721  1.0000
  H   H1236     1.0  0.25563  0.11328  0.35947  1.0000
  H   H1237     1.0  0.38955  0.24168  0.44634  1.0000
  H   H1238     1.0  0.25284  0.45001  0.09714  1.0000
  H   H1239     1.0  0.27907  0.21354  0.44025  1.0000
  H   H1240     1.0  0.28527  0.46116  0.11817  1.0000
  C   C694      1.0  0.19713  0.41054  0.03339  1.0000
  H   H1241     1.0  0.24054  0.18044  0.48249  1.0000
  H   H1242     1.0  0.21797  0.27477  0.06513  1.0000
  H   H1243     1.0  0.33471  0.44468  0.40807  1.0000
  H   H1244     1.0  0.31843  0.48925  0.05007  1.0000
  H   H1245     1.0  0.19580  0.29560  0.99321  1.0000
  C   C695      1.0  0.19619  0.24336  0.06218  1.0000
  H   H1246     1.0  0.33146  0.21104  0.45220  1.0000
  N   N39       1.0  0.23843  0.09130  0.33854  1.0000
  C   C696      1.0  0.21987  0.48236  0.12966  1.0000
  N   N40       1.0  0.24036  0.46957  0.12035  1.0000
  H   H1247     1.0  0.26276  0.13632  0.28760  1.0000
  C   C697      1.0  0.37857  0.29803  0.46850  1.0000
  C   C698      1.0  0.32841  0.20066  0.46793  1.0000
  H   H1248     1.0  0.20968  0.42196  0.17293  1.0000
  C   C699      1.0  0.38348  0.21065  0.45896  1.0000
  H   H1249     1.0  0.31902  0.47928  0.01187  1.0000
  C   C700      1.0  0.28404  0.04264  0.34893  1.0000
  C   C701      1.0  0.24719  0.45126  0.13720  1.0000
  H   H1250     1.0  0.27386  0.42720  0.16421  1.0000
  C   C702      1.0  0.27474  0.06569  0.34078  1.0000
  H   H1251     1.0  0.21391  0.25855  0.02547  1.0000
  H   H1252     1.0  0.21545  0.35805  0.04874  1.0000
  H   H1253     1.0  0.23278  0.20769  0.42172  1.0000
  C   C703      1.0  0.25722  0.25180  0.46288  1.0000
  C   C704      1.0  0.25953  0.43711  0.17177  1.0000
  H   H1254     1.0  0.20552  0.39116  0.06206  1.0000
  H   H1255     1.0  0.21782  0.11349  0.35697  1.0000
  H   H1256     1.0  0.25590  0.49265  0.12402  1.0000
  C   C705      1.0  0.26626  0.05023  0.45973  1.0000
  C   C706      1.0  0.28037  0.04820  0.47269  1.0000
  C   C707      1.0  0.28374  0.06607  0.47783  1.0000
  C   C708      1.0  0.27315  0.08619  0.46986  1.0000
  C   C709      1.0  0.25884  0.08819  0.45712  1.0000
  C   C710      1.0  0.25531  0.07031  0.45216  1.0000
  H   H1257     1.0  0.20475  0.45873  0.11185  1.0000
  C   C711      1.0  0.27916  0.47256  0.10492  1.0000
  H   H1258     1.0  0.25058  0.10366  0.45088  1.0000
  H   H1259     1.0  0.24439  0.07211  0.44219  1.0000
  C   C712      1.0  0.22877  0.99777  0.35581  1.0000
  C   C713      1.0  0.25086  0.06892  0.34212  1.0000
  H   H1260     1.0  0.27711  0.03770  0.36583  1.0000
  H   H1261     1.0  0.20185  0.32751  0.13671  1.0000
  H   H1262     1.0  0.24697  0.42783  0.17815  1.0000
  C   C714      1.0  0.28908  0.21437  0.47353  1.0000
  H   H1263     1.0  0.36162  0.46688  0.41745  1.0000
  H   H1264     1.0  0.38913  0.45436  0.25603  1.0000
  C   C715      1.0  0.35840  0.48620  0.24214  1.0000
  C   C716      1.0  0.20807  0.37295  0.01838  1.0000
  H   H1265     1.0  0.35515  0.27506  0.44596  1.0000
  C   C717      1.0  0.34166  0.34800  0.46486  1.0000
  H   H1266     1.0  0.24708  0.11488  0.39629  1.0000
  N   N41       1.0  0.36342  0.47153  0.38387  1.0000
  C   C718      1.0  0.37728  0.48074  0.36384  1.0000
  H   H1267     1.0  0.36929  0.36153  0.45655  1.0000
  H   H1268     1.0  0.33860  0.35267  0.44910  1.0000
  C   C719      1.0  0.32732  0.26609  0.46762  1.0000
  C   C720      1.0  0.21962  0.44105  0.08779  1.0000
  C   C721      1.0  0.34173  0.48500  0.38647  1.0000
  H   H1269     1.0  0.35528  0.45607  0.26438  1.0000
  H   H1270     1.0  0.39192  0.16481  0.48593  1.0000
  C   C722      1.0  0.22755  0.99906  0.33492  1.0000
  N   N42       1.0  0.26754  0.21126  0.47387  1.0000
  H   H1271     1.0  0.20943  0.10716  0.32804  1.0000
  H   H1272     1.0  0.36410  0.49164  0.04723  1.0000
  H   H1273     1.0  0.22102  0.08724  0.37069  1.0000
  H   H1274     1.0  0.24402  0.05988  0.35757  1.0000
  H   H1275     1.0  0.37088  0.20259  0.46916  1.0000
  H   H1276     1.0  0.36824  0.40557  0.39904  1.0000
  C   C723      1.0  0.30704  0.19475  0.47238  1.0000
  H   H1277     1.0  0.21914  0.29344  0.00254  1.0000
  C   C724      1.0  0.22037  0.28492  0.04922  1.0000
  H   H1278     1.0  0.38204  0.06141  0.07468  1.0000
  H   H1279     1.0  0.23067  0.27542  0.03785  1.0000
  H   H1280     1.0  0.21696  0.11754  0.48589  1.0000
  H   H1281     1.0  0.28050  0.46405  0.09233  1.0000
  H   H1282     1.0  0.22206  0.31213  0.06066  1.0000
  H   H1283     1.0  0.23475  0.44191  0.14402  1.0000
  C   C725      1.0  0.24590  0.10220  0.37000  1.0000
  H   H1284     1.0  0.35118  0.45682  0.23870  1.0000
  C   C726      1.0  0.24660  0.21258  0.44554  1.0000
  C   C727      1.0  0.38191  0.27423  0.46857  1.0000
  H   H1285     1.0  0.26984  0.25650  0.46739  1.0000
  H   H1286     1.0  0.19641  0.23404  0.05055  1.0000
  H   H1287     1.0  0.27860  0.07532  0.34986  1.0000
  H   H1288     1.0  0.28893  0.03276  0.47860  1.0000
  H   H1289     1.0  0.21527  0.05899  0.34373  1.0000
  H   H1290     1.0  0.19925  0.39243  0.98990  1.0000
  H   H1291     1.0  0.29482  0.06431  0.48762  1.0000
  H   H1292     1.0  0.37973  0.43989  0.38135  1.0000
  C   C728      1.0  0.29347  0.48857  0.09623  1.0000
  H   H1293     1.0  0.24762  0.15891  0.29824  1.0000
  H   H1294     1.0  0.28273  0.07008  0.32412  1.0000
  H   H1295     1.0  0.22958  0.01611  0.48644  1.0000
  N   N43       1.0  0.36267  0.26471  0.47695  1.0000
  C   C729      1.0  0.25227  0.23118  0.47803  1.0000
  H   H1296     1.0  0.33210  0.47941  0.40204  1.0000
  C   C730      1.0  0.22018  0.09148  0.32921  1.0000
  H   H1297     1.0  0.33078  0.24889  0.46839  1.0000
  H   H1298     1.0  0.28099  0.03229  0.33993  1.0000
  H   H1299     1.0  0.25050  0.18487  0.43245  1.0000
  H   H1300     1.0  0.24251  0.28454  0.45359  1.0000
  H   H1301     1.0  0.26093  0.44010  0.13039  1.0000
  C   C731      1.0  0.35132  0.43668  0.40446  1.0000
  H   H1302     1.0  0.31737  0.48149  0.24551  1.0000
  H   H1303     1.0  0.23328  0.20831  0.45805  1.0000
  H   H1304     1.0  0.31765  0.26920  0.48293  1.0000
  C   C732      1.0  0.33447  0.48973  0.04082  1.0000
  H   H1305     1.0  0.26577  0.10572  0.32823  1.0000
  H   H1306     1.0  0.36338  0.23915  0.44742  1.0000
  H   H1307     1.0  0.25605  0.08700  0.37536  1.0000
  C   C733      1.0  0.23820  0.46104  0.10241  1.0000
  H   H1308     1.0  0.31847  0.45752  0.26507  1.0000
  H   H1309     1.0  0.34342  0.40582  0.41709  1.0000
  H   H1310     1.0  0.22780  0.13063  0.30875  1.0000
  H   H1311     1.0  0.23473  0.43076  0.08237  1.0000
  H   H1312     1.0  0.29383  0.22682  0.45987  1.0000
  C   C734      1.0  0.25159  0.10570  0.32277  1.0000
  C   C735      1.0  0.37627  0.23451  0.45618  1.0000
  H   H1313     1.0  0.26256  0.24982  0.44635  1.0000
  C   C736      1.0  0.23193  0.30151  0.05006  1.0000
  H   H1314     1.0  0.28892  0.22018  0.48772  1.0000
  H   H1315     1.0  0.32327  0.27383  0.43512  1.0000
  H   H1316     1.0  0.36832  0.30759  0.45750  1.0000
  H   H1317     1.0  0.19696  0.07059  0.31440  1.0000
  H   H1318     1.0  0.36311  0.47261  0.34112  1.0000
  C   C737      1.0  0.19724  0.45225  0.18159  1.0000
  C   C738      1.0  0.35902  0.35304  0.46905  1.0000
  H   H1319     1.0  0.30003  0.26987  0.45458  1.0000
  H   H1320     1.0  0.34871  0.47563  0.06807  1.0000
  H   H1321     1.0  0.26872  0.14211  0.31012  1.0000
  C   C739      1.0  0.19592  0.41089  0.01283  1.0000
  H   H1322     1.0  0.22371  0.12617  0.38573  1.0000
  C   C740      1.0  0.24057  0.12908  0.31703  1.0000
  C   C741      1.0  0.35183  0.41439  0.40224  1.0000
  H   H1323     1.0  0.34071  0.47485  0.03492  1.0000
  C   C742      1.0  0.20619  0.07531  0.34141  1.0000
  H   H1324     1.0  0.22709  0.09986  0.40174  1.0000
  C   C743      1.0  0.19896  0.29531  0.04310  1.0000
  C   C744      1.0  0.31427  0.27658  0.45082  1.0000
  H   H1325     1.0  0.22251  0.43472  0.11988  1.0000
  H   H1326     1.0  0.35669  0.44782  0.37099  1.0000
  C   C745      1.0  0.25593  0.14234  0.30235  1.0000
  S   S154      1.0  0.23188  0.00193  0.42648  1.0000
  H   H1327     1.0  0.21610  0.45456  0.07479  1.0000
  H   H1328     1.0  0.38649  0.45256  0.22308  1.0000
  H   H1329     1.0  0.30939  0.29380  0.45031  1.0000
  H   H1330     1.0  0.27339  0.18877  0.45394  1.0000
  H   H1331     1.0  0.26521  0.46587  0.15084  1.0000
  H   H1332     1.0  0.23016  0.01310  0.32326  1.0000
  C   C746      1.0  0.37247  0.47139  0.40234  1.0000
  H   H1333     1.0  0.21510  0.34333  0.14524  1.0000
  S   S155      1.0  0.21406  0.34908  0.00974  1.0000
  C   C747      1.0  0.34738  0.27517  0.46267  1.0000
  H   H1334     1.0  0.37128  0.47391  0.20823  1.0000
  H   H1335     1.0  0.34179  0.29212  0.46345  1.0000
  C   C748      1.0  0.20098  0.39206  0.00547  1.0000
  S   S156      1.0  0.30740  0.32963  0.47490  1.0000
  H   H1336     1.0  0.37938  0.48338  0.43644  1.0000
  H   H1337     1.0  0.26315  0.44165  0.18506  1.0000
  H   H1338     1.0  0.22193  0.48947  0.14210  1.0000
  H   H1339     1.0  0.23301  0.27283  0.48046  1.0000
  C   C749      1.0  0.20343  0.34380  0.13598  1.0000
  H   H1340     1.0  0.32824  0.47163  0.36727  1.0000
  H   H1341     1.0  0.21237  0.24512  0.06084  1.0000
  H   H1342     1.0  0.35600  0.23315  0.48714  1.0000
  C   C750      1.0  0.37863  0.47277  0.34363  1.0000
  H   H1343     1.0  0.20019  0.47165  0.01084  1.0000
  H   H1344     1.0  0.29847  0.49161  0.38972  1.0000
  S   S157      1.0  0.23893  0.48391  0.20275  1.0000
  C   C751      1.0  0.38940  0.48650  0.32415  1.0000
  H   H1345     1.0  0.30984  0.48027  0.09155  1.0000
  C   C752      1.0  0.25619  0.48361  0.11211  1.0000
  C   C753      1.0  0.38510  0.46963  0.21585  1.0000
  H   H1346     1.0  0.19824  0.07880  0.35705  1.0000
  H   H1347     1.0  0.39082  0.48010  0.31002  1.0000
  C   C754      1.0  0.36898  0.24128  0.47777  1.0000
  H   H1348     1.0  0.20855  0.45037  0.19117  1.0000
  H   H1349     1.0  0.19998  0.21493  0.08625  1.0000
  H   H1350     1.0  0.38857  0.27262  0.45201  1.0000
  C   C755      1.0  0.38884  0.48961  0.42102  1.0000
  H   H1351     1.0  0.23502  0.26042  0.98930  1.0000
  H   H1352     1.0  0.20921  0.35095  0.11932  1.0000
  C   C756      1.0  0.32939  0.48718  0.36926  1.0000
  H   H1353     1.0  0.38751  0.20604  0.44345  1.0000
  H   H1354     1.0  0.37148  0.30152  0.48432  1.0000
  H   H1355     1.0  0.33981  0.48800  0.99254  1.0000
  H   H1356     1.0  0.38196  0.23427  0.48641  1.0000
  C   C757      1.0  0.19353  0.48603  0.00025  1.0000
  C   C758      1.0  0.37742  0.49249  0.40326  1.0000
  H   H1357     1.0  0.39277  0.03363  0.07806  1.0000
  H   H1358     1.0  0.32187  0.32303  0.51391  1.0000
  C   C759      1.0  0.34985  0.33573  0.50541  1.0000
  C   C760      1.0  0.19587  0.35435  0.53448  1.0000
  C   C761      1.0  0.35459  0.15680  0.53003  1.0000
  Fe  Fe80      1.0  0.27397  0.29816  0.54869  1.0000
  S   S158      1.0  0.27828  0.30175  0.57948  1.0000
  H   H1359     1.0  0.28871  0.36883  0.77382  1.0000
  H   H1360     1.0  0.22562  0.37201  0.70700  1.0000
  H   H1361     1.0  0.27884  0.39265  0.75663  1.0000
  H   H1362     1.0  0.21009  0.40715  0.68873  1.0000
  H   H1363     1.0  0.34273  0.14761  0.53728  1.0000
  Fe  Fe81      1.0  0.34078  0.06162  0.82165  1.0000
  S   S159      1.0  0.34885  0.07113  0.78647  1.0000
  S   S160      1.0  0.36587  0.04517  0.84058  1.0000
  Fe  Fe82      1.0  0.29449  0.07916  0.82315  1.0000
  S   S161      1.0  0.29882  0.09106  0.78834  1.0000
  Fe  Fe83      1.0  0.32024  0.05993  0.78626  1.0000
  S   S162      1.0  0.32009  0.04598  0.75909  1.0000
  Fe  Fe84      1.0  0.32685  0.10129  0.79126  1.0000
  S   S163      1.0  0.33611  0.13152  0.77230  1.0000
  S   S164      1.0  0.31423  0.04700  0.82105  1.0000
  S   S165      1.0  0.32047  0.09262  0.82660  1.0000
  Fe  Fe85      1.0  0.28650  0.26435  0.84341  1.0000
  S   S166      1.0  0.27011  0.25810  0.82127  1.0000
  S   S167      1.0  0.26506  0.27072  0.87359  1.0000
  Fe  Fe86      1.0  0.32924  0.25140  0.81681  1.0000
  S   S168      1.0  0.31633  0.24399  0.79250  1.0000
  S   S169      1.0  0.36401  0.24667  0.81272  1.0000
  Fe  Fe87      1.0  0.29301  0.27387  0.79595  1.0000
  S   S170      1.0  0.28249  0.29467  0.76721  1.0000
  Fe  Fe88      1.0  0.29475  0.22898  0.82014  1.0000
  S   S171      1.0  0.28341  0.19918  0.82539  1.0000
  S   S172      1.0  0.30762  0.28287  0.81812  1.0000
  S   S173      1.0  0.30961  0.23374  0.84429  1.0000
  C   C762      1.0  0.20802  0.03255  0.50914  1.0000
  Fe  Fe89      1.0  0.22066  0.35630  0.93115  1.0000
  C   C763      1.0  0.38561  0.44604  0.52949  1.0000
  S   S174      1.0  0.24694  0.35729  0.90279  1.0000
  H   H1364     1.0  0.23083  0.99720  0.52632  1.0000
  Fe  Fe90      1.0  0.29710  0.10829  0.49856  1.0000
  H   H1365     1.0  0.26454  0.22833  0.54072  1.0000
  S   S175      1.0  0.20924  0.38011  0.95186  1.0000
  S   S176      1.0  0.23456  0.04764  0.70507  1.0000
  H   H1366     1.0  0.33932  0.99530  0.62024  1.0000
  H   H1367     1.0  0.34919  0.00967  0.68011  1.0000
  Fe  Fe91      1.0  0.22186  0.30927  0.69055  1.0000
  Fe  Fe92      1.0  0.20025  0.33990  0.65676  1.0000
  S   S177      1.0  0.25188  0.29223  0.70129  1.0000
  Fe  Fe93      1.0  0.20606  0.35252  0.97851  1.0000
  Fe  Fe94      1.0  0.35198  0.33192  0.65206  1.0000
  S   S178      1.0  0.34974  0.36261  0.66070  1.0000
  S   S179      1.0  0.32690  0.32823  0.63781  1.0000
  H   H1368     1.0  0.26138  0.38095  0.77943  1.0000
  C   C764      1.0  0.29656  0.12803  0.88918  1.0000
  Fe  Fe95      1.0  0.36445  0.34223  0.68735  1.0000
  S   S180      1.0  0.35215  0.34757  0.72034  1.0000
  C   C765      1.0  0.26262  0.19341  0.49200  1.0000
  C   C766      1.0  0.19441  0.18993  0.67461  1.0000
  S   S181      1.0  0.36434  0.31136  0.67997  1.0000
  S   S182      1.0  0.38358  0.33199  0.63176  1.0000
  C   C767      1.0  0.27280  0.30299  0.68477  1.0000
  C   C768      1.0  0.29314  0.29535  0.68838  1.0000
  C   C769      1.0  0.30985  0.30367  0.67445  1.0000
  C   C770      1.0  0.30620  0.31906  0.65656  1.0000
  C   C771      1.0  0.28585  0.32658  0.65304  1.0000
  C   C772      1.0  0.26916  0.31891  0.66745  1.0000
  H   H1369     1.0  0.29594  0.28312  0.70194  1.0000
  H   H1370     1.0  0.32556  0.29776  0.67721  1.0000
  H   H1371     1.0  0.28295  0.33852  0.63926  1.0000
  H   H1372     1.0  0.25340  0.32505  0.66514  1.0000
  H   H1373     1.0  0.30787  0.99979  0.67340  1.0000
  H   H1374     1.0  0.20844  0.26627  0.79967  1.0000
  H   H1375     1.0  0.25362  0.18353  0.68745  1.0000
  H   H1376     1.0  0.37355  0.12130  0.70910  1.0000
  H   H1377     1.0  0.23712  0.17696  0.52959  1.0000
  H   H1378     1.0  0.27906  0.21999  0.88665  1.0000
  H   H1379     1.0  0.26545  0.19185  0.70448  1.0000
  C   C773      1.0  0.31939  0.14489  0.89996  1.0000
  H   H1380     1.0  0.27425  0.05099  0.68681  1.0000
  H   H1381     1.0  0.31514  0.45454  0.54640  1.0000
  C   C774      1.0  0.34070  0.46671  0.52323  1.0000
  C   C775      1.0  0.37446  0.16975  0.86732  1.0000
  S   S183      1.0  0.24203  0.99673  0.70407  1.0000
  H   H1382     1.0  0.34201  0.47947  0.50903  1.0000
  C   C776      1.0  0.20074  0.36037  0.85242  1.0000
  H   H1383     1.0  0.24871  0.30472  0.80410  1.0000
  C   C777      1.0  0.37679  0.28179  0.75572  1.0000
  H   H1384     1.0  0.25190  0.23323  0.49404  1.0000
  H   H1385     1.0  0.25959  0.99290  0.49987  1.0000
  H   H1386     1.0  0.21792  0.28313  0.87972  1.0000
  H   H1387     1.0  0.35839  0.26660  0.66500  1.0000
  C   C778      1.0  0.30072  0.31061  0.75405  1.0000
  C   C779      1.0  0.30685  0.31381  0.73218  1.0000
  C   C780      1.0  0.32221  0.32568  0.72163  1.0000
  C   C781      1.0  0.33123  0.33468  0.73291  1.0000
  C   C782      1.0  0.32398  0.33268  0.75462  1.0000
  C   C783      1.0  0.30913  0.32024  0.76527  1.0000
  H   H1388     1.0  0.30001  0.30676  0.72344  1.0000
  H   H1389     1.0  0.32693  0.32791  0.70477  1.0000
  H   H1390     1.0  0.33002  0.34059  0.76322  1.0000
  H   H1391     1.0  0.30390  0.31846  0.78209  1.0000
  C   C784      1.0  0.26052  0.29522  0.88060  1.0000
  C   C785      1.0  0.24580  0.29850  0.89887  1.0000
  C   C786      1.0  0.24116  0.31781  0.90507  1.0000
  C   C787      1.0  0.25190  0.33376  0.89365  1.0000
  C   C788      1.0  0.26662  0.33065  0.87519  1.0000
  C   C789      1.0  0.27079  0.31141  0.86852  1.0000
  H   H1392     1.0  0.23786  0.28603  0.90832  1.0000
  H   H1393     1.0  0.22935  0.32015  0.91887  1.0000
  H   H1394     1.0  0.27486  0.34302  0.86616  1.0000
  H   H1395     1.0  0.28216  0.30898  0.85433  1.0000
  H   H1396     1.0  0.26286  0.00773  0.79139  1.0000
  H   H1397     1.0  0.20363  0.01089  0.49265  1.0000
  C   C790      1.0  0.21016  0.40987  0.89496  1.0000
  C   C791      1.0  0.32884  0.13410  0.85111  1.0000
  C   C792      1.0  0.22599  0.10907  0.83241  1.0000
  C   C793      1.0  0.34061  0.99947  0.87806  1.0000
  H   H1398     1.0  0.35025  0.20739  0.81853  1.0000
  H   H1399     1.0  0.26180  0.03025  0.58350  1.0000
  H   H1400     1.0  0.20950  0.32482  0.55142  1.0000
  H   H1401     1.0  0.36018  0.00622  0.83957  1.0000
  C   C794      1.0  0.29748  0.03721  0.75941  1.0000
  C   C795      1.0  0.28713  0.02580  0.77782  1.0000
  C   C796      1.0  0.27040  0.01710  0.77725  1.0000
  H   H1402     1.0  0.21649  0.24074  0.61462  1.0000
  H   H1403     1.0  0.29251  0.02305  0.79232  1.0000
  H   H1404     1.0  0.34268  0.00626  0.65058  1.0000
  H   H1405     1.0  0.23490  0.44997  0.96819  1.0000
  C   C797      1.0  0.32165  0.15108  0.78616  1.0000
  C   C798      1.0  0.30510  0.14636  0.80259  1.0000
  C   C799      1.0  0.29383  0.16127  0.81460  1.0000
  C   C800      1.0  0.29864  0.18117  0.80998  1.0000
  C   C801      1.0  0.31515  0.18614  0.79342  1.0000
  C   C802      1.0  0.32670  0.17103  0.78143  1.0000
  H   H1406     1.0  0.30067  0.13131  0.80582  1.0000
  H   H1407     1.0  0.28121  0.15747  0.82744  1.0000
  H   H1408     1.0  0.31918  0.20141  0.78994  1.0000
  H   H1409     1.0  0.33968  0.17467  0.76882  1.0000
  C   C803      1.0  0.21058  0.37264  0.86226  1.0000
  H   H1410     1.0  0.24279  0.04669  0.83606  1.0000
  C   C804      1.0  0.37900  0.09140  0.86183  1.0000
  C   C805      1.0  0.36979  0.08088  0.85197  1.0000
  C   C806      1.0  0.37574  0.05901  0.85389  1.0000
  C   C807      1.0  0.22464  0.48052  0.87017  1.0000
  H   H1411     1.0  0.27792  0.19267  0.67722  1.0000
  H   H1412     1.0  0.19485  0.27787  0.61287  1.0000
  H   H1413     1.0  0.35848  0.08970  0.84252  1.0000
  H   H1414     1.0  0.36398  0.24583  0.75439  1.0000
  C   C808      1.0  0.20477  0.09476  0.64741  1.0000
  S   S184      1.0  0.21298  0.29694  0.52016  1.0000
  C   C809      1.0  0.26015  0.32227  0.58983  1.0000
  C   C810      1.0  0.25902  0.32341  0.61055  1.0000
  C   C811      1.0  0.24242  0.33699  0.62053  1.0000
  C   C812      1.0  0.22701  0.34959  0.60991  1.0000
  C   C813      1.0  0.22939  0.35043  0.58843  1.0000
  C   C814      1.0  0.24579  0.33639  0.57846  1.0000
  H   H1415     1.0  0.27032  0.31311  0.61929  1.0000
  H   H1416     1.0  0.22558  0.26901  0.62874  1.0000
  H   H1417     1.0  0.24681  0.33604  0.56230  1.0000
  H   H1418     1.0  0.23407  0.25467  0.80532  1.0000
  H   H1419     1.0  0.21818  0.29974  0.83351  1.0000
  H   H1420     1.0  0.28724  0.09822  0.87064  1.0000
  H   H1421     1.0  0.29016  0.12365  0.90636  1.0000
  C   C815      1.0  0.22187  0.13111  0.56323  1.0000
  S   S185      1.0  0.24241  0.49210  0.87639  1.0000
  H   H1422     1.0  0.30461  0.47646  0.96296  1.0000
  H   H1423     1.0  0.24980  0.19568  0.55578  1.0000
  H   H1424     1.0  0.38869  0.07858  0.74703  1.0000
  H   H1425     1.0  0.22220  0.16629  0.51768  1.0000
  S   S186      1.0  0.25892  0.27250  0.54725  1.0000
  H   H1426     1.0  0.37476  0.24512  0.51629  1.0000
  C   C816      1.0  0.34006  0.01026  0.71342  1.0000
  Fe  Fe96      1.0  0.20846  0.00380  0.70046  1.0000
  S   S187      1.0  0.19546  0.43642  0.79690  1.0000
  C   C817      1.0  0.22764  0.21571  0.84745  1.0000
  H   H1427     1.0  0.27760  0.16908  0.87645  1.0000
  H   H1428     1.0  0.21829  0.04171  0.62304  1.0000
  H   H1429     1.0  0.22758  0.36604  0.86106  1.0000
  H   H1430     1.0  0.36186  0.16065  0.87395  1.0000
  H   H1431     1.0  0.25815  0.43043  0.97282  1.0000
  H   H1432     1.0  0.19444  0.03035  0.52227  1.0000
  H   H1433     1.0  0.34729  0.45139  0.51830  1.0000
  C   C818      1.0  0.36639  0.15497  0.50997  1.0000
  S   S188      1.0  0.28353  0.09891  0.53283  1.0000
  H   H1434     1.0  0.38342  0.32213  0.77446  1.0000
  H   H1435     1.0  0.20367  0.42913  0.70169  1.0000
  H   H1436     1.0  0.37194  0.05098  0.74584  1.0000
  H   H1437     1.0  0.22686  0.28178  0.96878  1.0000
  C   C819      1.0  0.19551  0.16204  0.65705  1.0000
  H   H1438     1.0  0.23519  0.20097  0.84154  1.0000
  H   H1439     1.0  0.20460  0.35041  0.51911  1.0000
  H   H1440     1.0  0.22659  0.21252  0.86470  1.0000
  C   C820      1.0  0.27507  0.37759  0.76663  1.0000
  C   C821      1.0  0.34547  0.14072  0.83204  1.0000
  N   N44       1.0  0.32456  0.26356  0.62173  1.0000
  C   C822      1.0  0.33169  0.27463  0.59937  1.0000
  C   C823      1.0  0.32852  0.24002  0.62317  1.0000
  C   C824      1.0  0.30124  0.27143  0.62780  1.0000
  C   C825      1.0  0.33465  0.26867  0.63693  1.0000
  C   C826      1.0  0.35866  0.26205  0.63378  1.0000
  C   C827      1.0  0.32881  0.29895  0.59540  1.0000
  C   C828      1.0  0.28982  0.25991  0.64914  1.0000
  C   C829      1.0  0.34825  0.23004  0.60848  1.0000
  C   C830      1.0  0.35293  0.20605  0.61514  1.0000
  C   C831      1.0  0.36680  0.27073  0.64848  1.0000
  C   C832      1.0  0.33490  0.30821  0.57196  1.0000
  C   C833      1.0  0.26620  0.26801  0.65214  1.0000
  H   H1441     1.0  0.32332  0.27091  0.58881  1.0000
  H   H1442     1.0  0.34853  0.26889  0.59344  1.0000
  H   H1443     1.0  0.32916  0.23156  0.63966  1.0000
  H   H1444     1.0  0.31527  0.23570  0.61920  1.0000
  H   H1445     1.0  0.29335  0.27080  0.61531  1.0000
  H   H1446     1.0  0.29783  0.28820  0.62910  1.0000
  H   H1447     1.0  0.33026  0.28576  0.63688  1.0000
  H   H1448     1.0  0.32857  0.26099  0.65329  1.0000
  H   H1449     1.0  0.36644  0.26789  0.61745  1.0000
  H   H1450     1.0  0.36317  0.24464  0.63781  1.0000
  H   H1451     1.0  0.31240  0.30665  0.60073  1.0000
  H   H1452     1.0  0.33892  0.30335  0.60361  1.0000
  H   H1453     1.0  0.29486  0.26282  0.66247  1.0000
  H   H1454     1.0  0.29271  0.24269  0.65020  1.0000
  H   H1455     1.0  0.34568  0.23411  0.59209  1.0000
  H   H1456     1.0  0.36238  0.23566  0.60826  1.0000
  C   C834      1.0  0.38537  0.03583  0.55949  1.0000
  H   H1457     1.0  0.36596  0.19934  0.60335  1.0000
  H   H1458     1.0  0.35778  0.20125  0.63057  1.0000
  H   H1459     1.0  0.27412  0.17867  0.48991  1.0000
  H   H1460     1.0  0.25000  0.15636  0.51493  1.0000
  H   H1461     1.0  0.37123  0.10286  0.80410  1.0000
  H   H1462     1.0  0.32474  0.30476  0.56308  1.0000
  H   H1463     1.0  0.33270  0.32558  0.56954  1.0000
  H   H1464     1.0  0.35149  0.30168  0.56567  1.0000
  H   H1465     1.0  0.26239  0.28524  0.65147  1.0000
  H   H1466     1.0  0.26002  0.26470  0.63975  1.0000
  H   H1467     1.0  0.25831  0.26025  0.66775  1.0000
  H   H1468     1.0  0.26519  0.10479  0.61847  1.0000
  C   C835      1.0  0.27058  0.36431  0.75348  1.0000
  S   S189      1.0  0.27301  0.28649  0.49542  1.0000
  Fe  Fe97      1.0  0.33337  0.12289  0.50808  1.0000
  H   H1469     1.0  0.21195  0.21817  0.60780  1.0000
  N   N45       1.0  0.19928  0.32165  0.85303  1.0000
  C   C836      1.0  0.22528  0.26234  0.79256  1.0000
  H   H1470     1.0  0.22036  0.22831  0.71115  1.0000
  H   H1471     1.0  0.27119  0.09962  0.89654  1.0000
  C   C837      1.0  0.24650  0.10717  0.83477  1.0000
  C   C838      1.0  0.25144  0.37585  0.74335  1.0000
  C   C839      1.0  0.28759  0.16583  0.88829  1.0000
  N   N46       1.0  0.24581  0.36442  0.72951  1.0000
  H   H1472     1.0  0.19439  0.06034  0.76577  1.0000
  Fe  Fe98      1.0  0.31685  0.08505  0.53578  1.0000
  S   S190      1.0  0.30638  0.23374  0.51719  1.0000
  C   C840      1.0  0.23748  0.17070  0.51566  1.0000
  H   H1473     1.0  0.38537  0.00016  0.86256  1.0000
  H   H1474     1.0  0.35292  0.33097  0.52116  1.0000
  H   H1475     1.0  0.19319  0.09505  0.63813  1.0000
  H   H1476     1.0  0.26204  0.24436  0.77432  1.0000
  H   H1477     1.0  0.25186  0.15205  0.71533  1.0000
  C   C841      1.0  0.38446  0.05549  0.73227  1.0000
  C   C842      1.0  0.26370  0.35929  0.71166  1.0000
  C   C843      1.0  0.27255  0.37805  0.69659  1.0000
  C   C844      1.0  0.22342  0.40141  0.71654  1.0000
  S   S191      1.0  0.38583  0.35112  0.49476  1.0000
  C   C845      1.0  0.29228  0.37036  0.68118  1.0000
  H   H1478     1.0  0.25473  0.39147  0.73466  1.0000
  H   H1479     1.0  0.25899  0.35128  0.70150  1.0000
  H   H1480     1.0  0.27680  0.38795  0.70515  1.0000
  H   H1481     1.0  0.26096  0.38774  0.68707  1.0000
  H   H1482     1.0  0.21891  0.40712  0.73156  1.0000
  H   H1483     1.0  0.23773  0.40707  0.70737  1.0000
  C   C846      1.0  0.20597  0.41173  0.70428  1.0000
  S   S192      1.0  0.38133  0.02734  0.64731  1.0000
  C   C847      1.0  0.36862  0.12367  0.66806  1.0000
  H   H1484     1.0  0.29806  0.38404  0.67010  1.0000
  H   H1485     1.0  0.30480  0.36108  0.68973  1.0000
  H   H1486     1.0  0.28897  0.36044  0.67190  1.0000
  H   H1487     1.0  0.22042  0.04776  0.76799  1.0000
  H   H1488     1.0  0.28139  0.12300  0.75260  1.0000
  H   H1489     1.0  0.24532  0.05751  0.78838  1.0000
  H   H1490     1.0  0.38665  0.14421  0.75327  1.0000
  H   H1491     1.0  0.28262  0.13687  0.86098  1.0000
  C   C848      1.0  0.36646  0.04088  0.55250  1.0000
  C   C849      1.0  0.37118  0.34005  0.57917  1.0000
  C   C850      1.0  0.24164  0.43285  0.97137  1.0000
  C   C851      1.0  0.29075  0.04021  0.74055  1.0000
  H   H1492     1.0  0.29898  0.04864  0.72619  1.0000
  H   H1493     1.0  0.26873  0.20764  0.87174  1.0000
  N   N47       1.0  0.30559  0.14758  0.88453  1.0000
  H   H1494     1.0  0.32015  0.00330  0.85577  1.0000
  H   H1495     1.0  0.36891  0.29043  0.80125  1.0000
  C   C852      1.0  0.21882  0.04363  0.80736  1.0000
  H   H1496     1.0  0.27729  0.16182  0.90395  1.0000
  H   H1497     1.0  0.34955  0.12850  0.88441  1.0000
  H   H1498     1.0  0.24523  0.12255  0.59370  1.0000
  Fe  Fe99      1.0  0.24435  0.02736  0.68105  1.0000
  Fe  Fe100     1.0  0.28765  0.31047  0.50151  1.0000
  C   C853      1.0  0.22564  0.11101  0.57987  1.0000
  C   C854      1.0  0.21621  0.01300  0.49943  1.0000
  Fe  Fe101     1.0  0.28663  0.26488  0.52200  1.0000
  H   H1499     1.0  0.23555  0.10067  0.64297  1.0000
  H   H1500     1.0  0.24707  0.18600  0.59591  1.0000
  H   H1501     1.0  0.28709  0.03727  0.57312  1.0000
  H   H1502     1.0  0.27050  0.12378  0.83290  1.0000
  H   H1503     1.0  0.30988  0.14323  0.91628  1.0000
  S   S193      1.0  0.33038  0.09253  0.50118  1.0000
  C   C855      1.0  0.39012  0.09473  0.52590  1.0000
  H   H1504     1.0  0.36929  0.17330  0.80845  1.0000
  H   H1505     1.0  0.25977  0.10974  0.87366  1.0000
  C   C856      1.0  0.27868  0.12962  0.87786  1.0000
  H   H1506     1.0  0.37616  0.17712  0.87970  1.0000
  C   C857      1.0  0.22401  0.25393  0.52487  1.0000
  H   H1507     1.0  0.34272  0.25547  0.54256  1.0000
  H   H1508     1.0  0.23236  0.29411  0.61628  1.0000
  H   H1509     1.0  0.21940  0.09515  0.83577  1.0000
  H   H1510     1.0  0.24903  0.15909  0.82145  1.0000
  H   H1511     1.0  0.19956  0.19405  0.84475  1.0000
  H   H1512     1.0  0.22057  0.03596  0.51500  1.0000
  H   H1513     1.0  0.32517  0.01446  0.72445  1.0000
  H   H1514     1.0  0.38503  0.31384  0.55347  1.0000
  C   C858      1.0  0.19349  0.33403  0.55067  1.0000
  H   H1515     1.0  0.20481  0.36347  0.53941  1.0000
  H   H1516     1.0  0.24578  0.14775  0.61767  1.0000
  H   H1517     1.0  0.21215  0.11200  0.59329  1.0000
  S   S194      1.0  0.36116  0.13914  0.49511  1.0000
  C   C859      1.0  0.23554  0.08295  0.61955  1.0000
  C   C860      1.0  0.38550  0.18079  0.51177  1.0000
  H   H1518     1.0  0.28481  0.36108  0.74125  1.0000
  C   C861      1.0  0.24284  0.14506  0.82416  1.0000
  H   H1519     1.0  0.30875  0.11417  0.88556  1.0000
  H   H1520     1.0  0.23095  0.26046  0.73054  1.0000
  H   H1521     1.0  0.27716  0.16487  0.60909  1.0000
  H   H1522     1.0  0.34351  0.01581  0.87211  1.0000
  H   H1523     1.0  0.23777  0.22743  0.83992  1.0000
  C   C862      1.0  0.26240  0.20727  0.76776  1.0000
  C   C863      1.0  0.24860  0.18932  0.61086  1.0000
  H   H1524     1.0  0.35383  0.12940  0.67860  1.0000
  C   C864      1.0  0.27806  0.23149  0.73619  1.0000
  C   C865      1.0  0.29674  0.23217  0.74543  1.0000
  C   C866      1.0  0.27496  0.18781  0.75815  1.0000
  C   C867      1.0  0.23056  0.33136  0.73330  1.0000
  H   H1525     1.0  0.22316  0.09982  0.73218  1.0000
  H   H1526     1.0  0.22586  0.09758  0.57295  1.0000
  C   C868      1.0  0.31664  0.23299  0.72848  1.0000
  C   C869      1.0  0.26828  0.16750  0.77118  1.0000
  C   C870      1.0  0.22648  0.37704  0.72131  1.0000
  H   H1527     1.0  0.22704  0.02935  0.80089  1.0000
  H   H1528     1.0  0.27080  0.20866  0.77951  1.0000
  H   H1529     1.0  0.36981  0.18229  0.85399  1.0000
  N   N48       1.0  0.20047  0.05483  0.79714  1.0000
  H   H1530     1.0  0.23271  0.42556  0.98663  1.0000
  H   H1531     1.0  0.20825  0.22736  0.82472  1.0000
  H   H1532     1.0  0.28321  0.21968  0.72598  1.0000
  H   H1533     1.0  0.27495  0.24697  0.72526  1.0000
  H   H1534     1.0  0.30015  0.21823  0.75796  1.0000
  H   H1535     1.0  0.29329  0.24647  0.75221  1.0000
  H   H1536     1.0  0.27320  0.18900  0.74194  1.0000
  H   H1537     1.0  0.29189  0.18619  0.75753  1.0000
  H   H1538     1.0  0.21278  0.07774  0.73245  1.0000
  H   H1539     1.0  0.34008  0.12171  0.93253  1.0000
  S   S195      1.0  0.20986  0.17157  0.80908  1.0000
  H   H1540     1.0  0.22588  0.23200  0.78702  1.0000
  H   H1541     1.0  0.26263  0.30517  0.82377  1.0000
  C   C871      1.0  0.38304  0.10711  0.56647  1.0000
  C   C872      1.0  0.22502  0.09997  0.63295  1.0000
  H   H1542     1.0  0.32950  0.23409  0.73548  1.0000
  H   H1543     1.0  0.32143  0.21852  0.72184  1.0000
  H   H1544     1.0  0.31421  0.24701  0.71568  1.0000
  H   H1545     1.0  0.27938  0.15373  0.76579  1.0000
  H   H1546     1.0  0.26828  0.16620  0.78789  1.0000
  H   H1547     1.0  0.25227  0.16730  0.76980  1.0000
  C   C873      1.0  0.29338  0.36919  0.93182  1.0000
  H   H1548     1.0  0.27438  0.07722  0.62362  1.0000
  N   N49       1.0  0.25584  0.20990  0.60655  1.0000
  C   C874      1.0  0.24278  0.22641  0.59260  1.0000
  C   C875      1.0  0.27824  0.20658  0.59446  1.0000
  C   C876      1.0  0.25505  0.21726  0.62632  1.0000
  C   C877      1.0  0.22278  0.08321  0.73992  1.0000
  C   C878      1.0  0.28790  0.22650  0.58515  1.0000
  C   C879      1.0  0.31136  0.22071  0.57639  1.0000
  H   H1549     1.0  0.36751  0.02406  0.69864  1.0000
  H   H1550     1.0  0.24821  0.24154  0.58842  1.0000
  H   H1551     1.0  0.24463  0.22147  0.57751  1.0000
  H   H1552     1.0  0.27980  0.19874  0.58122  1.0000
  H   H1553     1.0  0.28873  0.19560  0.60464  1.0000
  H   H1554     1.0  0.26996  0.21070  0.63203  1.0000
  H   H1555     1.0  0.25379  0.23465  0.62280  1.0000
  H   H1556     1.0  0.19685  0.42198  0.90070  1.0000
  H   H1557     1.0  0.30990  0.48285  0.53715  1.0000
  H   H1558     1.0  0.28544  0.23609  0.59716  1.0000
  H   H1559     1.0  0.28085  0.23626  0.57176  1.0000
  H   H1560     1.0  0.31437  0.21175  0.56372  1.0000
  H   H1561     1.0  0.31775  0.23526  0.56959  1.0000
  H   H1562     1.0  0.31973  0.21103  0.58891  1.0000
  H   H1563     1.0  0.29938  0.07911  0.58975  1.0000
  H   H1564     1.0  0.31189  0.03744  0.62817  1.0000
  S   S196      1.0  0.20788  0.18374  0.71122  1.0000
  H   H1565     1.0  0.24003  0.25600  0.52052  1.0000
  S   S197      1.0  0.19689  0.02155  0.72687  1.0000
  H   H1566     1.0  0.38978  0.11372  0.73795  1.0000
  C   C880      1.0  0.24081  0.34383  0.74307  1.0000
  N   N50       1.0  0.25844  0.22775  0.75215  1.0000
  H   H1567     1.0  0.21718  0.33162  0.86995  1.0000
  H   H1568     1.0  0.22219  0.21423  0.64124  1.0000
  C   C881      1.0  0.26986  0.04889  0.60152  1.0000
  C   C882      1.0  0.35486  0.26529  0.53663  1.0000
  C   C883      1.0  0.25262  0.31496  0.81262  1.0000
  C   C884      1.0  0.20598  0.22426  0.84206  1.0000
  C   C885      1.0  0.36635  0.20570  0.81018  1.0000
  H   H1569     1.0  0.24729  0.20346  0.77750  1.0000
  S   S198      1.0  0.20854  0.34411  0.68564  1.0000
  C   C886      1.0  0.33232  0.33102  0.50128  1.0000
  H   H1570     1.0  0.36290  0.26413  0.72946  1.0000
  H   H1571     1.0  0.22118  0.11584  0.62317  1.0000
  C   C887      1.0  0.31755  0.15276  0.86219  1.0000
  H   H1572     1.0  0.25853  0.11052  0.57232  1.0000
  C   C888      1.0  0.35965  0.36077  0.58595  1.0000
  C   C889      1.0  0.21911  0.23224  0.60173  1.0000
  C   C890      1.0  0.26320  0.16967  0.62111  1.0000
  C   C891      1.0  0.29102  0.04303  0.65728  1.0000
  H   H1573     1.0  0.22675  0.09738  0.50642  1.0000
  H   H1574     1.0  0.23792  0.11767  0.74990  1.0000
  H   H1575     1.0  0.30865  0.08990  0.61941  1.0000
  H   H1576     1.0  0.36517  0.36289  0.59935  1.0000
  S   S199      1.0  0.24238  0.00930  0.75833  1.0000
  H   H1577     1.0  0.27681  0.34765  0.71777  1.0000
  C   C892      1.0  0.25117  0.24564  0.76382  1.0000
  N   N51       1.0  0.25469  0.42156  0.91444  1.0000
  C   C893      1.0  0.25280  0.43219  0.93235  1.0000
  C   C894      1.0  0.26628  0.43295  0.89409  1.0000
  C   C895      1.0  0.23280  0.42300  0.91178  1.0000
  C   C896      1.0  0.26479  0.39850  0.91908  1.0000
  C   C897      1.0  0.28630  0.39304  0.92539  1.0000
  C   C898      1.0  0.24016  0.42269  0.95396  1.0000
  C   C899      1.0  0.23096  0.41650  0.89181  1.0000
  C   C900      1.0  0.28375  0.44352  0.89548  1.0000
  C   C901      1.0  0.29613  0.45132  0.87363  1.0000
  H   H1578     1.0  0.19528  0.06670  0.83740  1.0000
  S   S200      1.0  0.30154  0.13937  0.50191  1.0000
  H   H1579     1.0  0.24529  0.44909  0.92821  1.0000
  H   H1580     1.0  0.26839  0.43233  0.93483  1.0000
  H   H1581     1.0  0.27294  0.42227  0.88270  1.0000
  H   H1582     1.0  0.25526  0.44609  0.88624  1.0000
  H   H1583     1.0  0.22354  0.43934  0.91154  1.0000
  H   H1584     1.0  0.22441  0.41321  0.92550  1.0000
  H   H1585     1.0  0.25415  0.38943  0.93149  1.0000
  H   H1586     1.0  0.26729  0.39135  0.90520  1.0000
  H   H1587     1.0  0.28588  0.39991  0.93889  1.0000
  H   H1588     1.0  0.29824  0.39863  0.91181  1.0000
  H   H1589     1.0  0.22334  0.42541  0.95354  1.0000
  H   H1590     1.0  0.24607  0.40553  0.95855  1.0000
  H   H1591     1.0  0.26407  0.13944  0.88508  1.0000
  H   H1592     1.0  0.23195  0.42998  0.87829  1.0000
  H   H1593     1.0  0.27664  0.45744  0.90288  1.0000
  H   H1594     1.0  0.29486  0.43273  0.90490  1.0000
  H   H1595     1.0  0.20425  0.30264  0.89536  1.0000
  C   C902      1.0  0.35029  0.12453  0.91670  1.0000
  N   N52       1.0  0.37535  0.46820  0.53227  1.0000
  C   C903      1.0  0.22123  0.27125  0.98373  1.0000
  H   H1596     1.0  0.22924  0.07238  0.80775  1.0000
  H   H1597     1.0  0.30567  0.19088  0.87284  1.0000
  S   S201      1.0  0.32259  0.11367  0.54288  1.0000
  S   S202      1.0  0.25910  0.32265  0.52423  1.0000
  C   C904      1.0  0.38045  0.48307  0.51151  1.0000
  H   H1598     1.0  0.19960  0.26737  0.91444  1.0000
  C   C905      1.0  0.38117  0.45959  0.57051  1.0000
  H   H1599     1.0  0.38734  0.11566  0.59474  1.0000
  H   H1600     1.0  0.30429  0.43790  0.86579  1.0000
  H   H1601     1.0  0.22388  0.21833  0.67663  1.0000
  H   H1602     1.0  0.33909  0.19942  0.61629  1.0000
  H   H1603     1.0  0.26909  0.15562  0.72954  1.0000
  H   H1604     1.0  0.23371  0.27547  0.60050  1.0000
  C   C906      1.0  0.36752  0.04939  0.59086  1.0000
  H   H1605     1.0  0.36447  0.46055  0.57834  1.0000
  H   H1606     1.0  0.25526  0.33295  0.74724  1.0000
  H   H1607     1.0  0.22370  0.33693  0.81244  1.0000
  C   C907      1.0  0.27403  0.10794  0.87984  1.0000
  C   C908      1.0  0.26072  0.07089  0.58945  1.0000
  C   C909      1.0  0.23751  0.21157  0.64555  1.0000
  C   C910      1.0  0.24845  0.12384  0.75598  1.0000
  H   H1608     1.0  0.30903  0.15877  0.53270  1.0000
  H   H1609     1.0  0.21213  0.37374  0.73303  1.0000
  C   C911      1.0  0.31952  0.99920  0.87295  1.0000
  H   H1610     1.0  0.26860  0.17299  0.63401  1.0000
  H   H1611     1.0  0.24991  0.22349  0.66641  1.0000
  H   H1612     1.0  0.21488  0.34008  0.73063  1.0000
  H   H1613     1.0  0.24359  0.30014  0.74922  1.0000
  H   H1614     1.0  0.32922  0.16228  0.86133  1.0000
  C   C912      1.0  0.26603  0.19469  0.54792  1.0000
  H   H1615     1.0  0.23461  0.13057  0.54906  1.0000
  H   H1616     1.0  0.37548  0.13732  0.65832  1.0000
  H   H1617     1.0  0.24770  0.06881  0.58334  1.0000
  C   C913      1.0  0.25485  0.12520  0.83072  1.0000
  H   H1618     1.0  0.19943  0.23919  0.84773  1.0000
  H   H1619     1.0  0.23958  0.15407  0.64348  1.0000
  C   C914      1.0  0.24200  0.22638  0.74118  1.0000
  H   H1620     1.0  0.24105  0.06861  0.63093  1.0000
  H   H1621     1.0  0.19894  0.13037  0.82200  1.0000
  H   H1622     1.0  0.33896  0.05404  0.63258  1.0000
  H   H1623     1.0  0.33431  0.06079  0.59379  1.0000
  C   C915      1.0  0.27458  0.20520  0.88641  1.0000
  C   C916      1.0  0.37348  0.25291  0.73937  1.0000
  S   S203      1.0  0.26175  0.08231  0.84258  1.0000
  H   H1624     1.0  0.32107  0.10136  0.59342  1.0000
  H   H1625     1.0  0.24100  0.33729  0.63673  1.0000
  H   H1626     1.0  0.27284  0.07509  0.57530  1.0000
  H   H1627     1.0  0.23266  0.19005  0.62076  1.0000
  H   H1628     1.0  0.36798  0.05279  0.60558  1.0000
  C   C917      1.0  0.37662  0.22262  0.80524  1.0000
  Fe  Fe102     1.0  0.23074  0.01743  0.72793  1.0000
  C   C918      1.0  0.27430  0.21309  0.53934  1.0000
  H   H1629     1.0  0.34264  0.36077  0.59100  1.0000
  Fe  Fe103     1.0  0.37272  0.06023  0.65309  1.0000
  H   H1630     1.0  0.23778  0.37920  0.75632  1.0000
  H   H1631     1.0  0.22113  0.14519  0.56951  1.0000
  C   C919      1.0  0.37711  0.18641  0.80456  1.0000
  C   C920      1.0  0.20583  0.15370  0.69096  1.0000
  H   H1632     1.0  0.32613  0.15913  0.89715  1.0000
  N   N53       1.0  0.27662  0.12480  0.72146  1.0000
  C   C921      1.0  0.30008  0.11958  0.71462  1.0000
  C   C922      1.0  0.26867  0.14840  0.71645  1.0000
  C   C923      1.0  0.27151  0.11735  0.74502  1.0000
  C   C924      1.0  0.26576  0.11356  0.71188  1.0000
  C   C925      1.0  0.27094  0.11638  0.68769  1.0000
  C   C926      1.0  0.31065  0.09620  0.72101  1.0000
  C   C927      1.0  0.28091  0.16126  0.69665  1.0000
  C   C928      1.0  0.25834  0.10436  0.68059  1.0000
  C   C929      1.0  0.33415  0.09306  0.71267  1.0000
  H   H1633     1.0  0.30728  0.12896  0.72136  1.0000
  H   H1634     1.0  0.30501  0.12415  0.69731  1.0000
  H   H1635     1.0  0.27520  0.09983  0.74931  1.0000
  H   H1636     1.0  0.26881  0.09632  0.71858  1.0000
  H   H1637     1.0  0.24858  0.11899  0.71609  1.0000
  H   H1638     1.0  0.28778  0.11034  0.68187  1.0000
  H   H1639     1.0  0.26650  0.13312  0.68017  1.0000
  H   H1640     1.0  0.30849  0.09106  0.73832  1.0000
  H   H1641     1.0  0.30435  0.08582  0.71480  1.0000
  H   H1642     1.0  0.29606  0.16221  0.69969  1.0000
  H   H1643     1.0  0.28440  0.15418  0.68268  1.0000
  H   H1644     1.0  0.38172  0.44282  0.51559  1.0000
  H   H1645     1.0  0.26007  0.08777  0.68928  1.0000
  H   H1646     1.0  0.24148  0.11183  0.68338  1.0000
  H   H1647     1.0  0.26395  0.10437  0.66356  1.0000
  H   H1648     1.0  0.34088  0.10286  0.71922  1.0000
  H   H1649     1.0  0.34148  0.07623  0.71735  1.0000
  H   H1650     1.0  0.33764  0.09762  0.69531  1.0000
  Fe  Fe104     1.0  0.20202  0.04975  0.70163  1.0000
  C   C930      1.0  0.20232  0.29179  0.88627  1.0000
  C   C931      1.0  0.36012  0.30372  0.79127  1.0000
  C   C932      1.0  0.34993  0.32075  0.80421  1.0000
  H   H1651     1.0  0.35892  0.14325  0.83713  1.0000
  H   H1652     1.0  0.36466  0.32302  0.75990  1.0000
  H   H1653     1.0  0.35631  0.13911  0.91438  1.0000
  C   C933      1.0  0.29520  0.21159  0.52875  1.0000
  H   H1654     1.0  0.30799  0.45951  0.87500  1.0000
  H   H1655     1.0  0.32277  0.02060  0.68841  1.0000
  H   H1656     1.0  0.34738  0.29825  0.78775  1.0000
  H   H1657     1.0  0.37716  0.47755  0.49858  1.0000
  C   C934      1.0  0.27054  0.09092  0.61083  1.0000
  H   H1658     1.0  0.38364  0.26383  0.64795  1.0000
  H   H1659     1.0  0.33898  0.31436  0.81842  1.0000
  H   H1660     1.0  0.36197  0.32580  0.80935  1.0000
  H   H1661     1.0  0.37479  0.49030  0.55105  1.0000
  H   H1662     1.0  0.33973  0.25908  0.50562  1.0000
  H   H1663     1.0  0.20832  0.40767  0.87982  1.0000
  H   H1664     1.0  0.36385  0.11110  0.91595  1.0000
  H   H1665     1.0  0.36855  0.27359  0.77092  1.0000
  H   H1666     1.0  0.20368  0.48052  0.90027  1.0000
  H   H1667     1.0  0.28832  0.10625  0.58084  1.0000
  C   C935      1.0  0.39078  0.04784  0.86588  1.0000
  C   C936      1.0  0.23273  0.32708  0.82438  1.0000
  S   S204      1.0  0.20344  0.36099  0.62462  1.0000
  H   H1668     1.0  0.20790  0.07905  0.65778  1.0000
  C   C937      1.0  0.23477  0.22443  0.66225  1.0000
  C   C938      1.0  0.23588  0.05634  0.80464  1.0000
  H   H1669     1.0  0.33354  0.11092  0.90230  1.0000
  C   C939      1.0  0.20166  0.17513  0.69133  1.0000
  C   C940      1.0  0.19772  0.45907  0.86182  1.0000
  H   H1670     1.0  0.36477  0.33957  0.56569  1.0000
  C   C941      1.0  0.31384  0.47434  0.97516  1.0000
  H   H1671     1.0  0.19832  0.08680  0.80076  1.0000
  C   C942      1.0  0.35736  0.17143  0.54036  1.0000
  H   H1672     1.0  0.22703  0.12443  0.50527  1.0000
  H   H1673     1.0  0.21784  0.36076  0.57994  1.0000
  C   C943      1.0  0.21707  0.24348  0.71637  1.0000
  H   H1674     1.0  0.22764  0.22289  0.75281  1.0000
  C   C944      1.0  0.38325  0.47434  0.54849  1.0000
  C   C945      1.0  0.20678  0.47637  0.88509  1.0000
  C   C946      1.0  0.22486  0.28181  0.61466  1.0000
  H   H1675     1.0  0.30962  0.46565  0.52053  1.0000
  H   H1676     1.0  0.23772  0.33734  0.83203  1.0000
  H   H1677     1.0  0.35472  0.02974  0.72414  1.0000
  H   H1678     1.0  0.26161  0.32614  0.80096  1.0000
  C   C947      1.0  0.20768  0.27148  0.52595  1.0000
  C   C948      1.0  0.22869  0.47454  0.85073  1.0000
  C   C949      1.0  0.21380  0.08167  0.76342  1.0000
  H   H1679     1.0  0.26919  0.03376  0.72536  1.0000
  H   H1680     1.0  0.29428  0.36137  0.91876  1.0000
  C   C950      1.0  0.22017  0.31184  0.84120  1.0000
  C   C951      1.0  0.27585  0.03247  0.58774  1.0000
  H   H1681     1.0  0.24349  0.40333  0.88725  1.0000
  Fe  Fe105     1.0  0.38266  0.36113  0.64245  1.0000
  C   C952      1.0  0.21440  0.12891  0.82474  1.0000
  C   C953      1.0  0.38832  0.11870  0.69724  1.0000
  H   H1682     1.0  0.32363  0.19082  0.51806  1.0000
  H   H1683     1.0  0.22340  0.07893  0.61357  1.0000
  H   H1684     1.0  0.34892  0.45671  0.55367  1.0000
  H   H1685     1.0  0.37931  0.43432  0.54309  1.0000
  H   H1686     1.0  0.28228  0.36270  0.94584  1.0000
  H   H1687     1.0  0.36427  0.29177  0.74729  1.0000
  H   H1688     1.0  0.34423  0.48424  0.54492  1.0000
  C   C954      1.0  0.26869  0.18372  0.69117  1.0000
  H   H1689     1.0  0.28334  0.01718  0.59646  1.0000
  H   H1690     1.0  0.30909  0.36550  0.93576  1.0000
  H   H1691     1.0  0.33804  0.99706  0.89538  1.0000
  H   H1692     1.0  0.37931  0.27135  0.50994  1.0000
  H   H1693     1.0  0.35271  0.13813  0.60249  1.0000
  C   C955      1.0  0.24109  0.18740  0.49562  1.0000
  H   H1694     1.0  0.34096  0.33463  0.79498  1.0000
  S   S205      1.0  0.37291  0.20496  0.54211  1.0000
  C   C956      1.0  0.29933  0.17379  0.53480  1.0000
  C   C957      1.0  0.25078  0.04542  0.81967  1.0000
  H   H1695     1.0  0.25651  0.02854  0.81892  1.0000
  H   H1696     1.0  0.23220  0.22020  0.52770  1.0000
  H   H1697     1.0  0.26377  0.13670  0.63530  1.0000
  C   C958      1.0  0.37469  0.31210  0.77051  1.0000
  H   H1698     1.0  0.20860  0.36186  0.83570  1.0000
  H   H1699     1.0  0.28407  0.04927  0.60675  1.0000
  C   C959      1.0  0.20752  0.24685  0.58497  1.0000
  H   H1700     1.0  0.22871  0.11769  0.78678  1.0000
  H   H1701     1.0  0.24021  0.32834  0.71804  1.0000
  H   H1702     1.0  0.34577  0.13373  0.57996  1.0000
  H   H1703     1.0  0.22800  0.20107  0.49724  1.0000
  C   C960      1.0  0.22304  0.14684  0.82028  1.0000
  H   H1704     1.0  0.24867  0.24737  0.71053  1.0000
  H   H1705     1.0  0.21853  0.45883  0.83170  1.0000
  H   H1706     1.0  0.25184  0.09774  0.78291  1.0000
  C   C961      1.0  0.21962  0.23374  0.52877  1.0000
  C   C962      1.0  0.30184  0.01542  0.88258  1.0000
  C   C963      1.0  0.30585  0.10099  0.60460  1.0000
  H   H1707     1.0  0.34300  0.04300  0.70179  1.0000
  H   H1708     1.0  0.30015  0.06966  0.68986  1.0000
  S   S206      1.0  0.26878  0.15183  0.55496  1.0000
  C   C964      1.0  0.23555  0.24580  0.72428  1.0000
  H   H1709     1.0  0.23018  0.34653  0.75824  1.0000
  H   H1710     1.0  0.23086  0.30338  0.85213  1.0000
  H   H1711     1.0  0.29911  0.11702  0.60789  1.0000
  H   H1712     1.0  0.36947  0.01020  0.89493  1.0000
  C   C965      1.0  0.24644  0.10862  0.58695  1.0000
  C   C966      1.0  0.21508  0.46400  0.84644  1.0000
  H   H1713     1.0  0.34905  0.99570  0.72167  1.0000
  S   S207      1.0  0.33961  0.07639  0.66386  1.0000
  H   H1714     1.0  0.31733  0.12871  0.84556  1.0000
  C   C967      1.0  0.30279  0.06251  0.67650  1.0000
  H   H1715     1.0  0.20635  0.13063  0.67344  1.0000
  C   C968      1.0  0.22799  0.31014  0.74769  1.0000
  C   C969      1.0  0.29117  0.09403  0.59492  1.0000
  H   H1716     1.0  0.26776  0.34926  0.76416  1.0000
  H   H1717     1.0  0.21877  0.31231  0.76347  1.0000
  H   H1718     1.0  0.21409  0.25642  0.70275  1.0000
  H   H1719     1.0  0.23064  0.27720  0.78424  1.0000
  H   H1720     1.0  0.38313  0.13763  0.57339  1.0000
  H   H1721     1.0  0.38798  0.06835  0.79691  1.0000
  H   H1722     1.0  0.21709  0.25391  0.76730  1.0000
  Fe  Fe106     1.0  0.24626  0.29596  0.52091  1.0000
  H   H1723     1.0  0.24256  0.47759  0.83917  1.0000
  C   C970      1.0  0.32477  0.05349  0.64433  1.0000
  H   H1724     1.0  0.29969  0.18642  0.90116  1.0000
  S   S208      1.0  0.21199  0.03248  0.67512  1.0000
  H   H1725     1.0  0.24330  0.14119  0.75370  1.0000
  C   C971      1.0  0.32128  0.06314  0.66139  1.0000
  H   H1726     1.0  0.36566  0.26061  0.54776  1.0000
  C   C972      1.0  0.28797  0.05204  0.67470  1.0000
  H   H1727     1.0  0.21974  0.30194  0.74088  1.0000
  H   H1728     1.0  0.26449  0.05310  0.81530  1.0000
  H   H1729     1.0  0.20983  0.39472  0.90635  1.0000
  H   H1730     1.0  0.37478  0.10833  0.85984  1.0000
  H   H1731     1.0  0.26185  0.20199  0.90022  1.0000
  H   H1732     1.0  0.28554  0.46261  0.86378  1.0000
  C   C973      1.0  0.27866  0.17501  0.54560  1.0000
  H   H1733     1.0  0.37763  0.09232  0.57546  1.0000
  H   H1734     1.0  0.30703  0.16322  0.85176  1.0000
  H   H1735     1.0  0.37227  0.08868  0.72818  1.0000
  H   H1736     1.0  0.20925  0.30096  0.57966  1.0000
  H   H1737     1.0  0.33657  0.12039  0.86145  1.0000
  S   S209      1.0  0.30316  0.28787  0.52629  1.0000
  H   H1738     1.0  0.21415  0.26127  0.57808  1.0000
  H   H1739     1.0  0.38962  0.11150  0.51841  1.0000
  C   C974      1.0  0.36701  0.26188  0.51484  1.0000
  Fe  Fe107     1.0  0.29062  0.12853  0.53644  1.0000
  H   H1740     1.0  0.23882  0.07349  0.73732  1.0000
  C   C975      1.0  0.35207  0.02789  0.70911  1.0000
  C   C976      1.0  0.34856  0.05416  0.58404  1.0000
  C   C977      1.0  0.24559  0.11496  0.77957  1.0000
  H   H1741     1.0  0.19420  0.29693  0.62771  1.0000
  C   C978      1.0  0.22880  0.24749  0.77751  1.0000
  H   H1742     1.0  0.20689  0.13275  0.55848  1.0000
  H   H1743     1.0  0.22558  0.08435  0.77070  1.0000
  H   H1744     1.0  0.36729  0.32689  0.59233  1.0000
  N   N54       1.0  0.25329  0.08832  0.60174  1.0000
  S   S210      1.0  0.32402  0.05391  0.55731  1.0000
  H   H1745     1.0  0.24729  0.21287  0.73310  1.0000
  H   H1746     1.0  0.25368  0.12284  0.78690  1.0000
  H   H1747     1.0  0.21170  0.14217  0.70370  1.0000
  C   C979      1.0  0.25235  0.15092  0.62990  1.0000
  N   N55       1.0  0.38965  0.29557  0.75932  1.0000
  H   H1748     1.0  0.36604  0.03736  0.53778  1.0000
  C   C980      1.0  0.29359  0.18707  0.88708  1.0000
  S   S211      1.0  0.21650  0.30602  0.66017  1.0000
  C   C981      1.0  0.30760  0.19196  0.52652  1.0000
  H   H1749     1.0  0.35115  0.12827  0.82264  1.0000
  C   C982      1.0  0.30941  0.04401  0.64195  1.0000
  C   C983      1.0  0.37258  0.18375  0.53112  1.0000
  H   H1750     1.0  0.25827  0.04324  0.61537  1.0000
  C   C984      1.0  0.35552  0.12680  0.59207  1.0000
  C   C985      1.0  0.27386  0.03176  0.74006  1.0000
  H   H1751     1.0  0.22139  0.01339  0.62876  1.0000
  H   H1752     1.0  0.24144  0.19464  0.65293  1.0000
  S   S212      1.0  0.22098  0.32882  0.95827  1.0000
  H   H1753     1.0  0.19936  0.48374  0.98383  1.0000
  S   S213      1.0  0.27223  0.03041  0.65442  1.0000
  H   H1754     1.0  0.20859  0.23860  0.57224  1.0000
  H   H1755     1.0  0.33894  0.15543  0.82185  1.0000
  C   C986      1.0  0.31742  0.46750  0.53248  1.0000
  C   C987      1.0  0.34800  0.04985  0.56487  1.0000
  H   H1756     1.0  0.34714  0.17374  0.55521  1.0000
  H   H1757     1.0  0.25195  0.26105  0.75269  1.0000
  H   H1758     1.0  0.38782  0.29414  0.52646  1.0000
  C   C988      1.0  0.33836  0.12618  0.89961  1.0000
  C   C989      1.0  0.38585  0.03991  0.57878  1.0000
  H   H1759     1.0  0.37734  0.09437  0.68884  1.0000
  H   H1760     1.0  0.22784  0.24115  0.65665  1.0000
  H   H1761     1.0  0.26405  0.19693  0.50684  1.0000
  H   H1762     1.0  0.36482  0.28813  0.64364  1.0000
  H   H1763     1.0  0.36198  0.37432  0.57269  1.0000
  H   H1764     1.0  0.35072  0.11202  0.60174  1.0000
  C   C990      1.0  0.26361  0.02018  0.75842  1.0000
  C   C991      1.0  0.35212  0.46927  0.53952  1.0000
  H   H1765     1.0  0.34732  0.28213  0.53604  1.0000
  H   H1766     1.0  0.20963  0.31992  0.59383  1.0000
  H   H1767     1.0  0.38125  0.00201  0.80437  1.0000
  C   C992      1.0  0.20201  0.33716  0.86455  1.0000
  C   C993      1.0  0.37871  0.12234  0.58180  1.0000
  H   H1768     1.0  0.19790  0.10660  0.65745  1.0000
  H   H1769     1.0  0.37423  0.09281  0.53497  1.0000
  H   H1770     1.0  0.29855  0.99928  0.71100  1.0000
  H   H1771     1.0  0.21337  0.03761  0.82443  1.0000
  H   H1772     1.0  0.20301  0.37207  0.87906  1.0000
  C   C994      1.0  0.19616  0.11613  0.51683  1.0000
  C   C995      1.0  0.35241  0.26822  0.49882  1.0000
  H   H1773     1.0  0.20278  0.24423  0.72898  1.0000
  H   H1774     1.0  0.38348  0.08746  0.49892  1.0000
  C   C996      1.0  0.21799  0.11384  0.50273  1.0000
  H   H1775     1.0  0.37990  0.05470  0.71779  1.0000
  C   C997      1.0  0.38871  0.26407  0.74361  1.0000
  C   C998      1.0  0.20728  0.06017  0.77347  1.0000
  C   C999      1.0  0.33549  0.00726  0.69293  1.0000
  H   H1776     1.0  0.37231  0.11488  0.55539  1.0000
  H   H1777     1.0  0.22431  0.02766  0.60194  1.0000
  H   H1778     1.0  0.33063  0.46920  0.96833  1.0000
  H   H1779     1.0  0.36500  0.11539  0.65741  1.0000
  H   H1780     1.0  0.29985  0.01189  0.89996  1.0000
  H   H1781     1.0  0.28695  0.01508  0.87857  1.0000
  H   H1782     1.0  0.38541  0.48242  0.58646  1.0000
  H   H1783     1.0  0.19843  0.11177  0.53329  1.0000
  C   C1000     1.0  0.38411  0.10850  0.68079  1.0000
  H   H1784     1.0  0.30513  0.03153  0.87622  1.0000
  H   H1785     1.0  0.21135  0.26198  0.98040  1.0000
  H   H1786     1.0  0.20857  0.38932  0.85376  1.0000
  S   S214      1.0  0.19378  0.20564  0.53878  1.0000
  C   C1001     1.0  0.39216  0.46593  0.58457  1.0000
  C   C1002     1.0  0.20203  0.29092  0.61315  1.0000
  C   C1003     1.0  0.38239  0.16647  0.50123  1.0000
  S   S215      1.0  0.22191  0.48971  0.93825  1.0000
  C   C1004     1.0  0.38689  0.07779  0.73126  1.0000
  H   H1787     1.0  0.34451  0.28499  0.49846  1.0000
  H   H1788     1.0  0.39023  0.45542  0.60035  1.0000
  H   H1789     1.0  0.31323  0.00125  0.63546  1.0000
  C   C1005     1.0  0.20055  0.30851  0.59317  1.0000
  H   H1790     1.0  0.20301  0.04633  0.49699  1.0000
  C   C1006     1.0  0.38729  0.10090  0.79447  1.0000
  H   H1791     1.0  0.19997  0.09464  0.76522  1.0000
  S   S216      1.0  0.19597  0.14815  0.76662  1.0000
  H   H1792     1.0  0.19696  0.02453  0.77488  1.0000
  H   H1793     1.0  0.39081  0.13482  0.68899  1.0000
  H   H1794     1.0  0.38821  0.44293  0.56963  1.0000
  C   C1007     1.0  0.19345  0.46559  0.88097  1.0000
  H   H1795     1.0  0.39197  0.14756  0.84816  1.0000
  H   H1796     1.0  0.39141  0.29461  0.58726  1.0000
  H   H1797     1.0  0.38239  0.24010  0.73093  1.0000
  H   H1798     1.0  0.38842  0.31376  0.72787  1.0000
  C   C1008     1.0  0.21543  0.02819  0.61821  1.0000
  C   C1009     1.0  0.19893  0.23096  0.53436  1.0000
  H   H1799     1.0  0.20678  0.00987  0.79801  1.0000
  H   H1800     1.0  0.38595  0.10604  0.77772  1.0000
  C   C1010     1.0  0.20286  0.14720  0.67379  1.0000
  C   C1011     1.0  0.19289  0.02026  0.79227  1.0000
  C   C1012     1.0  0.37684  0.99325  0.89593  1.0000
  C   C1013     1.0  0.22245  0.99306  0.51605  1.0000
  H   H1801     1.0  0.30867  0.46191  0.98858  1.0000
  C   C1014     1.0  0.36329  0.34666  0.48930  1.0000
  S   S217      1.0  0.24925  0.53102  0.19865  1.0000
  H   H1802     1.0  0.21929  0.51304  0.10784  1.0000
  H   H1803     1.0  0.23866  0.74435  0.18887  1.0000
  C   C1015     1.0  0.29416  0.70220  0.04085  1.0000
  H   H1804     1.0  0.22382  0.64269  0.23594  1.0000
  C   C1016     1.0  0.34156  0.89274  0.02973  1.0000
  C   C1017     1.0  0.31738  0.89056  0.17846  1.0000
  C   C1018     1.0  0.20661  0.72248  0.21794  1.0000
  H   H1805     1.0  0.30270  0.89692  0.02714  1.0000
  S   S218      1.0  0.22629  0.86992  0.45035  1.0000
  Fe  Fe108     1.0  0.20034  0.94405  0.31093  1.0000
  Fe  Fe109     1.0  0.22772  0.84204  0.43685  1.0000
  S   S219      1.0  0.25712  0.82585  0.41779  1.0000
  C   C1019     1.0  0.23352  0.94826  0.48537  1.0000
  H   H1806     1.0  0.36390  0.60244  0.10983  1.0000
  Fe  Fe110     1.0  0.27393  0.77376  0.32354  1.0000
  S   S220      1.0  0.26433  0.76632  0.29714  1.0000
  S   S221      1.0  0.24617  0.79229  0.34223  1.0000
  Fe  Fe111     1.0  0.31910  0.75359  0.30904  1.0000
  S   S222      1.0  0.31284  0.74502  0.28136  1.0000
  S   S223      1.0  0.35252  0.74455  0.31244  1.0000
  Fe  Fe112     1.0  0.29295  0.77737  0.27719  1.0000
  S   S224      1.0  0.29031  0.79897  0.24609  1.0000
  Fe  Fe113     1.0  0.28517  0.73481  0.30429  1.0000
  S   S225      1.0  0.27359  0.70526  0.30772  1.0000
  S   S226      1.0  0.30137  0.78704  0.30295  1.0000
  S   S227      1.0  0.29254  0.74116  0.33254  1.0000
  Fe  Fe114     1.0  0.31851  0.55196  0.29050  1.0000
  S   S228      1.0  0.30611  0.54296  0.32518  1.0000
  S   S229      1.0  0.32268  0.53325  0.26541  1.0000
  Fe  Fe115     1.0  0.32224  0.59568  0.29351  1.0000
  S   S230      1.0  0.30968  0.59046  0.32835  1.0000
  S   S231      1.0  0.33238  0.62579  0.27427  1.0000
  Fe  Fe116     1.0  0.33052  0.55852  0.32925  1.0000
  S   S232      1.0  0.35017  0.54357  0.35420  1.0000
  Fe  Fe117     1.0  0.28649  0.57563  0.32137  1.0000
  S   S233      1.0  0.34487  0.56464  0.29469  1.0000
  S   S234      1.0  0.29726  0.58352  0.28643  1.0000
  Fe  Fe118     1.0  0.28552  0.79867  0.03126  1.0000
  S   S235      1.0  0.29264  0.81607  0.05210  1.0000
  S   S236      1.0  0.26523  0.77473  0.04325  1.0000
  S   S237      1.0  0.31429  0.55540  0.06163  1.0000
  C   C1020     1.0  0.26254  0.68083  0.17447  1.0000
  H   H1807     1.0  0.33744  0.66200  0.39216  1.0000
  N   N56       1.0  0.26941  0.64162  0.22751  1.0000
  Fe  Fe119     1.0  0.22087  0.82740  0.16787  1.0000
  S   S238      1.0  0.21572  0.86191  0.15353  1.0000
  S   S239      1.0  0.24965  0.80879  0.18028  1.0000
  H   H1808     1.0  0.25895  0.54221  0.03442  1.0000
  Fe  Fe120     1.0  0.35662  0.83349  0.12911  1.0000
  S   S240      1.0  0.36099  0.86151  0.13875  1.0000
  S   S241      1.0  0.32883  0.83573  0.11564  1.0000
  C   C1021     1.0  0.33316  0.51235  0.15196  1.0000
  C   C1022     1.0  0.23956  0.56922  0.23878  1.0000
  Fe  Fe121     1.0  0.37525  0.83736  0.16390  1.0000
  S   S242      1.0  0.36941  0.83832  0.19803  1.0000
  H   H1809     1.0  0.24844  0.75070  0.14993  1.0000
  S   S243      1.0  0.36805  0.80978  0.15596  1.0000
  H   H1810     1.0  0.20258  0.57126  0.26807  1.0000
  C   C1023     1.0  0.32461  0.75619  0.21888  1.0000
  H   H1811     1.0  0.24653  0.58123  0.24167  1.0000
  H   H1812     1.0  0.22448  0.79612  0.25741  1.0000
  C   C1024     1.0  0.27217  0.81514  0.16239  1.0000
  C   C1025     1.0  0.29180  0.80877  0.16795  1.0000
  C   C1026     1.0  0.30942  0.81509  0.15376  1.0000
  C   C1027     1.0  0.30745  0.82721  0.13379  1.0000
  C   C1028     1.0  0.28796  0.83296  0.12811  1.0000
  C   C1029     1.0  0.27035  0.82724  0.14255  1.0000
  H   H1813     1.0  0.29332  0.79942  0.18331  1.0000
  H   H1814     1.0  0.32443  0.81054  0.15827  1.0000
  H   H1815     1.0  0.28642  0.84218  0.11264  1.0000
  H   H1816     1.0  0.25519  0.83242  0.13857  1.0000
  H   H1817     1.0  0.33352  0.52337  0.02805  1.0000
  C   C1030     1.0  0.32912  0.88238  0.06852  1.0000
  H   H1818     1.0  0.37371  0.93078  0.13741  1.0000
  H   H1819     1.0  0.32704  0.92646  0.02807  1.0000
  H   H1820     1.0  0.24578  0.65330  0.25270  1.0000
  H   H1821     1.0  0.30883  0.95775  0.47929  1.0000
  H   H1822     1.0  0.30307  0.68766  0.21779  1.0000
  S   S244      1.0  0.21831  0.90438  0.25159  1.0000
  C   C1031     1.0  0.26936  0.83069  0.06380  1.0000
  C   C1032     1.0  0.26430  0.82821  0.08562  1.0000
  C   C1033     1.0  0.24551  0.83956  0.09520  1.0000
  C   C1034     1.0  0.23209  0.85383  0.08313  1.0000
  C   C1035     1.0  0.23731  0.85668  0.06121  1.0000
  C   C1036     1.0  0.25583  0.84478  0.05153  1.0000
  H   H1823     1.0  0.27470  0.81725  0.09514  1.0000
  H   H1824     1.0  0.24131  0.83743  0.11196  1.0000
  H   H1825     1.0  0.22696  0.86786  0.05179  1.0000
  H   H1826     1.0  0.25993  0.84678  0.03460  1.0000
  C   C1037     1.0  0.31280  0.80913  0.23297  1.0000
  C   C1038     1.0  0.31468  0.81880  0.21171  1.0000
  C   C1039     1.0  0.33226  0.82736  0.20090  1.0000
  C   C1040     1.0  0.34786  0.82676  0.21145  1.0000
  C   C1041     1.0  0.34608  0.81701  0.23273  1.0000
  C   C1042     1.0  0.32868  0.80792  0.24344  1.0000
  H   H1827     1.0  0.30261  0.81960  0.20350  1.0000
  H   H1828     1.0  0.33356  0.83478  0.18446  1.0000
  H   H1829     1.0  0.35822  0.81637  0.24089  1.0000
  H   H1830     1.0  0.32745  0.80031  0.25981  1.0000
  C   C1043     1.0  0.29074  0.68364  0.29832  1.0000
  C   C1044     1.0  0.30970  0.68553  0.28413  1.0000
  C   C1045     1.0  0.32278  0.66768  0.27700  1.0000
  C   C1046     1.0  0.31702  0.64798  0.28417  1.0000
  C   C1047     1.0  0.29848  0.64617  0.29879  1.0000
  C   C1048     1.0  0.28521  0.66392  0.30559  1.0000
  H   H1831     1.0  0.31426  0.70065  0.27864  1.0000
  H   H1832     1.0  0.33734  0.66908  0.26596  1.0000
  H   H1833     1.0  0.29435  0.63102  0.30486  1.0000
  H   H1834     1.0  0.27075  0.66225  0.31680  1.0000
  C   C1049     1.0  0.36426  0.72264  0.30081  1.0000
  C   C1050     1.0  0.35236  0.70822  0.30103  1.0000
  C   C1051     1.0  0.36174  0.69040  0.29223  1.0000
  C   C1052     1.0  0.29861  0.68141  0.23491  1.0000
  H   H1835     1.0  0.34246  0.71949  0.23735  1.0000
  H   H1836     1.0  0.31226  0.67003  0.24019  1.0000
  H   H1837     1.0  0.33602  0.71045  0.30859  1.0000
  H   H1838     1.0  0.35266  0.67890  0.29313  1.0000
  H   H1839     1.0  0.21872  0.95618  0.45835  1.0000
  H   H1840     1.0  0.29458  0.69466  0.24330  1.0000
  C   C1053     1.0  0.25370  0.81548  0.39759  1.0000
  C   C1054     1.0  0.26999  0.80084  0.38847  1.0000
  C   C1055     1.0  0.26778  0.79315  0.37167  1.0000
  C   C1056     1.0  0.24933  0.80032  0.36389  1.0000
  C   C1057     1.0  0.23302  0.81473  0.37315  1.0000
  C   C1058     1.0  0.23519  0.82225  0.38994  1.0000
  H   H1841     1.0  0.28437  0.79554  0.39432  1.0000
  H   H1842     1.0  0.28042  0.78197  0.36457  1.0000
  H   H1843     1.0  0.21877  0.82035  0.36709  1.0000
  H   H1844     1.0  0.22267  0.83357  0.39664  1.0000
  H   H1845     1.0  0.26452  0.91372  0.06455  1.0000
  C   C1059     1.0  0.30293  0.68102  0.04730  1.0000
  H   H1846     1.0  0.23023  0.85270  0.01767  1.0000
  H   H1847     1.0  0.21590  0.77533  0.30205  1.0000
  C   C1060     1.0  0.31624  0.50991  0.14483  1.0000
  H   H1848     1.0  0.31453  0.81670  0.99512  1.0000
  C   C1061     1.0  0.37009  0.64751  0.00325  1.0000
  H   H1849     1.0  0.37273  0.49827  0.36042  1.0000
  C   C1062     1.0  0.19992  0.77326  0.43563  1.0000
  S   S245      1.0  0.31296  0.77620  0.01801  1.0000
  H   H1850     1.0  0.31642  0.85267  0.05742  1.0000
  H   H1851     1.0  0.30066  0.52468  0.04908  1.0000
  C   C1063     1.0  0.37119  0.55147  0.38063  1.0000
  C   C1064     1.0  0.35887  0.56029  0.36538  1.0000
  C   C1065     1.0  0.35473  0.58214  0.35852  1.0000
  C   C1066     1.0  0.36387  0.59485  0.36589  1.0000
  Fe  Fe122     1.0  0.30323  0.59794  0.99027  1.0000
  H   H1852     1.0  0.34098  0.50382  0.06374  1.0000
  H   H1853     1.0  0.34489  0.58918  0.34715  1.0000
  H   H1854     1.0  0.36117  0.61159  0.35989  1.0000
  H   H1855     1.0  0.21916  0.74320  0.33020  1.0000
  H   H1856     1.0  0.28385  0.67579  0.19487  1.0000
  H   H1857     1.0  0.28544  0.65353  0.18367  1.0000
  C   C1067     1.0  0.30092  0.52462  0.26266  1.0000
  C   C1068     1.0  0.29831  0.52484  0.24250  1.0000
  C   C1069     1.0  0.28201  0.51668  0.23993  1.0000
  H   H1858     1.0  0.26128  0.87459  0.10820  1.0000
  H   H1859     1.0  0.30910  0.53108  0.22878  1.0000
  H   H1860     1.0  0.28028  0.51690  0.22434  1.0000
  H   H1861     1.0  0.33843  0.71525  0.21389  1.0000
  C   C1070     1.0  0.25720  0.57180  0.12001  1.0000
  C   C1071     1.0  0.33963  0.54564  0.06631  1.0000
  C   C1072     1.0  0.34250  0.53805  0.08698  1.0000
  C   C1073     1.0  0.36270  0.53090  0.09108  1.0000
  H   H1862     1.0  0.32917  0.53811  0.09985  1.0000
  C   C1074     1.0  0.33501  0.50885  0.02210  1.0000
  Fe  Fe123     1.0  0.31327  0.58191  0.03360  1.0000
  H   H1863     1.0  0.21038  0.76758  0.25133  1.0000
  C   C1075     1.0  0.25336  0.88301  0.18531  1.0000
  H   H1864     1.0  0.22241  0.98323  0.31282  1.0000
  C   C1076     1.0  0.32746  0.86088  0.04455  1.0000
  H   H1865     1.0  0.36494  0.52525  0.10702  1.0000
  N   N57       1.0  0.32538  0.88316  0.04702  1.0000
  Fe  Fe124     1.0  0.37936  0.52235  0.15732  1.0000
  H   H1866     1.0  0.31702  0.91316  0.10673  1.0000
  H   H1867     1.0  0.36361  0.62422  0.08750  1.0000
  C   C1077     1.0  0.37563  0.61712  0.30799  1.0000
  S   S246      1.0  0.28301  0.59452  0.02254  1.0000
  H   H1868     1.0  0.21307  0.82621  0.29013  1.0000
  H   H1869     1.0  0.27012  0.61472  0.30564  1.0000
  H   H1870     1.0  0.23663  0.90339  0.15139  1.0000
  H   H1871     1.0  0.25467  0.98674  0.47783  1.0000
  C   C1078     1.0  0.29363  0.66533  0.04545  1.0000
  H   H1872     1.0  0.34618  0.87993  0.06801  1.0000
  H   H1873     1.0  0.23859  0.74877  0.00117  1.0000
  C   C1079     1.0  0.28550  0.88458  0.05766  1.0000
  H   H1874     1.0  0.35157  0.67941  0.18435  1.0000
  H   H1875     1.0  0.31923  0.54554  0.99857  1.0000
  C   C1080     1.0  0.22319  0.98215  0.32896  1.0000
  H   H1876     1.0  0.29236  0.88222  0.15921  1.0000
  S   S247      1.0  0.21064  0.95547  0.27626  1.0000
  H   H1877     1.0  0.26878  0.72411  0.02826  1.0000
  C   C1081     1.0  0.31791  0.90146  0.07908  1.0000
  H   H1878     1.0  0.29239  0.91751  0.18060  1.0000
  H   H1879     1.0  0.29580  0.54647  0.02770  1.0000
  H   H1880     1.0  0.37538  0.61709  0.29156  1.0000
  H   H1881     1.0  0.36257  0.61010  0.31855  1.0000
  H   H1882     1.0  0.22368  0.71633  0.01279  1.0000
  H   H1883     1.0  0.28248  0.86107  0.19210  1.0000
  H   H1884     1.0  0.24174  0.84462  0.20199  1.0000
  H   H1885     1.0  0.20832  0.81658  0.03931  1.0000
  H   H1886     1.0  0.34188  0.64596  0.42943  1.0000
  H   H1887     1.0  0.25197  0.69608  0.02578  1.0000
  H   H1888     1.0  0.26771  0.68199  0.23180  1.0000
  H   H1889     1.0  0.25791  0.86933  0.14606  1.0000
  C   C1082     1.0  0.22075  0.96358  0.34375  1.0000
  H   H1890     1.0  0.26171  0.90205  0.10475  1.0000
  H   H1891     1.0  0.21599  0.87119  0.37337  1.0000
  H   H1892     1.0  0.20157  0.50204  0.27251  1.0000
  S   S248      1.0  0.31762  0.61295  0.03641  1.0000
  C   C1083     1.0  0.25705  0.84503  0.20500  1.0000
  C   C1084     1.0  0.27159  0.50678  0.27764  1.0000
  H   H1893     1.0  0.30620  0.71930  0.99063  1.0000
  H   H1894     1.0  0.22251  0.98170  0.47927  1.0000
  H   H1895     1.0  0.32825  0.84350  0.00298  1.0000
  H   H1896     1.0  0.21146  0.72165  0.40162  1.0000
  H   H1897     1.0  0.30678  0.73277  0.21839  1.0000
  Fe  Fe125     1.0  0.28911  0.62589  0.02243  1.0000
  C   C1085     1.0  0.26867  0.50741  0.25749  1.0000
  C   C1086     1.0  0.22983  0.75821  0.17953  1.0000
  H   H1898     1.0  0.31676  0.67671  0.05403  1.0000
  H   H1899     1.0  0.35971  0.77193  0.20961  1.0000
  H   H1900     1.0  0.20873  0.77357  0.10213  1.0000
  C   C1087     1.0  0.20948  0.50092  0.11408  1.0000
  C   C1088     1.0  0.34946  0.84666  0.04460  1.0000
  H   H1901     1.0  0.31510  0.49888  0.20462  1.0000
  H   H1902     1.0  0.24252  0.53435  0.12393  1.0000
  H   H1903     1.0  0.22236  0.64971  0.06098  1.0000
  H   H1904     1.0  0.29431  0.81851  0.33923  1.0000
  N   N58       1.0  0.31921  0.51215  0.00860  1.0000
  H   H1905     1.0  0.24218  0.53441  0.29951  1.0000
  H   H1906     1.0  0.22353  0.75214  0.28140  1.0000
  C   C1089     1.0  0.22474  0.53460  0.33111  1.0000
  C   C1090     1.0  0.29863  0.50427  0.15930  1.0000
  C   C1091     1.0  0.23350  0.72016  0.27659  1.0000
  C   C1092     1.0  0.19813  0.75448  0.38987  1.0000
  C   C1093     1.0  0.27589  0.70773  0.03286  1.0000
  H   H1907     1.0  0.21493  0.86478  0.99776  1.0000
  C   C1094     1.0  0.33254  0.50876  0.17351  1.0000
  C   C1095     1.0  0.25181  0.72599  0.25910  1.0000
  H   H1908     1.0  0.33941  0.89163  0.01413  1.0000
  H   H1909     1.0  0.22077  0.52000  0.28779  1.0000
  N   N59       1.0  0.36094  0.66633  0.36351  1.0000
  H   H1910     1.0  0.21386  0.79235  0.20568  1.0000
  C   C1096     1.0  0.30388  0.89504  0.04382  1.0000
  H   H1911     1.0  0.23764  0.55325  0.10016  1.0000
  H   H1912     1.0  0.32351  0.89295  0.19136  1.0000
  S   S249      1.0  0.20561  0.57963  0.19064  1.0000
  Fe  Fe126     1.0  0.33505  0.61579  0.00313  1.0000
  N   N60       1.0  0.20686  0.73317  0.30848  1.0000
  H   H1913     1.0  0.22935  0.54073  0.25524  1.0000
  H   H1914     1.0  0.22733  0.92645  0.43148  1.0000
  H   H1915     1.0  0.21282  0.75995  0.06767  1.0000
  H   H1916     1.0  0.23893  0.70403  0.28530  1.0000
  H   H1917     1.0  0.22711  0.95997  0.18160  1.0000
  C   C1097     1.0  0.21346  0.69940  0.15233  1.0000
  Fe  Fe127     1.0  0.20661  0.50131  0.19840  1.0000
  Fe  Fe128     1.0  0.20249  0.85320  0.13019  1.0000
  C   C1098     1.0  0.24502  0.64094  0.29981  1.0000
  H   H1918     1.0  0.37910  0.68051  0.17715  1.0000
  H   H1919     1.0  0.37454  0.53471  0.38602  1.0000
  H   H1920     1.0  0.37399  0.91394  0.00940  1.0000
  H   H1921     1.0  0.20506  0.75651  0.43434  1.0000
  H   H1922     1.0  0.27837  0.54093  0.11720  1.0000
  H   H1923     1.0  0.37173  0.74062  0.99200  1.0000
  H   H1924     1.0  0.26547  0.72541  0.26577  1.0000
  H   H1925     1.0  0.25648  0.71464  0.24846  1.0000
  H   H1926     1.0  0.24735  0.74204  0.24982  1.0000
  H   H1927     1.0  0.32477  0.59041  0.07812  1.0000
  H   H1928     1.0  0.23281  0.76999  0.21299  1.0000
  C   C1099     1.0  0.34977  0.74943  0.18693  1.0000
  H   H1929     1.0  0.23804  0.88112  0.18341  1.0000
  C   C1100     1.0  0.30683  0.74976  0.21244  1.0000
  C   C1101     1.0  0.28529  0.76148  0.22162  1.0000
  H   H1930     1.0  0.32300  0.77358  0.21361  1.0000
  H   H1931     1.0  0.30847  0.75329  0.19511  1.0000
  H   H1932     1.0  0.27304  0.75650  0.21677  1.0000
  H   H1933     1.0  0.28257  0.75802  0.23907  1.0000
  H   H1934     1.0  0.28382  0.77871  0.21580  1.0000
  H   H1935     1.0  0.20043  0.77997  0.18235  1.0000
  H   H1936     1.0  0.27216  0.85485  0.17294  1.0000
  H   H1937     1.0  0.28449  0.87126  0.05115  1.0000
  N   N61       1.0  0.26118  0.90045  0.16809  1.0000
  C   C1102     1.0  0.20082  0.83098  0.04583  1.0000
  S   S250      1.0  0.30543  0.72154  0.04414  1.0000
  C   C1103     1.0  0.21651  0.56431  0.27532  1.0000
  C   C1104     1.0  0.27910  0.62143  0.21955  1.0000
  C   C1105     1.0  0.23432  0.62985  0.24466  1.0000
  C   C1106     1.0  0.28621  0.60192  0.23616  1.0000
  C   C1107     1.0  0.22142  0.62139  0.26588  1.0000
  C   C1108     1.0  0.29554  0.58242  0.22655  1.0000
  H   H1938     1.0  0.29313  0.62355  0.20690  1.0000
  H   H1939     1.0  0.26834  0.61719  0.21189  1.0000
  H   H1940     1.0  0.29307  0.63781  0.24557  1.0000
  H   H1941     1.0  0.25984  0.62775  0.26038  1.0000
  H   H1942     1.0  0.23963  0.61699  0.23587  1.0000
  H   H1943     1.0  0.29834  0.60472  0.24299  1.0000
  H   H1944     1.0  0.27289  0.59802  0.24898  1.0000
  H   H1945     1.0  0.23144  0.60925  0.27571  1.0000
  C   C1109     1.0  0.21764  0.85099  0.01071  1.0000
  H   H1946     1.0  0.29951  0.56873  0.23916  1.0000
  H   H1947     1.0  0.28419  0.57892  0.21915  1.0000
  H   H1948     1.0  0.31012  0.58440  0.21482  1.0000
  H   H1949     1.0  0.19715  0.62001  0.20174  1.0000
  C   C1110     1.0  0.31146  0.67139  0.34088  1.0000
  H   H1950     1.0  0.31737  0.65962  0.37187  1.0000
  H   H1951     1.0  0.26686  0.82900  0.20563  1.0000
  H   H1952     1.0  0.29436  0.67583  0.34683  1.0000
  C   C1111     1.0  0.37382  0.61110  0.09626  1.0000
  H   H1953     1.0  0.31488  0.65571  0.33663  1.0000
  H   H1954     1.0  0.31992  0.87337  0.17932  1.0000
  C   C1112     1.0  0.32293  0.49295  0.99929  1.0000
  S   S251      1.0  0.35226  0.51412  0.18274  1.0000
  H   H1955     1.0  0.22625  0.77286  0.44897  1.0000
  C   C1113     1.0  0.19909  0.87839  0.21327  1.0000
  C   C1114     1.0  0.21953  0.94399  0.47297  1.0000
  C   C1115     1.0  0.38296  0.68714  0.28279  1.0000
  C   C1116     1.0  0.34989  0.60761  0.19154  1.0000
  H   H1956     1.0  0.35345  0.63820  0.38540  1.0000
  H   H1957     1.0  0.35999  0.73636  0.24952  1.0000
  C   C1117     1.0  0.21252  0.76709  0.01906  1.0000
  H   H1958     1.0  0.26396  0.51993  0.05563  1.0000
  C   C1118     1.0  0.34095  0.60055  0.17625  1.0000
  H   H1959     1.0  0.21540  0.67253  0.34846  1.0000
  H   H1960     1.0  0.22287  0.83656  0.00398  1.0000
  H   H1961     1.0  0.24194  0.63552  0.15109  1.0000
  H   H1962     1.0  0.22195  0.86919  0.23301  1.0000
  H   H1963     1.0  0.38649  0.64931  0.16072  1.0000
  C   C1119     1.0  0.20573  0.73158  0.38745  1.0000
  H   H1964     1.0  0.36469  0.60661  0.22582  1.0000
  H   H1965     1.0  0.35941  0.64091  0.20562  1.0000
  C   C1120     1.0  0.32153  0.53157  0.99160  1.0000
  C   C1121     1.0  0.39220  0.53868  0.22690  1.0000
  H   H1966     1.0  0.22086  0.71958  0.26913  1.0000
  H   H1967     1.0  0.34645  0.59716  0.20719  1.0000
  H   H1968     1.0  0.34156  0.62387  0.19281  1.0000
  H   H1969     1.0  0.20944  0.68397  0.16078  1.0000
  H   H1970     1.0  0.22464  0.63389  0.13503  1.0000
  S   S252      1.0  0.22231  0.79039  0.01070  1.0000
  C   C1122     1.0  0.35374  0.65473  0.38562  1.0000
  H   H1971     1.0  0.19913  0.71087  0.14876  1.0000
  H   H1972     1.0  0.32625  0.89792  0.16319  1.0000
  H   H1973     1.0  0.37811  0.74781  0.21071  1.0000
  Fe  Fe129     1.0  0.24925  0.51028  0.17729  1.0000
  H   H1974     1.0  0.34458  0.61008  0.16013  1.0000
  H   H1975     1.0  0.34767  0.58366  0.17585  1.0000
  H   H1976     1.0  0.32372  0.60255  0.18124  1.0000
  H   H1977     1.0  0.37692  0.61323  0.16681  1.0000
  H   H1978     1.0  0.30746  0.51580  0.37616  1.0000
  N   N62       1.0  0.20279  0.76308  0.21387  1.0000
  C   C1123     1.0  0.21974  0.94628  0.19006  1.0000
  C   C1124     1.0  0.22846  0.79204  0.24165  1.0000
  H   H1979     1.0  0.36441  0.68484  0.15701  1.0000
  C   C1125     1.0  0.29185  0.53106  0.03623  1.0000
  H   H1980     1.0  0.28868  0.49996  0.08230  1.0000
  C   C1126     1.0  0.24984  0.54182  0.10792  1.0000
  H   H1981     1.0  0.22481  0.74021  0.15903  1.0000
  C   C1127     1.0  0.35808  0.92384  0.00933  1.0000
  H   H1982     1.0  0.35325  0.92367  0.99474  1.0000
  C   C1128     1.0  0.38155  0.60435  0.21811  1.0000
  H   H1983     1.0  0.29153  0.97443  0.46252  1.0000
  H   H1984     1.0  0.35125  0.79097  0.11424  1.0000
  C   C1129     1.0  0.35381  0.66048  0.01442  1.0000
  S   S253      1.0  0.21272  0.67176  0.28845  1.0000
  H   H1985     1.0  0.25893  0.93413  0.16382  1.0000
  H   H1986     1.0  0.28774  0.87819  0.07404  1.0000
  H   H1987     1.0  0.24857  0.58404  0.10885  1.0000
  H   H1988     1.0  0.25302  0.67203  0.16994  1.0000
  H   H1989     1.0  0.23368  0.71249  0.12479  1.0000
  H   H1990     1.0  0.34464  0.69499  0.37449  1.0000
  Fe  Fe130     1.0  0.25630  0.78526  0.01169  1.0000
  H   H1991     1.0  0.19592  0.59502  0.29897  1.0000
  C   C1130     1.0  0.37690  0.58589  0.38050  1.0000
  H   H1992     1.0  0.35117  0.50620  0.01261  1.0000
  H   H1993     1.0  0.22554  0.69856  0.23811  1.0000
  S   S254      1.0  0.19784  0.85581  0.42545  1.0000
  C   C1131     1.0  0.29714  0.51535  0.02134  1.0000
  C   C1132     1.0  0.22955  0.69691  0.13214  1.0000
  C   C1133     1.0  0.22556  0.97952  0.37069  1.0000
  H   H1994     1.0  0.38766  0.49892  0.38854  1.0000
  S   S255      1.0  0.33345  0.58302  0.00138  1.0000
  S   S256      1.0  0.28194  0.76209  0.99611  1.0000
  C   C1134     1.0  0.21144  0.78205  0.23908  1.0000
  H   H1995     1.0  0.34247  0.89939  0.09581  1.0000
  C   C1135     1.0  0.37844  0.68052  0.01713  1.0000
  H   H1996     1.0  0.38395  0.59964  0.03908  1.0000
  C   C1136     1.0  0.38302  0.65592  0.35514  1.0000
  H   H1997     1.0  0.38390  0.73619  0.17885  1.0000
  C   C1137     1.0  0.28727  0.51583  0.28024  1.0000
  H   H1998     1.0  0.34031  0.76509  0.18100  1.0000
  H   H1999     1.0  0.32052  0.91662  0.06864  1.0000
  H   H2000     1.0  0.32112  0.75317  0.23630  1.0000
  C   C1138     1.0  0.22207  0.96235  0.36453  1.0000
  C   C1139     1.0  0.27455  0.66637  0.19091  1.0000
  H   H2001     1.0  0.29325  0.50017  0.03100  1.0000
  H   H2002     1.0  0.21513  0.79848  0.43541  1.0000
  C   C1140     1.0  0.23410  0.55365  0.25924  1.0000
  H   H2003     1.0  0.25470  0.84915  0.22052  1.0000
  C   C1141     1.0  0.20783  0.84158  0.29517  1.0000
  C   C1142     1.0  0.27539  0.67077  0.03742  1.0000
  C   C1143     1.0  0.24095  0.60801  0.32422  1.0000
  H   H2004     1.0  0.28054  0.88061  0.13246  1.0000
  H   H2005     1.0  0.30096  0.91134  0.04632  1.0000
  H   H2006     1.0  0.21276  0.83395  0.05286  1.0000
  C   C1144     1.0  0.25565  0.88849  0.11572  1.0000
  H   H2007     1.0  0.27353  0.66819  0.25677  1.0000
  H   H2008     1.0  0.24167  0.51938  0.35628  1.0000
  C   C1145     1.0  0.39059  0.57689  0.00791  1.0000
  H   H2009     1.0  0.23939  0.73541  0.29860  1.0000
  S   S257      1.0  0.21286  0.82367  0.46725  1.0000
  C   C1146     1.0  0.26322  0.88372  0.13638  1.0000
  H   H2010     1.0  0.22028  0.94801  0.37591  1.0000
  C   C1147     1.0  0.26675  0.55270  0.10906  1.0000
  H   H2011     1.0  0.25502  0.65057  0.28841  1.0000
  H   H2012     1.0  0.21355  0.63423  0.27440  1.0000
  H   H2013     1.0  0.35516  0.69911  0.34725  1.0000
  H   H2014     1.0  0.23638  0.94493  0.40821  1.0000
  H   H2015     1.0  0.25707  0.52945  0.09856  1.0000
  N   N63       1.0  0.26188  0.85473  0.29248  1.0000
  C   C1148     1.0  0.28141  0.85130  0.27576  1.0000
  C   C1149     1.0  0.26668  0.84252  0.31348  1.0000
  C   C1150     1.0  0.24569  0.84551  0.28778  1.0000
  C   C1151     1.0  0.25311  0.87772  0.29314  1.0000
  C   C1152     1.0  0.26890  0.89273  0.28651  1.0000
  C   C1153     1.0  0.27839  0.85948  0.25273  1.0000
  C   C1154     1.0  0.22471  0.84591  0.30409  1.0000
  C   C1155     1.0  0.28292  0.84958  0.32148  1.0000
  C   C1156     1.0  0.28796  0.83488  0.34172  1.0000
  C   C1157     1.0  0.25847  0.91421  0.29197  1.0000
  C   C1158     1.0  0.29876  0.86375  0.23771  1.0000
  H   H2016     1.0  0.28580  0.52101  0.01075  1.0000
  H   H2017     1.0  0.28841  0.83415  0.27732  1.0000
  H   H2018     1.0  0.29379  0.85832  0.27782  1.0000
  H   H2019     1.0  0.25236  0.84350  0.32602  1.0000
  H   H2020     1.0  0.27204  0.82545  0.31312  1.0000
  H   H2021     1.0  0.25219  0.82882  0.28609  1.0000
  H   H2022     1.0  0.24154  0.85414  0.27241  1.0000
  H   H2023     1.0  0.24161  0.88456  0.28272  1.0000
  H   H2024     1.0  0.24389  0.87936  0.30914  1.0000
  H   H2025     1.0  0.27483  0.89532  0.26925  1.0000
  H   H2026     1.0  0.28256  0.88650  0.29410  1.0000
  H   H2027     1.0  0.27324  0.84728  0.24780  1.0000
  H   H2028     1.0  0.26629  0.87413  0.25098  1.0000
  H   H2029     1.0  0.21878  0.86137  0.30884  1.0000
  H   H2030     1.0  0.22676  0.83353  0.31836  1.0000
  H   H2031     1.0  0.29788  0.84964  0.30991  1.0000
  H   H2032     1.0  0.27650  0.86548  0.32514  1.0000
  H   H2033     1.0  0.31594  0.68324  0.32660  1.0000
  H   H2034     1.0  0.21024  0.72949  0.09686  1.0000
  H   H2035     1.0  0.29984  0.84009  0.34695  1.0000
  H   H2036     1.0  0.24511  0.92134  0.28398  1.0000
  H   H2037     1.0  0.25276  0.91275  0.30920  1.0000
  H   H2038     1.0  0.26983  0.92488  0.28662  1.0000
  H   H2039     1.0  0.30190  0.87891  0.23875  1.0000
  H   H2040     1.0  0.31215  0.85101  0.24148  1.0000
  H   H2041     1.0  0.29765  0.86443  0.22138  1.0000
  C   C1159     1.0  0.37157  0.71980  0.36832  1.0000
  H   H2042     1.0  0.38548  0.72482  0.36991  1.0000
  N   N64       1.0  0.27247  0.58076  0.12663  1.0000
  C   C1160     1.0  0.26163  0.60257  0.13025  1.0000
  C   C1161     1.0  0.29158  0.58177  0.10907  1.0000
  C   C1162     1.0  0.27810  0.56618  0.14644  1.0000
  C   C1163     1.0  0.29325  0.57258  0.15645  1.0000
  C   C1164     1.0  0.24213  0.60360  0.14843  1.0000
  C   C1165     1.0  0.30479  0.59827  0.10735  1.0000
  C   C1166     1.0  0.32624  0.59343  0.09313  1.0000
  C   C1167     1.0  0.29324  0.56022  0.17893  1.0000
  C   C1168     1.0  0.23109  0.62633  0.14939  1.0000
  H   H2043     1.0  0.25688  0.61249  0.11552  1.0000
  H   H2044     1.0  0.27226  0.61081  0.13375  1.0000
  H   H2045     1.0  0.30210  0.56597  0.10984  1.0000
  H   H2046     1.0  0.28699  0.58576  0.09348  1.0000
  H   H2047     1.0  0.26374  0.56379  0.15857  1.0000
  H   H2048     1.0  0.28553  0.55012  0.14349  1.0000
  H   H2049     1.0  0.28900  0.58946  0.15722  1.0000
  H   H2050     1.0  0.30943  0.56901  0.14720  1.0000
  H   H2051     1.0  0.24674  0.59619  0.16379  1.0000
  C   C1169     1.0  0.38702  0.59603  0.08200  1.0000
  H   H2052     1.0  0.29656  0.61407  0.10034  1.0000
  H   H2053     1.0  0.30738  0.59916  0.12265  1.0000
  H   H2054     1.0  0.33621  0.57932  0.10105  1.0000
  H   H2055     1.0  0.20704  0.49561  0.10070  1.0000
  H   H2056     1.0  0.33404  0.60702  0.08946  1.0000
  H   H2057     1.0  0.29617  0.54312  0.17943  1.0000
  H   H2058     1.0  0.30579  0.56336  0.18498  1.0000
  H   H2059     1.0  0.27795  0.56479  0.18936  1.0000
  H   H2060     1.0  0.36025  0.85093  0.02941  1.0000
  H   H2061     1.0  0.24381  0.78102  0.24017  1.0000
  H   H2062     1.0  0.28591  0.89335  0.19667  1.0000
  N   N65       1.0  0.33548  0.75158  0.08314  1.0000
  C   C1170     1.0  0.34993  0.75052  0.06203  1.0000
  C   C1171     1.0  0.33994  0.73051  0.09763  1.0000
  C   C1172     1.0  0.31325  0.75696  0.07995  1.0000
  C   C1173     1.0  0.33872  0.76828  0.09273  1.0000
  C   C1174     1.0  0.36105  0.76575  0.09652  1.0000
  C   C1175     1.0  0.35260  0.77192  0.04722  1.0000
  C   C1176     1.0  0.29589  0.75677  0.10020  1.0000
  C   C1177     1.0  0.33545  0.71170  0.09110  1.0000
  C   C1178     1.0  0.34258  0.69094  0.10567  1.0000
  H   H2063     1.0  0.20421  0.85429  0.28154  1.0000
  C   C1179     1.0  0.36523  0.76903  0.02546  1.0000
  C   C1180     1.0  0.27420  0.76169  0.09499  1.0000
  H   H2064     1.0  0.34447  0.74150  0.05330  1.0000
  H   H2065     1.0  0.36580  0.74149  0.06395  1.0000
  H   H2066     1.0  0.35675  0.72638  0.09862  1.0000
  H   H2067     1.0  0.33136  0.73116  0.11400  1.0000
  H   H2068     1.0  0.31081  0.74625  0.07096  1.0000
  H   H2069     1.0  0.31007  0.77290  0.06991  1.0000
  H   H2070     1.0  0.33393  0.78424  0.08323  1.0000
  H   H2071     1.0  0.32833  0.76849  0.10844  1.0000
  H   H2072     1.0  0.38842  0.75402  0.14119  1.0000
  C   C1181     1.0  0.22373  0.74870  0.01206  1.0000
  H   H2073     1.0  0.33725  0.78226  0.04547  1.0000
  H   H2074     1.0  0.36126  0.78001  0.05355  1.0000
  H   H2075     1.0  0.29613  0.76891  0.10866  1.0000
  H   H2076     1.0  0.29771  0.74117  0.11095  1.0000
  H   H2077     1.0  0.31850  0.71355  0.09177  1.0000
  H   H2078     1.0  0.34396  0.71032  0.07489  1.0000
  H   H2079     1.0  0.26154  0.49941  0.29131  1.0000
  C   C1182     1.0  0.38654  0.92677  0.12481  1.0000
  H   H2080     1.0  0.35960  0.68836  0.10529  1.0000
  H   H2081     1.0  0.34246  0.50139  0.38654  1.0000
  C   C1183     1.0  0.35859  0.63981  0.42313  1.0000
  H   H2082     1.0  0.20635  0.65738  0.10606  1.0000
  H   H2083     1.0  0.36542  0.78463  0.01472  1.0000
  C   C1184     1.0  0.29455  0.97030  0.47873  1.0000
  H   H2084     1.0  0.35799  0.75969  0.01893  1.0000
  H   H2085     1.0  0.26208  0.76128  0.10968  1.0000
  H   H2086     1.0  0.27122  0.77772  0.08506  1.0000
  H   H2087     1.0  0.27283  0.74990  0.08664  1.0000
  N   N66       1.0  0.23472  0.68748  0.09580  1.0000
  C   C1185     1.0  0.23920  0.70880  0.08415  1.0000
  C   C1186     1.0  0.25496  0.67155  0.09731  1.0000
  C   C1187     1.0  0.22310  0.68044  0.08310  1.0000
  C   C1188     1.0  0.22111  0.68836  0.11726  1.0000
  H   H2088     1.0  0.33789  0.81844  0.06217  1.0000
  H   H2089     1.0  0.37470  0.59746  0.26183  1.0000
  C   C1189     1.0  0.21845  0.65789  0.09135  1.0000
  C   C1190     1.0  0.27398  0.67947  0.09939  1.0000
  C   C1191     1.0  0.29214  0.66115  0.10369  1.0000
  C   C1192     1.0  0.38748  0.50353  0.22301  1.0000
  H   H2090     1.0  0.35611  0.84803  0.05760  1.0000
  C   C1193     1.0  0.21013  0.65125  0.07538  1.0000
  H   H2091     1.0  0.24862  0.70757  0.06825  1.0000
  H   H2092     1.0  0.24894  0.71444  0.09174  1.0000
  H   H2093     1.0  0.25226  0.65808  0.11062  1.0000
  H   H2094     1.0  0.26062  0.66458  0.08295  1.0000
  H   H2095     1.0  0.23185  0.68152  0.06648  1.0000
  H   H2096     1.0  0.38941  0.86308  0.04769  1.0000
  H   H2097     1.0  0.23543  0.55940  0.30603  1.0000
  H   H2098     1.0  0.21849  0.67241  0.12570  1.0000
  H   H2099     1.0  0.25207  0.69449  0.18076  1.0000
  H   H2100     1.0  0.24336  0.68550  0.13683  1.0000
  H   H2101     1.0  0.21816  0.88604  0.34664  1.0000
  H   H2102     1.0  0.25487  0.51290  0.33111  1.0000
  C   C1194     1.0  0.20490  0.74750  0.32324  1.0000
  H   H2103     1.0  0.23259  0.64597  0.09450  1.0000
  H   H2104     1.0  0.27964  0.69010  0.08458  1.0000
  H   H2105     1.0  0.27019  0.68844  0.11201  1.0000
  H   H2106     1.0  0.29717  0.65226  0.09078  1.0000
  H   H2107     1.0  0.30563  0.66734  0.10453  1.0000
  H   H2108     1.0  0.28755  0.65035  0.11882  1.0000
  H   H2109     1.0  0.34385  0.73769  0.18204  1.0000
  H   H2110     1.0  0.22085  0.80569  0.07714  1.0000
  C   C1195     1.0  0.20659  0.76381  0.19060  1.0000
  H   H2111     1.0  0.39035  0.54875  0.23834  1.0000
  H   H2112     1.0  0.36123  0.76640  0.14510  1.0000
  H   H2113     1.0  0.19539  0.80125  0.32316  1.0000
  H   H2114     1.0  0.22302  0.94112  0.20620  1.0000
  H   H2115     1.0  0.27041  0.56604  0.99879  1.0000
  H   H2116     1.0  0.37627  0.58962  0.07637  1.0000
  N   N67       1.0  0.26520  0.89017  0.38670  1.0000
  C   C1196     1.0  0.24902  0.90413  0.39997  1.0000
  C   C1197     1.0  0.25409  0.87791  0.37855  1.0000
  C   C1198     1.0  0.27862  0.87440  0.40086  1.0000
  C   C1199     1.0  0.27911  0.90228  0.36891  1.0000
  C   C1200     1.0  0.26919  0.92506  0.35909  1.0000
  C   C1201     1.0  0.25766  0.91458  0.41323  1.0000
  C   C1202     1.0  0.29550  0.85743  0.39057  1.0000
  C   C1203     1.0  0.23929  0.89081  0.36362  1.0000
  C   C1204     1.0  0.22710  0.87680  0.35892  1.0000
  C   C1205     1.0  0.28322  0.93382  0.33870  1.0000
  C   C1206     1.0  0.24126  0.93248  0.42142  1.0000
  C   C1207     1.0  0.30973  0.84433  0.40564  1.0000
  H   H2117     1.0  0.23754  0.89509  0.41102  1.0000
  H   H2118     1.0  0.23926  0.91668  0.39036  1.0000
  H   H2119     1.0  0.26546  0.86673  0.36949  1.0000
  H   H2120     1.0  0.24495  0.86815  0.39201  1.0000
  H   H2121     1.0  0.26861  0.86607  0.41475  1.0000
  H   H2122     1.0  0.28728  0.88258  0.40729  1.0000
  H   H2123     1.0  0.29296  0.90381  0.37418  1.0000
  H   H2124     1.0  0.28567  0.89330  0.35605  1.0000
  H   H2125     1.0  0.26663  0.93577  0.37009  1.0000
  H   H2126     1.0  0.25394  0.92592  0.35546  1.0000
  H   H2127     1.0  0.26211  0.90281  0.42715  1.0000
  H   H2128     1.0  0.27167  0.92090  0.40395  1.0000
  H   H2129     1.0  0.30543  0.86474  0.37606  1.0000
  H   H2130     1.0  0.28826  0.84624  0.38655  1.0000
  H   H2131     1.0  0.22764  0.90347  0.37043  1.0000
  H   H2132     1.0  0.24853  0.89768  0.34839  1.0000
  H   H2133     1.0  0.27402  0.71395  0.98980  1.0000
  H   H2134     1.0  0.23779  0.86302  0.35315  1.0000
  H   H2135     1.0  0.34337  0.82117  0.03390  1.0000
  H   H2136     1.0  0.29871  0.93392  0.34154  1.0000
  S   S258      1.0  0.21733  0.94111  0.33682  1.0000
  H   H2137     1.0  0.29996  0.64979  0.21897  1.0000
  H   H2138     1.0  0.24790  0.93957  0.43086  1.0000
  C   C1208     1.0  0.20568  0.80722  0.08855  1.0000
  H   H2139     1.0  0.32130  0.83202  0.39812  1.0000
  H   H2140     1.0  0.31830  0.85439  0.40972  1.0000
  H   H2141     1.0  0.30037  0.83638  0.42027  1.0000
  C   C1209     1.0  0.25389  0.90212  0.14813  1.0000
  C   C1210     1.0  0.34718  0.66376  0.35010  1.0000
  C   C1211     1.0  0.35856  0.68959  0.36268  1.0000
  H   H2142     1.0  0.19405  0.64168  0.32308  1.0000
  H   H2143     1.0  0.28532  0.92431  0.32669  1.0000
  H   H2144     1.0  0.34792  0.91680  0.04269  1.0000
  C   C1212     1.0  0.34848  0.72207  0.22003  1.0000
  C   C1213     1.0  0.28645  0.64926  0.23252  1.0000
  H   H2145     1.0  0.32781  0.69873  0.99078  1.0000
  N   N68       1.0  0.34662  0.74529  0.21065  1.0000
  H   H2146     1.0  0.25004  0.88727  0.20101  1.0000
  C   C1214     1.0  0.36985  0.68524  0.22743  1.0000
  C   C1215     1.0  0.25283  0.63826  0.24714  1.0000
  H   H2147     1.0  0.25121  0.56073  0.22724  1.0000
  S   S259      1.0  0.37921  0.54866  0.12903  1.0000
  H   H2148     1.0  0.27576  0.95026  0.33247  1.0000
  S   S260      1.0  0.21075  0.81841  0.14266  1.0000
  C   C1216     1.0  0.35693  0.54498  0.04965  1.0000
  H   H2149     1.0  0.27478  0.55802  0.09266  1.0000
  H   H2150     1.0  0.28504  0.49498  0.19210  1.0000
  C   C1217     1.0  0.36162  0.75480  0.21691  1.0000
  C   C1218     1.0  0.21997  0.72680  0.08141  1.0000
  C   C1219     1.0  0.39157  0.66356  0.33145  1.0000
  H   H2151     1.0  0.28981  0.90946  0.14893  1.0000
  C   C1220     1.0  0.26781  0.86084  0.18766  1.0000
  C   C1221     1.0  0.35796  0.67721  0.02089  1.0000
  H   H2152     1.0  0.35477  0.55029  0.03362  1.0000
  C   C1222     1.0  0.28467  0.89780  0.16326  1.0000
  H   H2153     1.0  0.22577  0.92827  0.46881  1.0000
  S   S261      1.0  0.36556  0.62761  0.99289  1.0000
  C   C1223     1.0  0.37222  0.75024  0.17388  1.0000
  H   H2154     1.0  0.22986  0.80668  0.22953  1.0000
  C   C1224     1.0  0.25933  0.65737  0.21071  1.0000
  C   C1225     1.0  0.27990  0.67077  0.23956  1.0000
  H   H2155     1.0  0.24850  0.67080  0.21713  1.0000
  C   C1226     1.0  0.39049  0.65118  0.99906  1.0000
  H   H2156     1.0  0.19909  0.49973  0.00180  1.0000
  C   C1227     1.0  0.38874  0.90841  0.11743  1.0000
  C   C1228     1.0  0.26627  0.69195  0.03160  1.0000
  H   H2157     1.0  0.36276  0.50428  0.40621  1.0000
  C   C1229     1.0  0.34869  0.82364  0.04729  1.0000
  H   H2158     1.0  0.23605  0.74556  0.05365  1.0000
  H   H2159     1.0  0.36600  0.68432  0.24467  1.0000
  C   C1230     1.0  0.23172  0.75395  0.15777  1.0000
  H   H2160     1.0  0.27367  0.68682  0.16023  1.0000
  H   H2161     1.0  0.34486  0.76292  0.24728  1.0000
  H   H2162     1.0  0.23623  0.75203  0.07827  1.0000
  H   H2163     1.0  0.23056  0.59543  0.14653  1.0000
  C   C1231     1.0  0.21946  0.61581  0.32950  1.0000
  C   C1232     1.0  0.38002  0.53080  0.07452  1.0000
  H   H2164     1.0  0.36672  0.90976  0.17017  1.0000
  H   H2165     1.0  0.24896  0.65016  0.20529  1.0000
  H   H2166     1.0  0.24502  0.56678  0.13382  1.0000
  H   H2167     1.0  0.33795  0.65814  0.01735  1.0000
  C   C1233     1.0  0.34244  0.91580  0.02880  1.0000
  S   S262      1.0  0.25202  0.58221  0.33519  1.0000
  H   H2168     1.0  0.22313  0.93388  0.16271  1.0000
  C   C1234     1.0  0.32543  0.89955  0.09928  1.0000
  H   H2169     1.0  0.31940  0.68684  0.36127  1.0000
  C   C1235     1.0  0.19903  0.68158  0.35036  1.0000
  H   H2170     1.0  0.38613  0.92304  0.04296  1.0000
  H   H2171     1.0  0.20520  0.69773  0.11590  1.0000
  H   H2172     1.0  0.34526  0.68787  0.02860  1.0000
  H   H2173     1.0  0.38186  0.71340  0.22155  1.0000
  H   H2174     1.0  0.34645  0.51746  0.14088  1.0000
  H   H2175     1.0  0.21491  0.54622  0.34062  1.0000
  C   C1236     1.0  0.32328  0.67087  0.35765  1.0000
  H   H2176     1.0  0.23753  0.77165  0.17729  1.0000
  C   C1237     1.0  0.38504  0.51812  0.23847  1.0000
  C   C1238     1.0  0.35962  0.75285  0.24080  1.0000
  H   H2177     1.0  0.36850  0.52239  0.24640  1.0000
  H   H2178     1.0  0.35886  0.94026  0.00911  1.0000
  C   C1239     1.0  0.37711  0.53702  0.05382  1.0000
  C   C1240     1.0  0.37751  0.69691  0.36572  1.0000
  C   C1241     1.0  0.31547  0.50188  0.18794  1.0000
  C   C1242     1.0  0.36637  0.67566  0.17292  1.0000
  H   H2179     1.0  0.37491  0.76023  0.26206  1.0000
  C   C1243     1.0  0.37042  0.70800  0.21591  1.0000
  H   H2180     1.0  0.38743  0.68091  0.32667  1.0000
  H   H2181     1.0  0.38418  0.63866  0.35752  1.0000
  H   H2182     1.0  0.37762  0.89829  0.12445  1.0000
  C   C1244     1.0  0.37752  0.76029  0.24504  1.0000
  H   H2183     1.0  0.33698  0.49604  0.35412  1.0000
  H   H2184     1.0  0.37417  0.58237  0.01565  1.0000
  H   H2185     1.0  0.36352  0.75290  0.11031  1.0000
  H   H2186     1.0  0.38154  0.76074  0.02631  1.0000
  H   H2187     1.0  0.38679  0.58705  0.21924  1.0000
  H   H2188     1.0  0.25713  0.91685  0.13680  1.0000
  S   S263      1.0  0.21743  0.52628  0.17133  1.0000
  H   H2189     1.0  0.20908  0.61450  0.26342  1.0000
  H   H2190     1.0  0.31647  0.51309  0.12820  1.0000
  H   H2191     1.0  0.20355  0.94407  0.48260  1.0000
  C   C1245     1.0  0.37381  0.60610  0.18388  1.0000
  H   H2192     1.0  0.35809  0.67913  0.22297  1.0000
  Fe  Fe131     1.0  0.29195  0.75332  0.02716  1.0000
  H   H2193     1.0  0.36862  0.89839  0.19724  1.0000
  H   H2194     1.0  0.23125  0.77900  0.42065  1.0000
  C   C1246     1.0  0.29412  0.90048  0.18098  1.0000
  C   C1247     1.0  0.22783  0.92821  0.17820  1.0000
  H   H2195     1.0  0.38323  0.64727  0.39726  1.0000
  C   C1248     1.0  0.22680  0.74733  0.06954  1.0000
  H   H2196     1.0  0.21838  0.72044  0.20337  1.0000
  C   C1249     1.0  0.22345  0.64827  0.30404  1.0000
  H   H2197     1.0  0.21885  0.73055  0.37364  1.0000
  H   H2198     1.0  0.37834  0.77657  0.23613  1.0000
  S   S264      1.0  0.38755  0.82920  0.10712  1.0000
  Fe  Fe132     1.0  0.23675  0.50589  0.22412  1.0000
  C   C1250     1.0  0.21931  0.78143  0.43509  1.0000
  H   H2199     1.0  0.20335  0.86374  0.20779  1.0000
  H   H2200     1.0  0.26125  0.90569  0.04193  1.0000
  C   C1251     1.0  0.25197  0.92116  0.17518  1.0000
  H   H2201     1.0  0.38402  0.61772  0.10244  1.0000
  C   C1252     1.0  0.22901  0.54518  0.30746  1.0000
  C   C1253     1.0  0.36640  0.65383  0.40221  1.0000
  H   H2202     1.0  0.25591  0.92050  0.19050  1.0000
  C   C1254     1.0  0.36389  0.78591  0.10123  1.0000
  H   H2203     1.0  0.36194  0.88371  0.18171  1.0000
  C   C1255     1.0  0.37266  0.75228  0.15064  1.0000
  H   H2204     1.0  0.39046  0.69598  0.35181  1.0000
  H   H2205     1.0  0.22194  0.57790  0.27712  1.0000
  H   H2206     1.0  0.32231  0.88485  0.11060  1.0000
  H   H2207     1.0  0.20624  0.70067  0.31111  1.0000
  H   H2208     1.0  0.22553  0.73783  0.22778  1.0000
  H   H2209     1.0  0.20314  0.82182  0.09456  1.0000
  H   H2210     1.0  0.22547  0.57694  0.23203  1.0000
  C   C1256     1.0  0.39125  0.59726  0.25367  1.0000
  C   C1257     1.0  0.25365  0.62070  0.30957  1.0000
  S   S265      1.0  0.26391  0.65122  0.03472  1.0000
  C   C1258     1.0  0.20963  0.88148  0.22749  1.0000
  H   H2211     1.0  0.21031  0.72340  0.07208  1.0000
  H   H2212     1.0  0.35756  0.88380  0.03110  1.0000
  H   H2213     1.0  0.32293  0.86094  0.02970  1.0000
  H   H2214     1.0  0.35007  0.64706  0.34858  1.0000
  C   C1259     1.0  0.20888  0.74115  0.22645  1.0000
  H   H2215     1.0  0.23829  0.89209  0.11847  1.0000
  H   H2216     1.0  0.36040  0.62343  0.42116  1.0000
  H   H2217     1.0  0.37734  0.76420  0.17540  1.0000
  H   H2218     1.0  0.24857  0.54735  0.26555  1.0000
  N   N69       1.0  0.38428  0.61566  0.19546  1.0000
  H   H2219     1.0  0.25104  0.53800  0.00133  1.0000
  H   H2220     1.0  0.21994  0.91506  0.18712  1.0000
  H   H2221     1.0  0.28936  0.51521  0.29585  1.0000
  H   H2222     1.0  0.33980  0.67769  0.10031  1.0000
  H   H2223     1.0  0.21990  0.70527  0.16287  1.0000
  H   H2224     1.0  0.37280  0.63376  0.30943  1.0000
  H   H2225     1.0  0.26566  0.54587  0.05735  1.0000
  H   H2226     1.0  0.25183  0.89206  0.06813  1.0000
  H   H2227     1.0  0.27366  0.83519  0.35427  1.0000
  H   H2228     1.0  0.22717  0.70417  0.32049  1.0000
  H   H2229     1.0  0.33380  0.69097  0.12206  1.0000
  C   C1260     1.0  0.24516  0.52578  0.33910  1.0000
  Fe  Fe133     1.0  0.21601  0.54430  0.19574  1.0000
  H   H2230     1.0  0.36365  0.79880  0.08713  1.0000
  C   C1261     1.0  0.20998  0.70183  0.23391  1.0000
  Fe  Fe134     1.0  0.20852  0.85270  0.47976  1.0000
  C   C1262     1.0  0.22600  0.73617  0.29145  1.0000
  H   H2231     1.0  0.24883  0.94942  0.47465  1.0000
  H   H2232     1.0  0.37799  0.51227  0.21099  1.0000
  H   H2233     1.0  0.21161  0.75982  0.39196  1.0000
  H   H2234     1.0  0.38472  0.65665  0.32207  1.0000
  H   H2235     1.0  0.25425  0.53829  0.33619  1.0000
  H   H2236     1.0  0.21002  0.77966  0.33908  1.0000
  S   S266      1.0  0.20306  0.52053  0.22271  1.0000
  H   H2237     1.0  0.37582  0.70775  0.19898  1.0000
  H   H2238     1.0  0.35118  0.67279  0.33385  1.0000
  S   S267      1.0  0.20872  0.86774  0.09569  1.0000
  C   C1263     1.0  0.21031  0.71042  0.31991  1.0000
  H   H2239     1.0  0.37908  0.78314  0.10605  1.0000
  C   C1264     1.0  0.38005  0.56417  0.38828  1.0000
  H   H2240     1.0  0.38074  0.58906  0.18484  1.0000
  H   H2241     1.0  0.35919  0.72161  0.38258  1.0000
  C   C1265     1.0  0.38549  0.71943  0.29133  1.0000
  H   H2242     1.0  0.35935  0.64818  0.16756  1.0000
  H   H2243     1.0  0.20541  0.63582  0.08224  1.0000
  C   C1266     1.0  0.37204  0.65214  0.17269  1.0000
  C   C1267     1.0  0.26454  0.90005  0.05803  1.0000
  C   C1268     1.0  0.26865  0.53491  0.04649  1.0000
  H   H2244     1.0  0.36791  0.63938  0.43476  1.0000
  H   H2245     1.0  0.38536  0.67496  0.22345  1.0000
  C   C1269     1.0  0.37161  0.89503  0.18126  1.0000
  H   H2246     1.0  0.30080  0.90216  0.08348  1.0000
  C   C1270     1.0  0.21539  0.73034  0.01872  1.0000
  H   H2247     1.0  0.21781  0.62649  0.16312  1.0000
  H   H2248     1.0  0.22210  0.78747  0.11259  1.0000
  H   H2249     1.0  0.36893  0.73805  0.14800  1.0000
  H   H2250     1.0  0.38482  0.64609  0.20051  1.0000
  C   C1271     1.0  0.21066  0.63586  0.31921  1.0000
  C   C1272     1.0  0.37488  0.63874  0.19467  1.0000
  Fe  Fe135     1.0  0.20019  0.92757  0.27228  1.0000
  H   H2251     1.0  0.34599  0.72008  0.99458  1.0000
  H   H2252     1.0  0.20962  0.60624  0.34128  1.0000
  H   H2253     1.0  0.37347  0.76169  0.08300  1.0000
  H   H2254     1.0  0.29742  0.98443  0.48249  1.0000
  H   H2255     1.0  0.32408  0.86845  0.07993  1.0000
  C   C1273     1.0  0.20770  0.78852  0.10695  1.0000
  H   H2256     1.0  0.19767  0.75370  0.18713  1.0000
  H   H2257     1.0  0.30022  0.64908  0.05092  1.0000
  S   S268      1.0  0.27383  0.81178  0.00126  1.0000
  H   H2258     1.0  0.36458  0.81408  0.04789  1.0000
  H   H2259     1.0  0.22343  0.76792  0.14799  1.0000
  H   H2260     1.0  0.36432  0.66975  0.40537  1.0000
  C   C1274     1.0  0.21586  0.77703  0.21688  1.0000
  H   H2261     1.0  0.36587  0.73027  0.35434  1.0000
  C   C1275     1.0  0.19858  0.70521  0.34300  1.0000
  S   S269      1.0  0.38286  0.70286  0.02356  1.0000
  H   H2262     1.0  0.20094  0.78891  0.40336  1.0000
  H   H2263     1.0  0.20761  0.69097  0.08230  1.0000
  C   C1276     1.0  0.20414  0.90040  0.23470  1.0000
  H   H2264     1.0  0.39177  0.58175  0.99063  1.0000
  H   H2265     1.0  0.39188  0.50499  0.42159  1.0000
  S   S270      1.0  0.24806  0.49677  0.25497  1.0000
  H   H2266     1.0  0.19289  0.72538  0.38503  1.0000
  C   C1277     1.0  0.20618  0.53030  0.29453  1.0000
  H   H2267     1.0  0.38374  0.68723  0.37956  1.0000
  H   H2268     1.0  0.20896  0.68870  0.22717  1.0000
  H   H2269     1.0  0.19638  0.66301  0.07085  1.0000
  S   S271      1.0  0.27607  0.50499  0.15060  1.0000
  H   H2270     1.0  0.38010  0.50285  0.32194  1.0000
  H   H2271     1.0  0.21662  0.52137  0.33414  1.0000
  H   H2272     1.0  0.22647  0.97842  0.38678  1.0000
  H   H2273     1.0  0.38264  0.54733  0.21495  1.0000
  N   N70       1.0  0.21076  0.55054  0.29657  1.0000
  C   C1278     1.0  0.20166  0.77139  0.31344  1.0000
  H   H2274     1.0  0.39060  0.53593  0.04118  1.0000
  H   H2275     1.0  0.38653  0.57538  0.32371  1.0000
  H   H2276     1.0  0.20254  0.95134  0.19143  1.0000
  C   C1279     1.0  0.30715  0.49971  0.37474  1.0000
  H   H2277     1.0  0.20633  0.70998  0.35329  1.0000
  H   H2278     1.0  0.20050  0.52100  0.31026  1.0000
  S   S272      1.0  0.39003  0.60204  0.38757  1.0000
  H   H2279     1.0  0.20720  0.58054  0.32124  1.0000
  H   H2280     1.0  0.38474  0.62784  0.23420  1.0000
  S   S273      1.0  0.19325  0.91444  0.30691  1.0000
  H   H2281     1.0  0.39238  0.80630  0.01901  1.0000
  H   H2282     1.0  0.19334  0.76356  0.37507  1.0000
  H   H2283     1.0  0.19769  0.70253  0.24841  1.0000
  H   H2284     1.0  0.19978  0.73995  0.24290  1.0000
  C   C1280     1.0  0.29844  0.49976  0.18084  1.0000
  C   C1281     1.0  0.19642  0.73004  0.03322  1.0000
  H   H2285     1.0  0.36629  0.51350  0.47792  1.0000
  H   H2286     1.0  0.25194  0.49569  0.09830  1.0000
  H   H2287     1.0  0.38991  0.55701  0.39961  1.0000
  H   H2288     1.0  0.19649  0.79360  0.24168  1.0000
  H   H2289     1.0  0.29867  0.50123  0.36207  1.0000
  H   H2290     1.0  0.34944  0.49697  0.23033  1.0000
  H   H2291     1.0  0.38422  0.81650  0.99403  1.0000
  H   H2292     1.0  0.38973  0.51903  0.48186  1.0000
  H   H2293     1.0  0.29307  0.49736  0.10834  1.0000
  H   H2294     1.0  0.30432  0.67915  0.99350  1.0000
  H   H2295     1.0  0.19402  0.79065  0.12005  1.0000
  H   H2296     1.0  0.19409  0.54127  0.26508  1.0000
  H   H2297     1.0  0.39255  0.62238  0.05603  1.0000
  C   C1282     1.0  0.19747  0.84989  0.02725  1.0000
  C   C1283     1.0  0.19708  0.78424  0.33039  1.0000
  C   C1284     1.0  0.19375  0.58300  0.31367  1.0000
  H   H2298     1.0  0.35496  0.49439  0.25546  1.0000
  H   H2299     1.0  0.36505  0.53620  0.48836  1.0000
  H   H2300     1.0  0.19430  0.95510  0.40353  1.0000
  H   H2301     1.0  0.19865  0.89083  0.48758  1.0000
  Fe  Fe136     1.0  0.19477  0.88214  0.44163  1.0000
  H   H2302     1.0  0.19334  0.84110  0.30743  1.0000
  C   C1285     1.0  0.37284  0.51950  0.48833  1.0000
  C   C1286     1.0  0.39249  0.61161  0.23197  1.0000
  H   H2303     1.0  0.39269  0.74962  0.24052  1.0000
  C   C1287     1.0  0.19313  0.76697  0.03286  1.0000
  H   H2304     1.0  0.34009  0.96377  0.90971  1.0000
  C   C1288     1.0  0.25897  0.54537  0.98617  1.0000
  H   H2305     1.0  0.31560  0.98329  0.72774  1.0000
  S   S274      1.0  0.19624  0.53549  0.94939  1.0000
  C   C1289     1.0  0.22473  0.60386  0.78988  1.0000
  H   H2306     1.0  0.20875  0.96040  0.54872  1.0000
  H   H2307     1.0  0.34503  0.92585  0.92433  1.0000
  H   H2308     1.0  0.23773  0.59879  0.86687  1.0000
  C   C1290     1.0  0.23892  0.95627  0.52594  1.0000
  C   C1291     1.0  0.32719  0.82270  0.98396  1.0000
  S   S275      1.0  0.21503  0.85063  0.51134  1.0000
  H   H2309     1.0  0.20598  0.86329  0.55099  1.0000
  N   N71       1.0  0.23543  0.97409  0.50738  1.0000
  C   C1292     1.0  0.19448  0.78917  0.52185  1.0000
  H   H2310     1.0  0.31487  0.50707  0.96810  1.0000
  H   H2311     1.0  0.19642  0.58149  0.94713  1.0000
  H   H2312     1.0  0.34726  0.51630  0.96902  1.0000
  H   H2313     1.0  0.31533  0.98349  0.87934  1.0000
  H   H2314     1.0  0.36764  0.95170  0.90694  1.0000
  S   S276      1.0  0.32495  0.79622  0.95990  1.0000
  H   H2315     1.0  0.31221  0.95091  0.71499  1.0000
  C   C1293     1.0  0.25593  0.97998  0.49454  1.0000
  H   H2316     1.0  0.37215  0.97994  0.67277  1.0000
  H   H2317     1.0  0.23871  0.61033  0.78867  1.0000
  H   H2318     1.0  0.34618  0.96172  0.71556  1.0000
  H   H2319     1.0  0.30995  0.68500  0.96557  1.0000
  C   C1294     1.0  0.33658  0.73587  0.96435  1.0000
  H   H2320     1.0  0.31990  0.76121  0.93140  1.0000
  C   C1295     1.0  0.19990  0.87648  0.53963  1.0000
  H   H2321     1.0  0.27089  0.68906  0.98685  1.0000
  Fe  Fe137     1.0  0.30051  0.78763  0.98851  1.0000
  C   C1296     1.0  0.30335  0.69228  0.97955  1.0000
  H   H2322     1.0  0.36896  0.66986  0.93273  1.0000
  H   H2323     1.0  0.36095  0.68720  0.97288  1.0000
  Fe  Fe138     1.0  0.22706  0.50686  0.90454  1.0000
  H   H2324     1.0  0.26558  0.59382  0.86495  1.0000
  H   H2325     1.0  0.32397  0.74792  0.97136  1.0000
  Fe  Fe139     1.0  0.22949  0.51797  0.94519  1.0000
  H   H2326     1.0  0.21693  0.54044  0.82305  1.0000
  S   S277      1.0  0.24639  0.51738  0.97063  1.0000
  H   H2327     1.0  0.36668  0.71736  0.97152  1.0000
  C   C1297     1.0  0.28489  0.96296  0.73645  1.0000
  S   S278      1.0  0.19876  0.58348  0.90070  1.0000
  C   C1298     1.0  0.31637  0.70794  0.98090  1.0000
  S   S279      1.0  0.23800  0.53303  0.91120  1.0000
  C   C1299     1.0  0.22380  0.96894  0.49348  1.0000
  H   H2328     1.0  0.27072  0.56387  0.84836  1.0000
  H   H2329     1.0  0.35222  0.50826  0.51641  1.0000
  C   C1300     1.0  0.34360  0.70496  0.94760  1.0000
  H   H2330     1.0  0.26323  0.53125  0.79933  1.0000
  N   N72       1.0  0.35944  0.98413  0.86940  1.0000
  H   H2331     1.0  0.24748  0.51472  0.81893  1.0000
  C   C1301     1.0  0.34227  0.54953  0.95753  1.0000
  C   C1302     1.0  0.35284  0.72803  0.97861  1.0000
  C   C1303     1.0  0.32866  0.99041  0.63534  1.0000
  C   C1304     1.0  0.36175  0.98899  0.84576  1.0000
  C   C1305     1.0  0.33802  0.99084  0.65371  1.0000
  H   H2332     1.0  0.37409  0.98056  0.69844  1.0000
  H   H2333     1.0  0.29466  0.51132  0.81418  1.0000
  H   H2334     1.0  0.34476  0.74456  0.94939  1.0000
  C   C1306     1.0  0.31021  0.49513  0.98225  1.0000
  H   H2335     1.0  0.20047  0.69791  0.97747  1.0000
  C   C1307     1.0  0.19932  0.59587  0.95019  1.0000
  H   H2336     1.0  0.24678  0.96097  0.53627  1.0000
  H   H2337     1.0  0.28004  0.95805  0.51032  1.0000
  C   C1308     1.0  0.23746  0.56419  0.85055  1.0000
  H   H2338     1.0  0.32998  0.55018  0.94892  1.0000
  H   H2339     1.0  0.29705  0.73985  0.95742  1.0000
  Fe  Fe140     1.0  0.20425  0.54894  0.91494  1.0000
  C   C1309     1.0  0.25569  0.57535  0.84828  1.0000
  H   H2340     1.0  0.27852  0.49482  0.83381  1.0000
  H   H2341     1.0  0.38348  0.62434  0.50293  1.0000
  C   C1310     1.0  0.36933  0.50650  0.51071  1.0000
  H   H2342     1.0  0.30895  0.53552  0.98248  1.0000
  N   N73       1.0  0.32946  0.98664  0.69449  1.0000
  H   H2343     1.0  0.25393  0.57485  0.80711  1.0000
  C   C1311     1.0  0.22065  0.58812  0.81061  1.0000
  C   C1312     1.0  0.28032  0.50471  0.81770  1.0000
  H   H2344     1.0  0.34900  0.98442  0.84124  1.0000
  H   H2345     1.0  0.21497  0.96953  0.62860  1.0000
  H   H2346     1.0  0.27262  0.97744  0.73736  1.0000
  H   H2347     1.0  0.20731  0.96850  0.50155  1.0000
  C   C1313     1.0  0.28041  0.57060  0.96520  1.0000
  C   C1314     1.0  0.27932  0.56444  0.94708  1.0000
  C   C1315     1.0  0.26831  0.54869  0.94848  1.0000
  C   C1316     1.0  0.25834  0.53885  0.96808  1.0000
  C   C1317     1.0  0.38549  0.95037  0.69032  1.0000
  H   H2348     1.0  0.29146  0.96848  0.70293  1.0000
  H   H2349     1.0  0.28735  0.57165  0.93188  1.0000
  H   H2350     1.0  0.26800  0.54380  0.93443  1.0000
  H   H2351     1.0  0.33247  0.73986  0.91775  1.0000
  C   C1318     1.0  0.38247  0.97815  0.83308  1.0000
  H   H2352     1.0  0.21029  0.92375  0.56643  1.0000
  H   H2353     1.0  0.23423  0.91549  0.54876  1.0000
  C   C1319     1.0  0.28003  0.70175  0.98007  1.0000
  H   H2354     1.0  0.33312  0.93200  0.90181  1.0000
  C   C1320     1.0  0.35959  0.83956  0.95528  1.0000
  C   C1321     1.0  0.35171  0.82397  0.95077  1.0000
  C   C1322     1.0  0.31095  0.98470  0.71260  1.0000
  H   H2355     1.0  0.19713  0.77517  0.53461  1.0000
  H   H2356     1.0  0.37176  0.84633  0.94393  1.0000
  H   H2357     1.0  0.35800  0.81870  0.93607  1.0000
  H   H2358     1.0  0.22289  0.57616  0.85304  1.0000
  H   H2359     1.0  0.23368  0.93190  0.56675  1.0000
  H   H2360     1.0  0.23548  0.93449  0.49847  1.0000
  H   H2361     1.0  0.27719  0.94969  0.73790  1.0000
  C   C1323     1.0  0.20236  0.96834  0.64222  1.0000
  H   H2362     1.0  0.37104  0.95074  0.87067  1.0000
  S   S280      1.0  0.29581  0.58931  0.96269  1.0000
  H   H2363     1.0  0.38433  0.94144  0.70680  1.0000
  N   N74       1.0  0.23837  0.55368  0.83282  1.0000
  H   H2364     1.0  0.35759  0.54832  0.94640  1.0000
  C   C1324     1.0  0.25826  0.53711  0.83126  1.0000
  C   C1325     1.0  0.32219  0.98729  0.67478  1.0000
  H   H2365     1.0  0.19376  0.56935  0.84317  1.0000
  C   C1326     1.0  0.22013  0.54266  0.83776  1.0000
  C   C1327     1.0  0.30105  0.75439  0.91376  1.0000
  H   H2366     1.0  0.23033  0.58018  0.95541  1.0000
  H   H2367     1.0  0.30450  0.71958  0.94254  1.0000
  H   H2368     1.0  0.30622  0.76621  0.89970  1.0000
  H   H2369     1.0  0.38273  0.94076  0.68041  1.0000
  C   C1328     1.0  0.22481  0.92868  0.55644  1.0000
  H   H2370     1.0  0.31760  0.97224  0.67562  1.0000
  H   H2371     1.0  0.33667  0.69967  0.93691  1.0000
  H   H2372     1.0  0.19942  0.81102  0.53767  1.0000
  H   H2373     1.0  0.22399  0.52653  0.84731  1.0000
  H   H2374     1.0  0.25065  0.57486  0.88182  1.0000
  C   C1329     1.0  0.21575  0.58892  0.96390  1.0000
  H   H2375     1.0  0.39143  0.97288  0.87337  1.0000
  C   C1330     1.0  0.26988  0.56124  0.98477  1.0000
  C   C1331     1.0  0.26107  0.52234  0.81581  1.0000
  N   N75       1.0  0.32718  0.71946  0.96024  1.0000
  C   C1332     1.0  0.38282  0.98466  0.80953  1.0000
  H   H2376     1.0  0.38336  0.62825  0.52854  1.0000
  C   C1333     1.0  0.35312  0.95331  0.90126  1.0000
  H   H2377     1.0  0.37553  0.51359  0.52050  1.0000
  H   H2378     1.0  0.22707  0.59627  0.77632  1.0000
  H   H2379     1.0  0.27225  0.54448  0.82609  1.0000
  H   H2380     1.0  0.38174  0.65884  0.95469  1.0000
  H   H2381     1.0  0.21024  0.57831  0.97884  1.0000
  H   H2382     1.0  0.36063  0.92004  0.89966  1.0000
  C   C1334     1.0  0.25214  0.58635  0.86661  1.0000
  C   C1335     1.0  0.35122  0.84662  0.97422  1.0000
  C   C1336     1.0  0.37403  0.67373  0.94556  1.0000
  H   H2383     1.0  0.34502  0.95454  0.69241  1.0000
  H   H2384     1.0  0.35556  0.71369  0.93689  1.0000
  H   H2385     1.0  0.38431  0.96080  0.83741  1.0000
  C   C1337     1.0  0.34698  0.96784  0.69838  1.0000
  H   H2386     1.0  0.25713  0.58749  0.83358  1.0000
  H   H2387     1.0  0.20993  0.94421  0.53059  1.0000
  H   H2388     1.0  0.20757  0.98965  0.52631  1.0000
  H   H2389     1.0  0.36925  0.75419  0.96561  1.0000
  S   S281      1.0  0.38721  0.90961  0.93887  1.0000
  H   H2390     1.0  0.25940  0.52700  0.84709  1.0000
  C   C1338     1.0  0.20302  0.97545  0.65998  1.0000
  H   H2391     1.0  0.29861  0.74096  0.90839  1.0000
  H   H2392     1.0  0.23924  0.56081  0.79941  1.0000
  C   C1339     1.0  0.33538  0.81554  0.96515  1.0000
  H   H2393     1.0  0.23679  0.55235  0.86561  1.0000
  C   C1340     1.0  0.36979  0.97128  0.68926  1.0000
  C   C1341     1.0  0.31063  0.73101  0.94758  1.0000
  C   C1342     1.0  0.19583  0.89192  0.50386  1.0000
  Fe  Fe141     1.0  0.38817  0.87697  0.95837  1.0000
  H   H2394     1.0  0.20103  0.55255  0.86654  1.0000
  C   C1343     1.0  0.23905  0.56896  0.81198  1.0000
  H   H2395     1.0  0.20946  0.79004  0.51034  1.0000
  C   C1344     1.0  0.30042  0.96577  0.71548  1.0000
  C   C1345     1.0  0.35524  0.68441  0.96002  1.0000
  H   H2396     1.0  0.21611  0.98199  0.66007  1.0000
  H   H2397     1.0  0.35204  0.97804  0.65367  1.0000
  C   C1346     1.0  0.31763  0.74696  0.92731  1.0000
  H   H2398     1.0  0.20616  0.58290  0.81105  1.0000
  H   H2399     1.0  0.36706  0.98417  0.90908  1.0000
  H   H2400     1.0  0.34396  0.95885  0.87128  1.0000
  H   H2401     1.0  0.38564  0.68406  0.93874  1.0000
  C   C1347     1.0  0.34764  0.93148  0.90702  1.0000
  H   H2402     1.0  0.21102  0.61712  0.78915  1.0000
  H   H2403     1.0  0.20627  0.60517  0.93500  1.0000
  C   C1348     1.0  0.35683  0.96156  0.87722  1.0000
  H   H2404     1.0  0.28599  0.76187  0.92276  1.0000
  C   C1349     1.0  0.21906  0.94837  0.53999  1.0000
  H   H2405     1.0  0.29295  0.95952  0.74981  1.0000
  H   H2406     1.0  0.33907  0.56439  0.96328  1.0000
  C   C1350     1.0  0.20323  0.87474  0.51868  1.0000
  C   C1351     1.0  0.34286  0.53059  0.97585  1.0000
  H   H2407     1.0  0.21800  0.59670  0.82342  1.0000
  H   H2408     1.0  0.27686  0.70876  0.96411  1.0000
  H   H2409     1.0  0.32657  0.97426  0.63622  1.0000
  C   C1352     1.0  0.33503  0.83809  0.98846  1.0000
  H   H2410     1.0  0.24977  0.94225  0.52080  1.0000
  H   H2411     1.0  0.34473  0.67301  0.96719  1.0000
  S   S282      1.0  0.36047  0.86591  0.98088  1.0000
  H   H2412     1.0  0.36989  0.97981  0.80566  1.0000
  H   H2413     1.0  0.28214  0.49452  0.80638  1.0000
  H   H2414     1.0  0.35542  0.53076  0.98373  1.0000
  C   C1353     1.0  0.19921  0.55285  0.85054  1.0000
  H   H2415     1.0  0.21949  0.60275  0.96739  1.0000
  C   C1354     1.0  0.37896  0.98720  0.87449  1.0000
  H   H2416     1.0  0.20117  0.61545  0.86381  1.0000
  C   C1355     1.0  0.36084  0.74649  0.98098  1.0000
  S   S283      1.0  0.19391  0.52410  0.90559  1.0000
  H   H2417     1.0  0.34771  0.75834  0.98739  1.0000
  H   H2418     1.0  0.29318  0.49983  0.98827  1.0000
  S   S284      1.0  0.30669  0.63091  0.98901  1.0000
  C   C1356     1.0  0.27598  0.96253  0.49452  1.0000
  H   H2419     1.0  0.27404  0.94824  0.49042  1.0000
  S   S285      1.0  0.41032  0.44548  0.46743  1.0000
  Fe  Fe142     1.0  0.49391  0.44937  0.28761  1.0000
  S   S286      1.0  0.49914  0.46078  0.31398  1.0000
  S   S287      1.0  0.50063  0.41417  0.29128  1.0000
  C   C1357     1.0  0.55590  0.04836  0.13314  1.0000
  C   C1358     1.0  0.47526  0.28958  0.44202  1.0000
  S   S288      1.0  0.46153  0.46890  0.28768  1.0000
  H   H2420     1.0  0.48789  0.40417  0.47993  1.0000
  C   C1359     1.0  0.46703  0.05989  0.04310  1.0000
  C   C1360     1.0  0.41950  0.07493  0.05390  1.0000
  H   H2421     1.0  0.43110  0.13024  0.06125  1.0000
  H   H2422     1.0  0.49351  0.04678  0.02077  1.0000
  C   C1361     1.0  0.55483  0.11513  0.10733  1.0000
  C   C1362     1.0  0.55461  0.46549  0.31565  1.0000
  C   C1363     1.0  0.41723  0.46626  0.24390  1.0000
  H   H2423     1.0  0.49669  0.03980  0.04765  1.0000
  H   H2424     1.0  0.53393  0.40664  0.34842  1.0000
  C   C1364     1.0  0.41688  0.12652  0.05870  1.0000
  C   C1365     1.0  0.44721  0.25462  0.47655  1.0000
  H   H2425     1.0  0.44808  0.44428  0.43379  1.0000
  Fe  Fe143     1.0  0.42021  0.39195  0.42381  1.0000
  H   H2426     1.0  0.55431  0.46919  0.38912  1.0000
  S   S289      1.0  0.44405  0.40517  0.43144  1.0000
  H   H2427     1.0  0.58243  0.18735  0.27094  1.0000
  H   H2428     1.0  0.45889  0.05411  0.05929  1.0000
  C   C1366     1.0  0.54780  0.00918  0.18981  1.0000
  Fe  Fe144     1.0  0.55699  0.08572  0.00741  1.0000
  H   H2429     1.0  0.57925  0.41277  0.25363  1.0000
  Fe  Fe145     1.0  0.44460  0.01536  0.10730  1.0000
  S   S290      1.0  0.43794  0.05027  0.10562  1.0000
  H   H2430     1.0  0.58414  0.01475  0.16541  1.0000
  Fe  Fe146     1.0  0.53417  0.08883  0.05174  1.0000
  S   S291      1.0  0.52231  0.12377  0.04377  1.0000
  S   S292      1.0  0.52852  0.06908  0.08401  1.0000
  C   C1367     1.0  0.41381  0.05316  0.05695  1.0000
  H   H2431     1.0  0.48612  0.40340  0.44058  1.0000
  Fe  Fe147     1.0  0.55509  0.12428  0.02510  1.0000
  H   H2432     1.0  0.54893  0.04237  0.14974  1.0000
  Fe  Fe148     1.0  0.51569  0.11626  0.01542  1.0000
  C   C1368     1.0  0.49365  0.40812  0.36224  1.0000
  S   S293      1.0  0.56728  0.08965  0.03503  1.0000
  S   S294      1.0  0.52501  0.08126  0.02516  1.0000
  H   H2433     1.0  0.55521  0.48905  0.35275  1.0000
  S   S295      1.0  0.57843  0.31140  0.34333  1.0000
  H   H2434     1.0  0.42779  0.04051  0.05891  1.0000
  S   S296      1.0  0.39375  0.40293  0.44898  1.0000
  S   S297      1.0  0.45164  0.48643  0.16411  1.0000
  Fe  Fe149     1.0  0.56325  0.30815  0.37759  1.0000
  S   S298      1.0  0.53072  0.30220  0.39004  1.0000
  S   S299      1.0  0.56833  0.33883  0.38085  1.0000
  C   C1369     1.0  0.40791  0.45529  0.18420  1.0000
  C   C1370     1.0  0.39648  0.04930  0.07631  1.0000
  C   C1371     1.0  0.54306  0.46835  0.37995  1.0000
  H   H2435     1.0  0.55657  0.40156  0.42719  1.0000
  H   H2436     1.0  0.44777  0.09928  0.04614  1.0000
  H   H2437     1.0  0.46790  0.46399  0.20110  1.0000
  H   H2438     1.0  0.58819  0.06672  0.10547  1.0000
  H   H2439     1.0  0.51851  0.41720  0.47524  1.0000
  H   H2440     1.0  0.46787  0.47207  0.41375  1.0000
  H   H2441     1.0  0.54760  0.08050  0.13649  1.0000
  H   H2442     1.0  0.52806  0.46588  0.39080  1.0000
  H   H2443     1.0  0.49525  0.43272  0.41158  1.0000
  C   C1372     1.0  0.46779  0.01148  0.01068  1.0000
  C   C1373     1.0  0.54245  0.42381  0.24015  1.0000
  H   H2444     1.0  0.52910  0.48657  0.35391  1.0000
  H   H2445     1.0  0.47388  0.07336  0.04293  1.0000
  C   C1374     1.0  0.57067  0.38877  0.42603  1.0000
  H   H2446     1.0  0.47848  0.36446  0.35525  1.0000
  S   S300      1.0  0.42927  0.35951  0.44298  1.0000
  C   C1375     1.0  0.53975  0.48840  0.36319  1.0000
  H   H2447     1.0  0.53422  0.25190  0.47952  1.0000
  H   H2448     1.0  0.44992  0.43730  0.48079  1.0000
  N   N76       1.0  0.43248  0.08255  0.03277  1.0000
  C   C1376     1.0  0.48539  0.04238  0.03732  1.0000
  H   H2449     1.0  0.51720  0.27022  0.43886  1.0000
  C   C1377     1.0  0.42503  0.46450  0.45241  1.0000
  H   H2450     1.0  0.40149  0.04959  0.09073  1.0000
  C   C1378     1.0  0.58528  0.99750  0.17128  1.0000
  H   H2451     1.0  0.47280  0.47631  0.23120  1.0000
  H   H2452     1.0  0.52949  0.02274  0.00155  1.0000
  H   H2453     1.0  0.50111  0.29204  0.46526  1.0000
  C   C1379     1.0  0.56893  0.39770  0.36267  1.0000
  C   C1380     1.0  0.43887  0.10233  0.03351  1.0000
  H   H2454     1.0  0.42177  0.44171  0.27171  1.0000
  H   H2455     1.0  0.58531  0.12263  0.07501  1.0000
  H   H2456     1.0  0.50497  0.12647  0.09563  1.0000
  C   C1381     1.0  0.57420  0.33494  0.43803  1.0000
  C   C1382     1.0  0.56028  0.34037  0.45613  1.0000
  H   H2457     1.0  0.56844  0.33680  0.42395  1.0000
  H   H2458     1.0  0.54399  0.34687  0.45575  1.0000
  H   H2459     1.0  0.42306  0.48096  0.23613  1.0000
  H   H2460     1.0  0.58140  0.09986  0.13321  1.0000
  C   C1383     1.0  0.47047  0.25685  0.46887  1.0000
  C   C1384     1.0  0.42735  0.09974  0.99467  1.0000
  C   C1385     1.0  0.56265  0.16045  0.05925  1.0000
  C   C1386     1.0  0.55903  0.48334  0.30067  1.0000
  H   H2461     1.0  0.45046  0.10708  0.01905  1.0000
  H   H2462     1.0  0.42734  0.07428  0.06681  1.0000
  H   H2463     1.0  0.54798  0.15645  0.05963  1.0000
  H   H2464     1.0  0.59071  0.00735  0.02598  1.0000
  C   C1387     1.0  0.46206  0.05743  0.10205  1.0000
  C   C1388     1.0  0.46647  0.07573  0.08770  1.0000
  C   C1389     1.0  0.48691  0.07952  0.08211  1.0000
  C   C1390     1.0  0.50260  0.06556  0.09176  1.0000
  C   C1391     1.0  0.49771  0.04826  0.10736  1.0000
  C   C1392     1.0  0.47757  0.04395  0.11220  1.0000
  H   H2465     1.0  0.45436  0.08640  0.08024  1.0000
  H   H2466     1.0  0.49055  0.09311  0.07026  1.0000
  H   H2467     1.0  0.50963  0.03780  0.11525  1.0000
  H   H2468     1.0  0.47408  0.03006  0.12367  1.0000
  H   H2469     1.0  0.56569  0.44007  0.33949  1.0000
  C   C1393     1.0  0.59073  0.31156  0.27057  1.0000
  H   H2470     1.0  0.40816  0.05174  0.04336  1.0000
  C   C1394     1.0  0.58861  0.33019  0.47487  1.0000
  S   S301      1.0  0.54705  0.12043  0.99588  1.0000
  H   H2471     1.0  0.53926  0.27576  0.46088  1.0000
  C   C1395     1.0  0.51482  0.26268  0.45581  1.0000
  H   H2472     1.0  0.51180  0.24673  0.45765  1.0000
  H   H2473     1.0  0.44351  0.29286  0.47849  1.0000
  C   C1396     1.0  0.57278  0.07760  0.10814  1.0000
  H   H2474     1.0  0.58348  0.19307  0.16726  1.0000
  H   H2475     1.0  0.53131  0.42971  0.25365  1.0000
  C   C1397     1.0  0.49691  0.34379  0.43758  1.0000
  C   C1398     1.0  0.51549  0.32947  0.44048  1.0000
  C   C1399     1.0  0.52625  0.31717  0.42553  1.0000
  C   C1400     1.0  0.51806  0.31868  0.40793  1.0000
  C   C1401     1.0  0.49947  0.33301  0.40497  1.0000
  C   C1402     1.0  0.48893  0.34566  0.41975  1.0000
  C   C1403     1.0  0.53115  0.00030  0.06416  1.0000
  H   H2476     1.0  0.54065  0.30617  0.42784  1.0000
  H   H2477     1.0  0.49324  0.33434  0.39124  1.0000
  H   H2478     1.0  0.47459  0.35673  0.41739  1.0000
  C   C1404     1.0  0.43673  0.46176  0.35523  1.0000
  C   C1405     1.0  0.43087  0.45752  0.37717  1.0000
  C   C1406     1.0  0.42527  0.43822  0.38790  1.0000
  C   C1407     1.0  0.42524  0.42319  0.37675  1.0000
  C   C1408     1.0  0.43097  0.42752  0.35481  1.0000
  C   C1409     1.0  0.43696  0.44663  0.34411  1.0000
  C   C1410     1.0  0.59184  0.99579  0.05859  1.0000
  H   H2479     1.0  0.43100  0.41597  0.34608  1.0000
  H   H2480     1.0  0.44142  0.44970  0.32722  1.0000
  H   H2481     1.0  0.41255  0.11295  0.07109  1.0000
  C   C1411     1.0  0.56474  0.16936  0.07533  1.0000
  H   H2482     1.0  0.51455  0.44099  0.35108  1.0000
  H   H2483     1.0  0.47844  0.24615  0.48143  1.0000
  H   H2484     1.0  0.56185  0.43322  0.26555  1.0000
  S   S302      1.0  0.43047  0.00088  0.08899  1.0000
  N   N77       1.0  0.57552  0.10012  0.10299  1.0000
  H   H2485     1.0  0.53605  0.00588  0.20451  1.0000
  C   C1412     1.0  0.45197  0.06633  0.02746  1.0000
  C   C1413     1.0  0.52329  0.40207  0.30144  1.0000
  C   C1414     1.0  0.52733  0.38032  0.30945  1.0000
  C   C1415     1.0  0.54583  0.37051  0.31688  1.0000
  C   C1416     1.0  0.56066  0.38234  0.31557  1.0000
  C   C1417     1.0  0.55645  0.40413  0.30787  1.0000
  C   C1418     1.0  0.53764  0.41401  0.30120  1.0000
  H   H2486     1.0  0.51611  0.37107  0.30991  1.0000
  H   H2487     1.0  0.54884  0.35376  0.32311  1.0000
  H   H2488     1.0  0.56765  0.41343  0.30727  1.0000
  H   H2489     1.0  0.53450  0.43082  0.29533  1.0000
  C   C1419     1.0  0.56928  0.45365  0.32780  1.0000
  H   H2490     1.0  0.53993  0.46078  0.31792  1.0000
  H   H2491     1.0  0.54634  0.39608  0.39153  1.0000
  H   H2492     1.0  0.52156  0.14489  0.09221  1.0000
  H   H2493     1.0  0.49287  0.37582  0.38030  1.0000
  H   H2494     1.0  0.47764  0.39020  0.33839  1.0000
  H   H2495     1.0  0.40460  0.08650  0.05685  1.0000
  C   C1420     1.0  0.57723  0.19712  0.25644  1.0000
  C   C1421     1.0  0.42478  0.01262  0.02207  1.0000
  H   H2496     1.0  0.42215  0.46791  0.27421  1.0000
  C   C1422     1.0  0.52651  0.40229  0.48402  1.0000
  H   H2497     1.0  0.56000  0.19730  0.18616  1.0000
  H   H2498     1.0  0.46940  0.48268  0.37283  1.0000
  H   H2499     1.0  0.41207  0.43933  0.19385  1.0000
  C   C1423     1.0  0.57597  0.22366  0.17404  1.0000
  C   C1424     1.0  0.56195  0.23348  0.15798  1.0000
  C   C1425     1.0  0.47689  0.38143  0.35492  1.0000
  H   H2500     1.0  0.57409  0.99781  0.20512  1.0000
  H   H2501     1.0  0.45850  0.32509  0.41264  1.0000
  H   H2502     1.0  0.54822  0.25073  0.45297  1.0000
  H   H2503     1.0  0.57694  0.21345  0.21691  1.0000
  C   C1426     1.0  0.40393  0.47211  0.19722  1.0000
  H   H2504     1.0  0.43692  0.26613  0.46672  1.0000
  H   H2505     1.0  0.48382  0.40605  0.40136  1.0000
  H   H2506     1.0  0.42114  0.45773  0.17072  1.0000
  S   S303      1.0  0.48348  0.35857  0.45681  1.0000
  C   C1427     1.0  0.44452  0.23264  0.47657  1.0000
  H   H2507     1.0  0.50437  0.99801  0.12275  1.0000
  C   C1428     1.0  0.57642  0.19976  0.18158  1.0000
  C   C1429     1.0  0.50583  0.41705  0.41195  1.0000
  H   H2508     1.0  0.58455  0.21118  0.25156  1.0000
  H   H2509     1.0  0.57261  0.38037  0.36487  1.0000
  C   C1430     1.0  0.46285  0.31405  0.47758  1.0000
  H   H2510     1.0  0.57005  0.23223  0.18714  1.0000
  C   C1431     1.0  0.53710  0.99491  0.12203  1.0000
  H   H2511     1.0  0.56742  0.22573  0.14420  1.0000
  H   H2512     1.0  0.54550  0.23203  0.16517  1.0000
  H   H2513     1.0  0.56249  0.25045  0.15229  1.0000
  H   H2514     1.0  0.57132  0.42847  0.21948  1.0000
  H   H2515     1.0  0.44218  0.30560  0.44551  1.0000
  H   H2516     1.0  0.44080  0.31190  0.40755  1.0000
  S   S304      1.0  0.58494  0.37027  0.32254  1.0000
  C   C1432     1.0  0.46435  0.44289  0.47976  1.0000
  C   C1433     1.0  0.49665  0.27644  0.46878  1.0000
  H   H2517     1.0  0.47772  0.31387  0.48185  1.0000
  C   C1434     1.0  0.52987  0.40188  0.36586  1.0000
  H   H2518     1.0  0.43027  0.32873  0.48704  1.0000
  H   H2519     1.0  0.55674  0.13159  0.10038  1.0000
  H   H2520     1.0  0.54622  0.42185  0.37500  1.0000
  H   H2521     1.0  0.41866  0.07110  0.01307  1.0000
  H   H2522     1.0  0.54694  0.16582  0.99332  1.0000
  C   C1435     1.0  0.58937  0.10245  0.11636  1.0000
  H   H2523     1.0  0.41855  0.47115  0.20227  1.0000
  Fe  Fe150     1.0  0.58573  0.34064  0.34745  1.0000
  Fe  Fe151     1.0  0.51217  0.48574  0.28867  1.0000
  S   S305      1.0  0.48704  0.12950  0.00099  1.0000
  H   H2524     1.0  0.42309  0.45474  0.23342  1.0000
  H   H2525     1.0  0.40409  0.47857  0.41825  1.0000
  H   H2526     1.0  0.46143  0.38699  0.36455  1.0000
  C   C1436     1.0  0.45984  0.29140  0.47979  1.0000
  N   N78       1.0  0.59086  0.44162  0.24749  1.0000
  H   H2527     1.0  0.40593  0.12006  0.03397  1.0000
  H   H2528     1.0  0.58841  0.37432  0.20841  1.0000
  H   H2529     1.0  0.55496  0.45184  0.22834  1.0000
  H   H2530     1.0  0.57480  0.27077  0.23501  1.0000
  Fe  Fe152     1.0  0.40496  0.37180  0.46916  1.0000
  H   H2531     1.0  0.44908  0.22959  0.46036  1.0000
  H   H2532     1.0  0.39450  0.26546  0.47732  1.0000
  C   C1437     1.0  0.56112  0.43478  0.23318  1.0000
  C   C1438     1.0  0.39309  0.47022  0.24988  1.0000
  H   H2533     1.0  0.53570  0.00974  0.07306  1.0000
  H   H2534     1.0  0.40956  0.29743  0.47264  1.0000
  H   H2535     1.0  0.53986  0.00322  0.04764  1.0000
  H   H2536     1.0  0.56808  0.48907  0.45858  1.0000
  H   H2537     1.0  0.57517  0.10302  0.07024  1.0000
  C   C1439     1.0  0.51768  0.12960  0.10147  1.0000
  C   C1440     1.0  0.45970  0.99849  0.02927  1.0000
  S   S306      1.0  0.58583  0.18478  0.09630  1.0000
  H   H2538     1.0  0.51420  0.00571  0.06433  1.0000
  H   H2539     1.0  0.50789  0.38812  0.40160  1.0000
  H   H2540     1.0  0.57081  0.16293  0.21019  1.0000
  H   H2541     1.0  0.58908  0.25520  0.30298  1.0000
  C   C1441     1.0  0.45408  0.47572  0.42551  1.0000
  H   H2542     1.0  0.57489  0.47128  0.23137  1.0000
  H   H2543     1.0  0.48215  0.30383  0.43825  1.0000
  H   H2544     1.0  0.44412  0.45342  0.25850  1.0000
  C   C1442     1.0  0.42681  0.45674  0.26335  1.0000
  H   H2545     1.0  0.51039  0.46274  0.48009  1.0000
  H   H2546     1.0  0.54406  0.05032  0.12355  1.0000
  S   S307      1.0  0.42719  0.38423  0.48044  1.0000
  C   C1443     1.0  0.45570  0.30940  0.41287  1.0000
  C   C1444     1.0  0.50265  0.40508  0.43467  1.0000
  C   C1445     1.0  0.58183  0.46487  0.24553  1.0000
  C   C1446     1.0  0.56652  0.31631  0.27391  1.0000
  C   C1447     1.0  0.57814  0.48934  0.29794  1.0000
  H   H2547     1.0  0.57014  0.40453  0.34568  1.0000
  S   S308      1.0  0.41785  0.39911  0.38995  1.0000
  C   C1448     1.0  0.55654  0.31343  0.29728  1.0000
  Fe  Fe153     1.0  0.45072  0.37409  0.45293  1.0000
  H   H2548     1.0  0.40815  0.01292  0.02647  1.0000
  H   H2549     1.0  0.40501  0.48847  0.46822  1.0000
  H   H2550     1.0  0.59008  0.12383  0.20210  1.0000
  H   H2551     1.0  0.56411  0.07512  0.09717  1.0000
  C   C1449     1.0  0.58506  0.10560  0.07991  1.0000
  H   H2552     1.0  0.58034  0.34177  0.23673  1.0000
  H   H2553     1.0  0.40296  0.09352  0.02211  1.0000
  H   H2554     1.0  0.52202  0.41965  0.40749  1.0000
  C   C1450     1.0  0.49443  0.38446  0.36377  1.0000
  H   H2555     1.0  0.57463  0.99952  0.06387  1.0000
  H   H2556     1.0  0.56035  0.33275  0.26660  1.0000
  H   H2557     1.0  0.56118  0.30542  0.26736  1.0000
  H   H2558     1.0  0.54156  0.11100  0.08211  1.0000
  H   H2559     1.0  0.47693  0.45004  0.35872  1.0000
  S   S309      1.0  0.47745  0.99993  0.09518  1.0000
  H   H2560     1.0  0.51191  0.13064  0.11827  1.0000
  N   N79       1.0  0.50791  0.41298  0.37375  1.0000
  H   H2561     1.0  0.52720  0.38941  0.47612  1.0000
  H   H2562     1.0  0.47705  0.24979  0.45466  1.0000
  H   H2563     1.0  0.56187  0.29711  0.30566  1.0000
  H   H2564     1.0  0.56062  0.32473  0.30439  1.0000
  H   H2565     1.0  0.53925  0.31653  0.29936  1.0000
  H   H2566     1.0  0.51616  0.44139  0.37653  1.0000
  H   H2567     1.0  0.59189  0.22631  0.16605  1.0000
  C   C1451     1.0  0.48557  0.47336  0.36965  1.0000
  H   H2568     1.0  0.42788  0.23137  0.48286  1.0000
  H   H2569     1.0  0.39755  0.20531  0.46611  1.0000
  H   H2570     1.0  0.47702  0.41511  0.36824  1.0000
  N   N80       1.0  0.58791  0.18846  0.19915  1.0000
  C   C1452     1.0  0.53676  0.11177  0.09896  1.0000
  C   C1453     1.0  0.57953  0.15690  0.04262  1.0000
  H   H2571     1.0  0.39385  0.45633  0.17794  1.0000
  H   H2572     1.0  0.56829  0.37774  0.41740  1.0000
  H   H2573     1.0  0.51305  0.38925  0.43613  1.0000
  H   H2574     1.0  0.39374  0.47726  0.36578  1.0000
  H   H2575     1.0  0.52132  0.32750  0.45457  1.0000
  H   H2576     1.0  0.55939  0.19650  0.22160  1.0000
  H   H2577     1.0  0.48574  0.27941  0.43126  1.0000
  H   H2578     1.0  0.50649  0.41401  0.44453  1.0000
  H   H2579     1.0  0.40392  0.14038  0.06021  1.0000
  H   H2580     1.0  0.53809  0.01027  0.11218  1.0000
  C   C1454     1.0  0.45440  0.02513  0.99793  1.0000
  H   H2581     1.0  0.54918  0.02589  0.18693  1.0000
  H   H2582     1.0  0.43076  0.46912  0.38588  1.0000
  C   C1455     1.0  0.53535  0.26013  0.46280  1.0000
  H   H2583     1.0  0.53407  0.42709  0.22705  1.0000
  C   C1456     1.0  0.39927  0.30551  0.46129  1.0000
  H   H2584     1.0  0.58072  0.40284  0.36798  1.0000
  N   N81       1.0  0.47509  0.27872  0.46467  1.0000
  C   C1457     1.0  0.46400  0.48061  0.20138  1.0000
  C   C1458     1.0  0.46673  0.48755  0.21840  1.0000
  C   C1459     1.0  0.41952  0.08632  0.01632  1.0000
  C   C1460     1.0  0.50102  0.40519  0.39712  1.0000
  H   H2585     1.0  0.53115  0.38452  0.36937  1.0000
  H   H2586     1.0  0.53169  0.09696  0.10791  1.0000
  H   H2587     1.0  0.46275  0.32312  0.46135  1.0000
  C   C1461     1.0  0.57333  0.43006  0.25103  1.0000
  H   H2588     1.0  0.55157  0.17220  0.08806  1.0000
  C   C1462     1.0  0.58398  0.18422  0.23922  1.0000
  H   H2589     1.0  0.57249  0.38027  0.44217  1.0000
  C   C1463     1.0  0.50698  0.43645  0.36787  1.0000
  H   H2590     1.0  0.44853  0.28181  0.43497  1.0000
  C   C1464     1.0  0.56736  0.33752  0.47469  1.0000
  C   C1465     1.0  0.48480  0.45039  0.37118  1.0000
  C   C1466     1.0  0.57636  0.19667  0.21877  1.0000
  H   H2591     1.0  0.49676  0.26985  0.48577  1.0000
  H   H2592     1.0  0.47471  0.44192  0.46415  1.0000
  H   H2593     1.0  0.57986  0.30674  0.23486  1.0000
  C   C1467     1.0  0.54727  0.40519  0.37515  1.0000
  H   H2594     1.0  0.54925  0.11475  0.12447  1.0000
  H   H2595     1.0  0.57285  0.06696  0.14182  1.0000
  H   H2596     1.0  0.46857  0.30157  0.40168  1.0000
  H   H2597     1.0  0.49349  0.48018  0.35364  1.0000
  C   C1468     1.0  0.58710  0.16538  0.20334  1.0000
  Fe  Fe154     1.0  0.41831  0.41418  0.45789  1.0000
  H   H2598     1.0  0.55995  0.20217  0.26006  1.0000
  C   C1469     1.0  0.42085  0.12169  0.03676  1.0000
  H   H2599     1.0  0.58922  0.45305  0.20394  1.0000
  C   C1470     1.0  0.43291  0.02542  0.00331  1.0000
  H   H2600     1.0  0.46122  0.07218  0.01173  1.0000
  H   H2601     1.0  0.57734  0.16972  0.24529  1.0000
  H   H2602     1.0  0.56971  0.03646  0.12787  1.0000
  C   C1471     1.0  0.45399  0.29604  0.43512  1.0000
  C   C1472     1.0  0.44281  0.45992  0.43688  1.0000
  H   H2603     1.0  0.40047  0.48769  0.18673  1.0000
  C   C1473     1.0  0.58376  0.17452  0.07515  1.0000
  C   C1474     1.0  0.41868  0.48482  0.45637  1.0000
  H   H2604     1.0  0.55658  0.40834  0.46545  1.0000
  S   S310      1.0  0.44404  0.48585  0.34194  1.0000
  H   H2605     1.0  0.42038  0.43528  0.40479  1.0000
  H   H2606     1.0  0.50936  0.37721  0.35446  1.0000
  H   H2607     1.0  0.45986  0.45962  0.48134  1.0000
  H   H2608     1.0  0.54764  0.40650  0.24485  1.0000
  Fe  Fe155     1.0  0.46787  0.48177  0.31248  1.0000
  H   H2609     1.0  0.49714  0.41547  0.34518  1.0000
  H   H2610     1.0  0.44784  0.05176  0.02604  1.0000
  H   H2611     1.0  0.42532  0.13574  0.02515  1.0000
  H   H2612     1.0  0.40532  0.48673  0.32573  1.0000
  H   H2613     1.0  0.48437  0.01138  0.00641  1.0000
  C   C1475     1.0  0.58869  0.45918  0.32458  1.0000
  H   H2614     1.0  0.47993  0.02750  0.03977  1.0000
  H   H2615     1.0  0.49380  0.47475  0.38142  1.0000
  H   H2616     1.0  0.54682  0.46747  0.47278  1.0000
  C   C1476     1.0  0.56200  0.06940  0.13106  1.0000
  H   H2617     1.0  0.39650  0.32270  0.46056  1.0000
  H   H2618     1.0  0.54988  0.45478  0.37215  1.0000
  S   S311      1.0  0.57780  0.14543  0.02218  1.0000
  H   H2619     1.0  0.47509  0.44463  0.38659  1.0000
  S   S312      1.0  0.50941  0.47284  0.26206  1.0000
  H   H2620     1.0  0.56852  0.46765  0.25895  1.0000
  C   C1477     1.0  0.43814  0.99918  0.03503  1.0000
  H   H2621     1.0  0.58162  0.13694  0.11351  1.0000
  H   H2622     1.0  0.58244  0.15771  0.17518  1.0000
  H   H2623     1.0  0.45418  0.22046  0.48673  1.0000
  H   H2624     1.0  0.54214  0.00662  0.17665  1.0000
  C   C1478     1.0  0.53518  0.47571  0.48449  1.0000
  H   H2625     1.0  0.59212  0.02656  0.03990  1.0000
  C   C1479     1.0  0.56884  0.99456  0.19209  1.0000
  H   H2626     1.0  0.40701  0.30248  0.44537  1.0000
  H   H2627     1.0  0.58861  0.43920  0.28083  1.0000
  H   H2628     1.0  0.58719  0.40686  0.39878  1.0000
  S   S313      1.0  0.59195  0.28856  0.38915  1.0000
  C   C1480     1.0  0.59212  0.26616  0.23204  1.0000
  C   C1481     1.0  0.54900  0.40431  0.48225  1.0000
  C   C1482     1.0  0.58994  0.39803  0.41445  1.0000
  H   H2629     1.0  0.42943  0.11516  0.99605  1.0000
  H   H2630     1.0  0.59116  0.40937  0.42341  1.0000
  H   H2631     1.0  0.45493  0.38140  0.71647  1.0000
  C   C1483     1.0  0.40778  0.20140  0.78800  1.0000
  H   H2632     1.0  0.58644  0.33308  0.60216  1.0000
  H   H2633     1.0  0.54656  0.00099  0.75175  1.0000
  H   H2634     1.0  0.46539  0.40107  0.49936  1.0000
  H   H2635     1.0  0.46811  0.39795  0.65824  1.0000
  H   H2636     1.0  0.40857  0.08965  0.97844  1.0000
  S   S314      1.0  0.44150  0.08276  0.64517  1.0000
  C   C1484     1.0  0.40500  0.28301  0.77311  1.0000
  H   H2637     1.0  0.55699  0.45908  0.62434  1.0000
  C   C1485     1.0  0.40979  0.44051  0.52617  1.0000
  S   S315      1.0  0.55834  0.16570  0.81558  1.0000
  S   S316      1.0  0.56841  0.11960  0.86267  1.0000
  C   C1486     1.0  0.46221  0.38888  0.70044  1.0000
  Fe  Fe156     1.0  0.43994  0.16587  0.76184  1.0000
  S   S317      1.0  0.46555  0.17882  0.76654  1.0000
  S   S318      1.0  0.41176  0.16009  0.78700  1.0000
  Fe  Fe157     1.0  0.45917  0.16531  0.71617  1.0000
  S   S319      1.0  0.48652  0.17844  0.71664  1.0000
  S   S320      1.0  0.45792  0.15458  0.68749  1.0000
  Fe  Fe158     1.0  0.48729  0.15603  0.74768  1.0000
  S   S321      1.0  0.51763  0.13604  0.75582  1.0000
  Fe  Fe159     1.0  0.46262  0.20018  0.73537  1.0000
  S   S322      1.0  0.46318  0.23450  0.73071  1.0000
  S   S323      1.0  0.46184  0.14091  0.74573  1.0000
  S   S324      1.0  0.43509  0.18906  0.73220  1.0000
  Fe  Fe160     1.0  0.40179  0.20516  0.55303  1.0000
  S   S325      1.0  0.43483  0.20144  0.53472  1.0000
  H   H2638     1.0  0.54937  0.41687  0.49013  1.0000
  Fe  Fe161     1.0  0.41395  0.20710  0.59282  1.0000
  S   S326      1.0  0.44816  0.20254  0.57852  1.0000
  C   C1487     1.0  0.43041  0.01618  0.77781  1.0000
  Fe  Fe162     1.0  0.43848  0.22584  0.55059  1.0000
  S   S327      1.0  0.45713  0.25120  0.53284  1.0000
  Fe  Fe163     1.0  0.44200  0.17866  0.56397  1.0000
  S   S328      1.0  0.46523  0.14847  0.56194  1.0000
  S   S329      1.0  0.40438  0.23219  0.56585  1.0000
  S   S330      1.0  0.40875  0.18069  0.58127  1.0000
  S   S331      1.0  0.52929  0.33028  0.55633  1.0000
  H   H2639     1.0  0.45011  0.14035  0.50000  1.0000
  H   H2640     1.0  0.45787  0.11689  0.94626  1.0000
  H   H2641     1.0  0.44482  0.16459  0.86705  1.0000
  C   C1488     1.0  0.44173  0.01612  0.69618  1.0000
  H   H2642     1.0  0.48732  0.36852  0.58459  1.0000
  S   S332      1.0  0.45554  0.43625  0.62631  1.0000
  S   S333      1.0  0.47888  0.44434  0.56506  1.0000
  H   H2643     1.0  0.55549  0.20919  0.89621  1.0000
  H   H2644     1.0  0.49302  0.38788  0.66530  1.0000
  H   H2645     1.0  0.49612  0.32798  0.52505  1.0000
  H   H2646     1.0  0.44555  0.07487  0.54930  1.0000
  H   H2647     1.0  0.49304  0.15774  0.96047  1.0000
  C   C1489     1.0  0.39735  0.22034  0.79426  1.0000
  S   S334      1.0  0.54829  0.35946  0.58986  1.0000
  H   H2648     1.0  0.54255  0.47498  0.49775  1.0000
  H   H2649     1.0  0.44390  0.31706  0.50861  1.0000
  H   H2650     1.0  0.41252  0.27739  0.51793  1.0000
  C   C1490     1.0  0.55610  0.45507  0.54827  1.0000
  C   C1491     1.0  0.57342  0.44104  0.55501  1.0000
  H   H2651     1.0  0.41197  0.29558  0.72970  1.0000
  C   C1492     1.0  0.42670  0.41082  0.64105  1.0000
  H   H2652     1.0  0.40508  0.25795  0.60323  1.0000
  N   N82       1.0  0.40859  0.31836  0.56771  1.0000
  H   H2653     1.0  0.42914  0.41013  0.65654  1.0000
  C   C1493     1.0  0.47258  0.25852  0.54647  1.0000
  C   C1494     1.0  0.47241  0.24972  0.56769  1.0000
  C   C1495     1.0  0.48532  0.25497  0.57814  1.0000
  C   C1496     1.0  0.49866  0.26901  0.56758  1.0000
  C   C1497     1.0  0.49856  0.27829  0.54644  1.0000
  C   C1498     1.0  0.48549  0.27310  0.53593  1.0000
  H   H2654     1.0  0.46218  0.23900  0.57620  1.0000
  H   H2655     1.0  0.48513  0.24789  0.59446  1.0000
  H   H2656     1.0  0.47909  0.21518  0.51368  1.0000
  C   C1499     1.0  0.43957  0.16926  0.67210  1.0000
  C   C1500     1.0  0.42515  0.18695  0.67775  1.0000
  C   C1501     1.0  0.41266  0.19993  0.66370  1.0000
  C   C1502     1.0  0.41469  0.19529  0.64398  1.0000
  C   C1503     1.0  0.42836  0.17705  0.63879  1.0000
  C   C1504     1.0  0.44054  0.16393  0.65296  1.0000
  H   H2657     1.0  0.42419  0.19114  0.69250  1.0000
  C   C1505     1.0  0.49785  0.36963  0.50817  1.0000
  H   H2658     1.0  0.42975  0.17316  0.62374  1.0000
  H   H2659     1.0  0.45122  0.14995  0.64878  1.0000
  C   C1506     1.0  0.45067  0.24939  0.71022  1.0000
  C   C1507     1.0  0.44433  0.23935  0.69773  1.0000
  C   C1508     1.0  0.43494  0.25122  0.68096  1.0000
  C   C1509     1.0  0.43154  0.27317  0.67681  1.0000
  C   C1510     1.0  0.43757  0.28335  0.68943  1.0000
  C   C1511     1.0  0.44742  0.27141  0.70598  1.0000
  H   H2660     1.0  0.44722  0.22241  0.70051  1.0000
  H   H2661     1.0  0.43030  0.24340  0.67113  1.0000
  H   H2662     1.0  0.43525  0.30033  0.68597  1.0000
  H   H2663     1.0  0.45264  0.27916  0.71542  1.0000
  C   C1512     1.0  0.54778  0.15812  0.79789  1.0000
  C   C1513     1.0  0.55779  0.14032  0.78933  1.0000
  C   C1514     1.0  0.54900  0.13444  0.77542  1.0000
  C   C1515     1.0  0.52971  0.14576  0.77069  1.0000
  C   C1516     1.0  0.51996  0.16386  0.77882  1.0000
  C   C1517     1.0  0.52908  0.17012  0.79226  1.0000
  H   H2664     1.0  0.48947  0.20492  0.93948  1.0000
  H   H2665     1.0  0.55686  0.12076  0.76873  1.0000
  H   H2666     1.0  0.50537  0.17297  0.77491  1.0000
  H   H2667     1.0  0.52138  0.18404  0.79864  1.0000
  H   H2668     1.0  0.40206  0.21403  0.66776  1.0000
  H   H2669     1.0  0.40188  0.30678  0.60147  1.0000
  H   H2670     1.0  0.53110  0.11064  0.90969  1.0000
  S   S335      1.0  0.42200  0.28738  0.65436  1.0000
  C   C1518     1.0  0.53095  0.14573  0.94047  1.0000
  C   C1519     1.0  0.54926  0.17743  0.90789  1.0000
  S   S336      1.0  0.47109  0.00165  0.90488  1.0000
  C   C1520     1.0  0.49768  0.17017  0.94674  1.0000
  H   H2671     1.0  0.46860  0.36628  0.50176  1.0000
  H   H2672     1.0  0.57982  0.21801  0.83500  1.0000
  C   C1521     1.0  0.44778  0.10117  0.62214  1.0000
  C   C1522     1.0  0.43232  0.11336  0.61119  1.0000
  C   C1523     1.0  0.43768  0.12789  0.59262  1.0000
  C   C1524     1.0  0.45851  0.13001  0.58486  1.0000
  C   C1525     1.0  0.47398  0.11769  0.59575  1.0000
  C   C1526     1.0  0.46856  0.10353  0.61457  1.0000
  H   H2673     1.0  0.41624  0.11167  0.61714  1.0000
  H   H2674     1.0  0.42573  0.13712  0.58411  1.0000
  H   H2675     1.0  0.49008  0.11928  0.58983  1.0000
  H   H2676     1.0  0.48050  0.09409  0.62308  1.0000
  H   H2677     1.0  0.40280  0.16319  0.74019  1.0000
  H   H2678     1.0  0.55938  0.15579  0.95780  1.0000
  C   C1527     1.0  0.45570  0.05688  0.74967  1.0000
  C   C1528     1.0  0.55168  0.46544  0.60924  1.0000
  Fe  Fe164     1.0  0.39596  0.31459  0.66033  1.0000
  H   H2679     1.0  0.51758  0.04130  0.94782  1.0000
  H   H2680     1.0  0.48064  0.09767  0.68835  1.0000
  H   H2681     1.0  0.54825  0.14326  0.93624  1.0000
  H   H2682     1.0  0.51935  0.18979  0.96188  1.0000
  C   C1529     1.0  0.45731  0.01839  0.70540  1.0000
  H   H2683     1.0  0.42357  0.20009  0.77903  1.0000
  C   C1530     1.0  0.43725  0.42317  0.62346  1.0000
  H   H2684     1.0  0.45025  0.07626  0.59316  1.0000
  Fe  Fe165     1.0  0.50481  0.46160  0.55894  1.0000
  H   H2685     1.0  0.39578  0.03104  0.86712  1.0000
  S   S337      1.0  0.49084  0.08718  0.92542  1.0000
  C   C1531     1.0  0.54977  0.48936  0.60272  1.0000
  Fe  Fe166     1.0  0.46099  0.47530  0.55124  1.0000
  H   H2686     1.0  0.40815  0.07657  0.70062  1.0000
  H   H2687     1.0  0.40734  0.17841  0.83551  1.0000
  N   N83       1.0  0.48502  0.36953  0.64715  1.0000
  C   C1532     1.0  0.49093  0.38348  0.62597  1.0000
  C   C1533     1.0  0.46617  0.36070  0.64791  1.0000
  C   C1534     1.0  0.50322  0.35220  0.65232  1.0000
  C   C1535     1.0  0.51118  0.33590  0.63793  1.0000
  C   C1536     1.0  0.50852  0.39564  0.62341  1.0000
  C   C1537     1.0  0.46368  0.35615  0.62723  1.0000
  C   C1538     1.0  0.44488  0.34591  0.63093  1.0000
  C   C1539     1.0  0.53190  0.32169  0.64213  1.0000
  C   C1540     1.0  0.51191  0.40990  0.60168  1.0000
  H   H2688     1.0  0.47690  0.39531  0.62211  1.0000
  H   H2689     1.0  0.49599  0.37446  0.61327  1.0000
  H   H2690     1.0  0.46560  0.34605  0.66025  1.0000
  H   H2691     1.0  0.45147  0.37197  0.65260  1.0000
  H   H2692     1.0  0.51659  0.35896  0.65262  1.0000
  H   H2693     1.0  0.49907  0.34290  0.66844  1.0000
  H   H2694     1.0  0.51380  0.34339  0.62107  1.0000
  H   H2695     1.0  0.49964  0.32568  0.64116  1.0000
  H   H2696     1.0  0.52355  0.38462  0.62526  1.0000
  H   H2697     1.0  0.46064  0.37118  0.61577  1.0000
  H   H2698     1.0  0.47770  0.34575  0.62005  1.0000
  H   H2699     1.0  0.44572  0.33153  0.64351  1.0000
  H   H2700     1.0  0.43023  0.35713  0.63545  1.0000
  H   H2701     1.0  0.51868  0.08060  0.95332  1.0000
  H   H2702     1.0  0.53027  0.31339  0.65884  1.0000
  H   H2703     1.0  0.53685  0.30978  0.63204  1.0000
  H   H2704     1.0  0.54428  0.33113  0.63819  1.0000
  H   H2705     1.0  0.49721  0.42121  0.59940  1.0000
  H   H2706     1.0  0.52391  0.41912  0.60035  1.0000
  H   H2707     1.0  0.51708  0.40057  0.58912  1.0000
  C   C1541     1.0  0.45299  0.06874  0.57953  1.0000
  H   H2708     1.0  0.41773  0.10038  0.58179  1.0000
  H   H2709     1.0  0.41809  0.08097  0.76871  1.0000
  H   H2710     1.0  0.44691  0.05390  0.58491  1.0000
  H   H2711     1.0  0.47011  0.06476  0.57350  1.0000
  N   N84       1.0  0.54549  0.02759  0.92751  1.0000
  C   C1542     1.0  0.53731  0.04230  0.90898  1.0000
  C   C1543     1.0  0.54096  0.00620  0.92941  1.0000
  C   C1544     1.0  0.53482  0.03653  0.94687  1.0000
  C   C1545     1.0  0.39562  0.08196  0.50869  1.0000
  H   H2712     1.0  0.41840  0.33504  0.70509  1.0000
  C   C1546     1.0  0.54358  0.06411  0.90224  1.0000
  H   H2713     1.0  0.51769  0.09703  0.98248  1.0000
  C   C1547     1.0  0.51747  0.00496  0.93470  1.0000
  H   H2714     1.0  0.40902  0.30558  0.50928  1.0000
  S   S338      1.0  0.40085  0.21285  0.62558  1.0000
  C   C1548     1.0  0.53450  0.07704  0.88320  1.0000
  H   H2715     1.0  0.44260  0.02452  0.80951  1.0000
  H   H2716     1.0  0.51991  0.04568  0.91244  1.0000
  H   H2717     1.0  0.54195  0.03481  0.89504  1.0000
  H   H2718     1.0  0.50519  0.36868  0.49153  1.0000
  C   C1549     1.0  0.46118  0.19275  0.95223  1.0000
  H   H2719     1.0  0.42600  0.12673  0.68446  1.0000
  H   H2720     1.0  0.54016  0.05122  0.94582  1.0000
  C   C1550     1.0  0.57131  0.47900  0.67584  1.0000
  H   H2721     1.0  0.41130  0.04939  0.88515  1.0000
  H   H2722     1.0  0.42592  0.15531  0.51207  1.0000
  H   H2723     1.0  0.50995  0.03746  0.98647  1.0000
  H   H2724     1.0  0.53753  0.07294  0.91513  1.0000
  H   H2725     1.0  0.56078  0.06274  0.89776  1.0000
  C   C1551     1.0  0.43377  0.13552  0.83678  1.0000
  S   S339      1.0  0.53618  0.44527  0.54414  1.0000
  H   H2726     1.0  0.58811  0.19597  0.78741  1.0000
  H   H2727     1.0  0.52391  0.44709  0.50069  1.0000
  H   H2728     1.0  0.46750  0.09171  0.81913  1.0000
  H   H2729     1.0  0.40922  0.99761  0.88860  1.0000
  H   H2730     1.0  0.50896  0.01624  0.92300  1.0000
  C   C1552     1.0  0.55675  0.39418  0.53893  1.0000
  C   C1553     1.0  0.55475  0.19563  0.88993  1.0000
  H   H2731     1.0  0.47973  0.06126  0.72140  1.0000
  H   H2732     1.0  0.54154  0.06924  0.86967  1.0000
  H   H2733     1.0  0.51728  0.07864  0.88640  1.0000
  H   H2734     1.0  0.53807  0.09301  0.87908  1.0000
  C   C1554     1.0  0.43274  0.04061  0.80907  1.0000
  C   C1555     1.0  0.47032  0.12205  0.97083  1.0000
  C   C1556     1.0  0.54747  0.15027  0.56532  1.0000
  N   N85       1.0  0.53785  0.06711  0.81352  1.0000
  C   C1557     1.0  0.54963  0.04668  0.82446  1.0000
  C   C1558     1.0  0.55233  0.07739  0.79462  1.0000
  C   C1559     1.0  0.53022  0.08185  0.82880  1.0000
  C   C1560     1.0  0.51915  0.06395  0.80722  1.0000
  C   C1561     1.0  0.52391  0.04920  0.79158  1.0000
  C   C1562     1.0  0.53706  0.03399  0.84410  1.0000
  C   C1563     1.0  0.51769  0.10397  0.82056  1.0000
  H   H2735     1.0  0.55260  0.23164  0.52403  1.0000
  C   C1564     1.0  0.40982  0.40028  0.61858  1.0000
  C   C1565     1.0  0.50379  0.04597  0.78760  1.0000
  C   C1566     1.0  0.55163  0.01517  0.85469  1.0000
  C   C1567     1.0  0.51568  0.11927  0.83475  1.0000
  H   H2736     1.0  0.56299  0.04987  0.82916  1.0000
  H   H2737     1.0  0.55677  0.03553  0.81368  1.0000
  H   H2738     1.0  0.54321  0.08781  0.78283  1.0000
  S   S340      1.0  0.48787  0.49192  0.54250  1.0000
  H   H2739     1.0  0.54382  0.08397  0.83413  1.0000
  H   H2740     1.0  0.51953  0.07532  0.84307  1.0000
  H   H2741     1.0  0.50771  0.05819  0.82136  1.0000
  H   H2742     1.0  0.51066  0.07924  0.79940  1.0000
  H   H2743     1.0  0.53298  0.03357  0.79753  1.0000
  H   H2744     1.0  0.53263  0.05634  0.77617  1.0000
  H   H2745     1.0  0.52890  0.04341  0.85621  1.0000
  H   H2746     1.0  0.52532  0.02794  0.83953  1.0000
  H   H2747     1.0  0.50166  0.10287  0.82018  1.0000
  H   H2748     1.0  0.52505  0.11086  0.80452  1.0000
  H   H2749     1.0  0.59193  0.13292  0.94622  1.0000
  H   H2750     1.0  0.46056  0.28304  0.49623  1.0000
  C   C1568     1.0  0.44179  0.05191  0.82123  1.0000
  C   C1569     1.0  0.40487  0.11549  0.72682  1.0000
  C   C1570     1.0  0.46870  0.37298  0.68605  1.0000
  H   H2751     1.0  0.49465  0.03787  0.80226  1.0000
  H   H2752     1.0  0.49426  0.06136  0.78152  1.0000
  H   H2753     1.0  0.50776  0.03610  0.77559  1.0000
  H   H2754     1.0  0.39803  0.35218  0.55920  1.0000
  C   C1571     1.0  0.52699  0.03332  0.98634  1.0000
  H   H2755     1.0  0.54247  0.00660  0.86899  1.0000
  H   H2756     1.0  0.53136  0.12158  0.83498  1.0000
  H   H2757     1.0  0.50638  0.13481  0.82858  1.0000
  H   H2758     1.0  0.50771  0.11328  0.85103  1.0000
  N   N86       1.0  0.43460  0.15516  0.84340  1.0000
  H   H2759     1.0  0.40363  0.32795  0.53573  1.0000
  C   C1572     1.0  0.44588  0.16888  0.82465  1.0000
  C   C1573     1.0  0.44658  0.15025  0.86082  1.0000
  H   H2760     1.0  0.55658  0.18355  0.94584  1.0000
  C   C1574     1.0  0.45509  0.12187  0.82862  1.0000
  C   C1575     1.0  0.44684  0.19075  0.82804  1.0000
  C   C1576     1.0  0.45531  0.12890  0.89539  1.0000
  C   C1577     1.0  0.57997  0.20768  0.82436  1.0000
  C   C1578     1.0  0.45798  0.20369  0.80817  1.0000
  H   H2761     1.0  0.41095  0.08409  0.49836  1.0000
  H   H2762     1.0  0.43080  0.27564  0.57449  1.0000
  H   H2763     1.0  0.43844  0.17158  0.81089  1.0000
  H   H2764     1.0  0.46236  0.16092  0.81970  1.0000
  H   H2765     1.0  0.46366  0.14564  0.85457  1.0000
  H   H2766     1.0  0.44151  0.25715  0.49294  1.0000
  C   C1579     1.0  0.41153  0.10449  0.98054  1.0000
  H   H2767     1.0  0.46282  0.13012  0.81319  1.0000
  H   H2768     1.0  0.46564  0.11810  0.83989  1.0000
  H   H2769     1.0  0.45564  0.18886  0.84049  1.0000
  H   H2770     1.0  0.53780  0.25027  0.54012  1.0000
  H   H2771     1.0  0.55998  0.08799  0.79928  1.0000
  H   H2772     1.0  0.47186  0.32802  0.51858  1.0000
  H   H2773     1.0  0.55572  0.19958  0.60176  1.0000
  H   H2774     1.0  0.50531  0.47067  0.50503  1.0000
  H   H2775     1.0  0.55458  0.48650  0.64085  1.0000
  H   H2776     1.0  0.44884  0.20780  0.79559  1.0000
  H   H2777     1.0  0.45944  0.21859  0.81153  1.0000
  H   H2778     1.0  0.47393  0.19491  0.80259  1.0000
  C   C1580     1.0  0.48764  0.16882  0.61332  1.0000
  H   H2779     1.0  0.48035  0.15511  0.62183  1.0000
  H   H2780     1.0  0.49958  0.16955  0.62172  1.0000
  H   H2781     1.0  0.47527  0.18326  0.61334  1.0000
  C   C1581     1.0  0.41266  0.16757  0.84962  1.0000
  S   S341      1.0  0.54945  0.34434  0.49707  1.0000
  H   H2782     1.0  0.41731  0.12950  0.55294  1.0000
  N   N87       1.0  0.52115  0.16833  0.94187  1.0000
  H   H2783     1.0  0.39863  0.10366  0.66952  1.0000
  C   C1582     1.0  0.47905  0.38307  0.66349  1.0000
  H   H2784     1.0  0.58226  0.00196  0.90483  1.0000
  H   H2785     1.0  0.41733  0.10629  0.73554  1.0000
  H   H2786     1.0  0.40312  0.07174  0.55041  1.0000
  H   H2787     1.0  0.54974  0.16412  0.90064  1.0000
  S   S342      1.0  0.39583  0.05447  0.67368  1.0000
  C   C1583     1.0  0.42039  0.00742  0.76474  1.0000
  H   H2788     1.0  0.45712  0.13419  0.97527  1.0000
  H   H2789     1.0  0.41256  0.07634  0.57999  1.0000
  C   C1584     1.0  0.50438  0.10113  0.97503  1.0000
  H   H2790     1.0  0.55298  0.12190  0.90862  1.0000
  H   H2791     1.0  0.42260  0.11966  0.50931  1.0000
  H   H2792     1.0  0.41119  0.40686  0.53848  1.0000
  H   H2793     1.0  0.44175  0.10409  0.81409  1.0000
  H   H2794     1.0  0.59151  0.36600  0.54536  1.0000
  H   H2795     1.0  0.51802  0.17985  0.51439  1.0000
  H   H2796     1.0  0.45441  0.36757  0.68622  1.0000
  Fe  Fe167     1.0  0.46520  0.07174  0.92420  1.0000
  H   H2797     1.0  0.57045  0.17466  0.97850  1.0000
  H   H2798     1.0  0.43096  0.20018  0.83254  1.0000
  H   H2799     1.0  0.46362  0.38090  0.57494  1.0000
  Fe  Fe168     1.0  0.55566  0.32597  0.52868  1.0000
  H   H2800     1.0  0.41768  0.11368  0.96493  1.0000
  H   H2801     1.0  0.55657  0.47312  0.67917  1.0000
  H   H2802     1.0  0.44980  0.09750  0.55659  1.0000
  H   H2803     1.0  0.56291  0.45761  0.59697  1.0000
  C   C1585     1.0  0.51757  0.46336  0.49303  1.0000
  C   C1586     1.0  0.40223  0.14624  0.74342  1.0000
  H   H2804     1.0  0.55551  0.22769  0.55096  1.0000
  C   C1587     1.0  0.48814  0.09709  0.94813  1.0000
  N   N88       1.0  0.40646  0.10688  0.70770  1.0000
  H   H2805     1.0  0.49915  0.19906  0.58040  1.0000
  H   H2806     1.0  0.42830  0.00650  0.79401  1.0000
  H   H2807     1.0  0.54259  0.15131  0.58211  1.0000
  H   H2808     1.0  0.41700  0.45053  0.51163  1.0000
  C   C1588     1.0  0.44235  0.08351  0.56215  1.0000
  H   H2809     1.0  0.44517  0.09171  0.84063  1.0000
  S   S343      1.0  0.43039  0.03249  0.63716  1.0000
  H   H2810     1.0  0.44531  0.07204  0.74478  1.0000
  H   H2811     1.0  0.54098  0.11871  0.57172  1.0000
  C   C1589     1.0  0.58896  0.47032  0.55358  1.0000
  H   H2812     1.0  0.43143  0.25021  0.60757  1.0000
  C   C1590     1.0  0.41866  0.09053  0.57051  1.0000
  S   S344      1.0  0.46575  0.03890  0.94275  1.0000
  Fe  Fe169     1.0  0.40645  0.02268  0.66551  1.0000
  N   N89       1.0  0.50671  0.23639  0.65097  1.0000
  C   C1591     1.0  0.52064  0.23622  0.62953  1.0000
  C   C1592     1.0  0.49585  0.25882  0.65229  1.0000
  C   C1593     1.0  0.52057  0.22884  0.66702  1.0000
  C   C1594     1.0  0.49115  0.22217  0.65608  1.0000
  C   C1595     1.0  0.48182  0.22064  0.63778  1.0000
  C   C1596     1.0  0.53570  0.21501  0.62665  1.0000
  C   C1597     1.0  0.50942  0.22971  0.69014  1.0000
  C   C1598     1.0  0.48084  0.27010  0.63702  1.0000
  C   C1599     1.0  0.47598  0.29387  0.63531  1.0000
  C   C1600     1.0  0.46489  0.20759  0.64590  1.0000
  C   C1601     1.0  0.45346  0.05125  0.77387  1.0000
  C   C1602     1.0  0.52369  0.21752  0.70547  1.0000
  H   H2813     1.0  0.53038  0.24846  0.62549  1.0000
  H   H2814     1.0  0.51130  0.24072  0.61717  1.0000
  H   H2815     1.0  0.48594  0.25964  0.66816  1.0000
  H   H2816     1.0  0.50775  0.26856  0.64999  1.0000
  H   H2817     1.0  0.53323  0.23804  0.66281  1.0000
  H   H2818     1.0  0.52855  0.21214  0.66705  1.0000
  H   H2819     1.0  0.49817  0.20571  0.66293  1.0000
  H   H2820     1.0  0.47786  0.22714  0.66859  1.0000
  H   H2821     1.0  0.49395  0.21298  0.62596  1.0000
  H   H2822     1.0  0.47451  0.23615  0.62973  1.0000
  H   H2823     1.0  0.54916  0.21277  0.63424  1.0000
  H   H2824     1.0  0.52772  0.20151  0.63384  1.0000
  H   H2825     1.0  0.49524  0.22280  0.69459  1.0000
  H   H2826     1.0  0.50480  0.24621  0.69244  1.0000
  H   H2827     1.0  0.48712  0.26739  0.62092  1.0000
  H   H2828     1.0  0.46584  0.26457  0.64299  1.0000
  H   H2829     1.0  0.49022  0.30041  0.62739  1.0000
  H   H2830     1.0  0.46384  0.30112  0.62569  1.0000
  H   H2831     1.0  0.46998  0.29783  0.65112  1.0000
  H   H2832     1.0  0.47189  0.19092  0.65174  1.0000
  H   H2833     1.0  0.45300  0.21372  0.65882  1.0000
  H   H2834     1.0  0.45681  0.20847  0.63313  1.0000
  Fe  Fe170     1.0  0.58070  0.13996  0.83226  1.0000
  C   C1603     1.0  0.52728  0.18370  0.92168  1.0000
  H   H2835     1.0  0.53807  0.22404  0.70195  1.0000
  H   H2836     1.0  0.51528  0.21879  0.72177  1.0000
  H   H2837     1.0  0.52803  0.20057  0.70466  1.0000
  C   C1604     1.0  0.39815  0.07779  0.79922  1.0000
  H   H2838     1.0  0.47602  0.39446  0.70152  1.0000
  N   N90       1.0  0.49391  0.39190  0.51131  1.0000
  H   H2839     1.0  0.48935  0.04441  0.74379  1.0000
  H   H2840     1.0  0.42457  0.13978  0.82420  1.0000
  C   C1605     1.0  0.48267  0.39376  0.53344  1.0000
  C   C1606     1.0  0.48428  0.19152  0.95154  1.0000
  H   H2841     1.0  0.46049  0.02416  0.83760  1.0000
  H   H2842     1.0  0.43377  0.03039  0.85113  1.0000
  C   C1607     1.0  0.49230  0.37748  0.55105  1.0000
  H   H2843     1.0  0.39723  0.19027  0.50450  1.0000
  H   H2844     1.0  0.51757  0.20709  0.51313  1.0000
  C   C1608     1.0  0.47855  0.35922  0.51365  1.0000
  C   C1609     1.0  0.42009  0.03958  0.77833  1.0000
  C   C1610     1.0  0.48043  0.38126  0.57270  1.0000
  C   C1611     1.0  0.42013  0.07395  0.78508  1.0000
  C   C1612     1.0  0.56999  0.38609  0.59667  1.0000
  H   H2845     1.0  0.58061  0.41215  0.52347  1.0000
  H   H2846     1.0  0.50945  0.35931  0.51743  1.0000
  H   H2847     1.0  0.46597  0.39276  0.53596  1.0000
  H   H2848     1.0  0.48224  0.40959  0.53622  1.0000
  C   C1613     1.0  0.41298  0.39935  0.63863  1.0000
  H   H2849     1.0  0.52559  0.38554  0.51613  1.0000
  H   H2850     1.0  0.50788  0.13271  0.93260  1.0000
  H   H2851     1.0  0.49098  0.17970  0.54870  1.0000
  H   H2852     1.0  0.43929  0.31720  0.71681  1.0000
  H   H2853     1.0  0.54301  0.20065  0.87973  1.0000
  H   H2854     1.0  0.50884  0.37829  0.54962  1.0000
  H   H2855     1.0  0.49152  0.36132  0.55050  1.0000
  Fe  Fe171     1.0  0.53856  0.29538  0.56679  1.0000
  Fe  Fe172     1.0  0.45744  0.03231  0.91533  1.0000
  C   C1614     1.0  0.43841  0.14120  0.51488  1.0000
  H   H2856     1.0  0.46880  0.36101  0.52928  1.0000
  H   H2857     1.0  0.42451  0.13826  0.88880  1.0000
  H   H2858     1.0  0.46045  0.06268  0.77787  1.0000
  H   H2859     1.0  0.57395  0.42430  0.55849  1.0000
  H   H2860     1.0  0.44241  0.09113  0.98683  1.0000
  S   S345      1.0  0.51526  0.27405  0.58151  1.0000
  H   H2861     1.0  0.41530  0.44253  0.53961  1.0000
  H   H2862     1.0  0.44414  0.34165  0.61626  1.0000
  H   H2863     1.0  0.57231  0.13110  0.79332  1.0000
  H   H2864     1.0  0.48192  0.39661  0.57503  1.0000
  H   H2865     1.0  0.45048  0.11708  0.90950  1.0000
  N   N91       1.0  0.40533  0.10201  0.55452  1.0000
  H   H2866     1.0  0.44884  0.34137  0.49146  1.0000
  S   S346      1.0  0.40948  0.03349  0.58753  1.0000
  C   C1615     1.0  0.55503  0.47678  0.54447  1.0000
  C   C1616     1.0  0.42597  0.33064  0.71886  1.0000
  C   C1617     1.0  0.57927  0.39537  0.52765  1.0000
  H   H2867     1.0  0.56322  0.01036  0.72746  1.0000
  H   H2868     1.0  0.45060  0.40264  0.69441  1.0000
  S   S347      1.0  0.56039  0.29828  0.58595  1.0000
  H   H2869     1.0  0.46535  0.11708  0.67125  1.0000
  C   C1618     1.0  0.55026  0.17177  0.95920  1.0000
  H   H2870     1.0  0.52053  0.16298  0.97512  1.0000
  H   H2871     1.0  0.43625  0.02854  0.68384  1.0000
  H   H2872     1.0  0.40525  0.23334  0.79020  1.0000
  Fe  Fe173     1.0  0.43136  0.05012  0.95292  1.0000
  H   H2873     1.0  0.43351  0.24768  0.78836  1.0000
  C   C1619     1.0  0.40001  0.30678  0.73826  1.0000
  H   H2874     1.0  0.44274  0.27101  0.78761  1.0000
  H   H2875     1.0  0.40480  0.38986  0.65222  1.0000
  C   C1620     1.0  0.41272  0.29382  0.54182  1.0000
  C   C1621     1.0  0.57075  0.06272  0.78285  1.0000
  C   C1622     1.0  0.43098  0.32126  0.56092  1.0000
  S   S348      1.0  0.57902  0.33144  0.54398  1.0000
  C   C1623     1.0  0.43915  0.32856  0.57708  1.0000
  C   C1624     1.0  0.46293  0.32238  0.57433  1.0000
  N   N92       1.0  0.43155  0.05133  0.78664  1.0000
  H   H2876     1.0  0.43293  0.33321  0.54598  1.0000
  H   H2877     1.0  0.44175  0.30669  0.55692  1.0000
  H   H2878     1.0  0.42990  0.29228  0.53749  1.0000
  H   H2879     1.0  0.51848  0.22358  0.56368  1.0000
  H   H2880     1.0  0.43465  0.34599  0.57500  1.0000
  H   H2881     1.0  0.43228  0.32182  0.59352  1.0000
  H   H2882     1.0  0.47057  0.32872  0.55812  1.0000
  H   H2883     1.0  0.46821  0.32882  0.58534  1.0000
  H   H2884     1.0  0.46796  0.30499  0.57783  1.0000
  Fe  Fe174     1.0  0.46804  0.45591  0.59532  1.0000
  C   C1625     1.0  0.52679  0.17336  0.96017  1.0000
  H   H2885     1.0  0.39926  0.04401  0.73397  1.0000
  C   C1626     1.0  0.42642  0.10981  0.69193  1.0000
  C   C1627     1.0  0.52325  0.13708  0.92501  1.0000
  H   H2886     1.0  0.47972  0.35934  0.69308  1.0000
  H   H2887     1.0  0.48556  0.28029  0.51960  1.0000
  H   H2888     1.0  0.43511  0.41378  0.52239  1.0000
  C   C1628     1.0  0.43371  0.42437  0.60353  1.0000
  C   C1629     1.0  0.49798  0.99281  0.84793  1.0000
  H   H2889     1.0  0.57627  0.19251  0.83417  1.0000
  H   H2890     1.0  0.42107  0.14201  0.71330  1.0000
  H   H2891     1.0  0.50166  0.00239  0.83184  1.0000
  C   C1630     1.0  0.48945  0.20064  0.50919  1.0000
  C   C1631     1.0  0.41792  0.41754  0.52419  1.0000
  Fe  Fe175     1.0  0.55361  0.33293  0.57257  1.0000
  H   H2892     1.0  0.40743  0.29285  0.78306  1.0000
  H   H2893     1.0  0.56547  0.05071  0.77791  1.0000
  C   C1632     1.0  0.42011  0.41288  0.60108  1.0000
  H   H2894     1.0  0.44241  0.10773  0.52439  1.0000
  C   C1633     1.0  0.51485  0.39809  0.50733  1.0000
  H   H2895     1.0  0.45487  0.14351  0.90057  1.0000
  C   C1634     1.0  0.46487  0.00228  0.72116  1.0000
  H   H2896     1.0  0.47161  0.12258  0.88793  1.0000
  H   H2897     1.0  0.41823  0.32065  0.75247  1.0000
  H   H2898     1.0  0.45540  0.17963  0.96436  1.0000
  H   H2899     1.0  0.55810  0.38913  0.48949  1.0000
  C   C1635     1.0  0.50845  0.19440  0.51947  1.0000
  H   H2900     1.0  0.58106  0.00027  0.80344  1.0000
  C   C1636     1.0  0.47538  0.42967  0.49735  1.0000
  H   H2901     1.0  0.54397  0.19545  0.53190  1.0000
  C   C1637     1.0  0.47071  0.11224  0.95445  1.0000
  H   H2902     1.0  0.51333  0.41235  0.51367  1.0000
  S   S349      1.0  0.44766  0.48558  0.58188  1.0000
  H   H2903     1.0  0.44831  0.11124  0.71067  1.0000
  C   C1638     1.0  0.50995  0.18370  0.57874  1.0000
  H   H2904     1.0  0.44136  0.43422  0.58997  1.0000
  H   H2905     1.0  0.48534  0.19329  0.96722  1.0000
  H   H2906     1.0  0.51601  0.18652  0.91119  1.0000
  C   C1639     1.0  0.48560  0.33564  0.51377  1.0000
  C   C1640     1.0  0.50491  0.09167  0.95848  1.0000
  H   H2907     1.0  0.46474  0.43227  0.51245  1.0000
  C   C1641     1.0  0.58973  0.44868  0.55798  1.0000
  C   C1642     1.0  0.42725  0.27350  0.76198  1.0000
  S   S350      1.0  0.49087  0.99723  0.78829  1.0000
  H   H2908     1.0  0.46385  0.03576  0.77784  1.0000
  S   S351      1.0  0.41595  0.04192  0.98708  1.0000
  C   C1643     1.0  0.44071  0.26077  0.77791  1.0000
  Fe  Fe176     1.0  0.42634  0.07306  0.90821  1.0000
  H   H2909     1.0  0.45622  0.05723  0.81182  1.0000
  H   H2910     1.0  0.42178  0.08346  0.53079  1.0000
  S   S352      1.0  0.43116  0.08354  0.93569  1.0000
  H   H2911     1.0  0.43553  0.28606  0.75204  1.0000
  H   H2912     1.0  0.42675  0.26310  0.75181  1.0000
  H   H2913     1.0  0.49461  0.20358  0.49183  1.0000
  H   H2914     1.0  0.50442  0.40610  0.63486  1.0000
  H   H2915     1.0  0.39820  0.27014  0.72821  1.0000
  H   H2916     1.0  0.55732  0.39857  0.59221  1.0000
  C   C1644     1.0  0.56979  0.36520  0.59649  1.0000
  S   S353      1.0  0.44327  0.47452  0.52768  1.0000
  H   H2917     1.0  0.45637  0.25393  0.76947  1.0000
  H   H2918     1.0  0.52230  0.18268  0.58744  1.0000
  H   H2919     1.0  0.46360  0.03262  0.70018  1.0000
  C   C1645     1.0  0.55844  0.99603  0.73820  1.0000
  H   H2920     1.0  0.58781  0.10487  0.97799  1.0000
  H   H2921     1.0  0.41245  0.17798  0.86025  1.0000
  H   H2922     1.0  0.45184  0.20788  0.95632  1.0000
  C   C1646     1.0  0.45215  0.10107  0.82544  1.0000
  C   C1647     1.0  0.40619  0.08364  0.71448  1.0000
  H   H2923     1.0  0.40916  0.46444  0.57772  1.0000
  H   H2924     1.0  0.53740  0.16131  0.53610  1.0000
  C   C1648     1.0  0.52654  0.22101  0.54773  1.0000
  H   H2925     1.0  0.39650  0.11394  0.98746  1.0000
  H   H2926     1.0  0.55405  0.37795  0.54160  1.0000
  H   H2927     1.0  0.49172  0.20603  0.54774  1.0000
  H   H2928     1.0  0.42792  0.10201  0.67881  1.0000
  H   H2929     1.0  0.44738  0.01398  0.77100  1.0000
  C   C1649     1.0  0.55349  0.17664  0.97906  1.0000
  C   C1650     1.0  0.49741  0.16624  0.59082  1.0000
  H   H2930     1.0  0.41743  0.04797  0.76237  1.0000
  H   H2931     1.0  0.51811  0.15109  0.55645  1.0000
  H   H2932     1.0  0.53156  0.21581  0.59535  1.0000
  H   H2933     1.0  0.41756  0.41376  0.58559  1.0000
  H   H2934     1.0  0.57030  0.19040  0.88020  1.0000
  C   C1651     1.0  0.41206  0.12233  0.54241  1.0000
  H   H2935     1.0  0.43702  0.28645  0.59324  1.0000
  C   C1652     1.0  0.46614  0.10148  0.68203  1.0000
  S   S354      1.0  0.49599  0.47027  0.59066  1.0000
  H   H2936     1.0  0.50749  0.15032  0.59172  1.0000
  H   H2937     1.0  0.54581  0.40497  0.52926  1.0000
  H   H2938     1.0  0.54716  0.19213  0.55795  1.0000
  H   H2939     1.0  0.56139  0.15761  0.55849  1.0000
  H   H2940     1.0  0.43024  0.06589  0.82562  1.0000
  N   N93       1.0  0.51921  0.18332  0.55583  1.0000
  H   H2941     1.0  0.57240  0.04055  0.92560  1.0000
  S   S355      1.0  0.57637  0.06513  0.98476  1.0000
  C   C1653     1.0  0.44056  0.13306  0.88018  1.0000
  H   H2942     1.0  0.52767  0.13522  0.95619  1.0000
  H   H2943     1.0  0.44628  0.14283  0.52688  1.0000
  H   H2944     1.0  0.53341  0.00727  0.97111  1.0000
  H   H2945     1.0  0.41704  0.03806  0.81841  1.0000
  C   C1654     1.0  0.53834  0.11756  0.91873  1.0000
  H   H2946     1.0  0.39851  0.13418  0.53727  1.0000
  C   C1655     1.0  0.42930  0.12123  0.52220  1.0000
  C   C1656     1.0  0.48714  0.11644  0.98121  1.0000
  C   C1657     1.0  0.50171  0.19101  0.54379  1.0000
  H   H2947     1.0  0.48214  0.07264  0.74211  1.0000
  H   H2948     1.0  0.55315  0.39899  0.55432  1.0000
  C   C1658     1.0  0.47811  0.05895  0.73866  1.0000
  H   H2949     1.0  0.51529  0.22787  0.53711  1.0000
  H   H2950     1.0  0.45174  0.04451  0.74392  1.0000
  H   H2951     1.0  0.44170  0.11788  0.87579  1.0000
  H   H2952     1.0  0.54785  0.00066  0.91438  1.0000
  H   H2953     1.0  0.48462  0.16676  0.58310  1.0000
  H   H2954     1.0  0.42948  0.08364  0.78871  1.0000
  H   H2955     1.0  0.52616  0.19941  0.92511  1.0000
  S   S356      1.0  0.42280  0.04078  0.92681  1.0000
  H   H2956     1.0  0.55257  0.22791  0.59565  1.0000
  H   H2957     1.0  0.46701  0.08948  0.67290  1.0000
  H   H2958     1.0  0.41389  0.41483  0.51019  1.0000
  H   H2959     1.0  0.44832  0.08496  0.70882  1.0000
  H   H2960     1.0  0.41978  0.07490  0.72164  1.0000
  S   S357      1.0  0.48417  0.00588  0.73257  1.0000
  C   C1659     1.0  0.54425  0.23330  0.54024  1.0000
  H   H2961     1.0  0.57473  0.01375  0.93790  1.0000
  Fe  Fe177     1.0  0.41806  0.06477  0.64411  1.0000
  C   C1660     1.0  0.44710  0.10140  0.70016  1.0000
  H   H2962     1.0  0.39614  0.06498  0.51571  1.0000
  H   H2963     1.0  0.54206  0.10565  0.93281  1.0000
  H   H2964     1.0  0.54587  0.19311  0.98044  1.0000
  S   S358      1.0  0.46072  0.06403  0.89508  1.0000
  C   C1661     1.0  0.54442  0.21458  0.60340  1.0000
  C   C1662     1.0  0.41786  0.26356  0.60648  1.0000
  C   C1663     1.0  0.44732  0.03726  0.84141  1.0000
  S   S359      1.0  0.56343  0.29071  0.53807  1.0000
  C   C1664     1.0  0.53517  0.19722  0.54799  1.0000
  C   C1665     1.0  0.52986  0.16131  0.55283  1.0000
  H   H2965     1.0  0.50875  0.28921  0.53814  1.0000
  C   C1666     1.0  0.48060  0.40600  0.49633  1.0000
  H   H2966     1.0  0.42513  0.12509  0.84984  1.0000
  C   C1667     1.0  0.40603  0.08720  0.54063  1.0000
  H   H2967     1.0  0.43209  0.34427  0.71964  1.0000
  H   H2968     1.0  0.56763  0.21537  0.81504  1.0000
  C   C1668     1.0  0.41017  0.32489  0.73904  1.0000
  H   H2969     1.0  0.52111  0.14898  0.91047  1.0000
  C   C1669     1.0  0.42419  0.28178  0.58906  1.0000
  H   H2970     1.0  0.57237  0.08372  0.75205  1.0000
  H   H2971     1.0  0.39591  0.11114  0.79823  1.0000
  C   C1670     1.0  0.55424  0.12695  0.56430  1.0000
  H   H2972     1.0  0.58396  0.48278  0.59731  1.0000
  H   H2973     1.0  0.45200  0.04610  0.85080  1.0000
  C   C1671     1.0  0.40546  0.30076  0.58673  1.0000
  H   H2974     1.0  0.55987  0.12498  0.54774  1.0000
  C   C1672     1.0  0.58575  0.07834  0.94189  1.0000
  S   S360      1.0  0.40484  0.09364  0.88664  1.0000
  H   H2975     1.0  0.54151  0.48765  0.53953  1.0000
  H   H2976     1.0  0.39984  0.47580  0.54267  1.0000
  H   H2977     1.0  0.56714  0.11948  0.57293  1.0000
  H   H2978     1.0  0.49274  0.00347  0.85931  1.0000
  H   H2979     1.0  0.48050  0.18775  0.51406  1.0000
  H   H2980     1.0  0.42438  0.01492  0.74789  1.0000
  H   H2981     1.0  0.55948  0.00419  0.84385  1.0000
  H   H2982     1.0  0.56181  0.17239  0.91702  1.0000
  C   C1673     1.0  0.53878  0.02228  0.96820  1.0000
  H   H2983     1.0  0.53624  0.46144  0.61100  1.0000
  H   H2984     1.0  0.40420  0.03914  0.78818  1.0000
  H   H2985     1.0  0.56374  0.02053  0.85943  1.0000
  H   H2986     1.0  0.45884  0.19191  0.93670  1.0000
  H   H2987     1.0  0.49246  0.16736  0.93342  1.0000
  S   S361      1.0  0.39754  0.34367  0.66999  1.0000
  H   H2988     1.0  0.55563  0.01864  0.96876  1.0000
  H   H2989     1.0  0.39925  0.07360  0.81593  1.0000
  S   S362      1.0  0.58610  0.06101  0.85262  1.0000
  H   H2990     1.0  0.50978  0.00838  0.95048  1.0000
  C   C1674     1.0  0.58446  0.08260  0.96159  1.0000
  C   C1675     1.0  0.39786  0.18427  0.79346  1.0000
  H   H2991     1.0  0.39864  0.14258  0.87345  1.0000
  C   C1676     1.0  0.57165  0.48438  0.54687  1.0000
  H   H2992     1.0  0.58183  0.47564  0.63567  1.0000
  C   C1677     1.0  0.59092  0.11384  0.92538  1.0000
  C   C1678     1.0  0.57025  0.49061  0.63710  1.0000
  C   C1679     1.0  0.44531  0.32591  0.49214  1.0000
  C   C1680     1.0  0.40184  0.31454  0.54942  1.0000
  C   C1681     1.0  0.56876  0.02553  0.92472  1.0000
  H   H2993     1.0  0.54880  0.99430  0.94137  1.0000
  C   C1682     1.0  0.40570  0.13910  0.72273  1.0000
  H   H2994     1.0  0.58339  0.06333  0.94084  1.0000
  H   H2995     1.0  0.39957  0.02858  0.55007  1.0000
  H   H2996     1.0  0.40868  0.28016  0.55422  1.0000
  H   H2997     1.0  0.49416  0.33304  0.49789  1.0000
  H   H2998     1.0  0.44872  0.99812  0.94798  1.0000
  H   H2999     1.0  0.39891  0.25195  0.75319  1.0000
  H   H3000     1.0  0.46065  0.03597  0.98442  1.0000
  H   H3001     1.0  0.58203  0.05424  0.79314  1.0000
  H   H3002     1.0  0.57663  0.02840  0.89013  1.0000
  C   C1683     1.0  0.58231  0.01864  0.90430  1.0000
  H   H3003     1.0  0.58200  0.38918  0.51317  1.0000
  H   H3004     1.0  0.41455  0.13715  0.75232  1.0000
  C   C1684     1.0  0.58276  0.07533  0.76332  1.0000
  H   H3005     1.0  0.58485  0.46593  0.67290  1.0000
  H   H3006     1.0  0.41277  0.26856  0.62181  1.0000
  Fe  Fe178     1.0  0.40432  0.04053  0.61962  1.0000
  H   H3007     1.0  0.39835  0.26996  0.78454  1.0000
  Fe  Fe179     1.0  0.58448  0.29659  0.55623  1.0000
  C   C1685     1.0  0.39488  0.15507  0.85986  1.0000
  C   C1686     1.0  0.58777  0.10190  0.96293  1.0000
  C   C1687     1.0  0.59045  0.11765  0.94495  1.0000
  C   C1688     1.0  0.40506  0.29270  0.52267  1.0000
  H   H3008     1.0  0.39753  0.48296  0.50714  1.0000
  C   C1689     1.0  0.39519  0.33895  0.57282  1.0000
  H   H3009     1.0  0.39959  0.34282  0.58607  1.0000
  H   H3010     1.0  0.58699  0.40727  0.60159  1.0000
  H   H3011     1.0  0.48956  0.43572  0.49599  1.0000
  H   H3012     1.0  0.53270  0.04791  0.98492  1.0000
  C   C1690     1.0  0.43353  0.99775  0.70271  1.0000
  C   C1691     1.0  0.58912  0.09399  0.92367  1.0000
  H   H3013     1.0  0.57225  0.48428  0.68991  1.0000
  C   C1692     1.0  0.58647  0.34925  0.60205  1.0000
  H   H3014     1.0  0.39782  0.33919  0.74096  1.0000
  H   H3015     1.0  0.58958  0.09094  0.90849  1.0000
  C   C1693     1.0  0.39968  0.05828  0.87604  1.0000
  H   H3016     1.0  0.58921  0.08695  0.76773  1.0000
  S   S363      1.0  0.41391  0.99481  0.69126  1.0000
  H   H3017     1.0  0.40313  0.01032  0.76988  1.0000
  H   H3018     1.0  0.39642  0.99631  0.91579  1.0000
  H   H3019     1.0  0.59015  0.38717  0.55693  1.0000
  C   C1694     1.0  0.58693  0.39108  0.60181  1.0000
  Fe  Fe180     1.0  0.59195  0.09331  0.84982  1.0000
  S   S364      1.0  0.39390  0.07393  0.62414  1.0000
  C   C1695     1.0  0.39379  0.08011  0.87410  1.0000
  H   H3020     1.0  0.39338  0.14915  0.71431  1.0000
  S   S365      1.0  0.39343  0.38565  0.61477  1.0000
  H   H3021     1.0  0.43419  0.60335  0.32023  1.0000
  H   H3022     1.0  0.49057  0.69679  0.05484  1.0000
  H   H3023     1.0  0.40394  0.50189  0.21431  1.0000
  C   C1696     1.0  0.51875  0.53815  0.34557  1.0000
  S   S366      1.0  0.54001  0.86082  0.09174  1.0000
  S   S367      1.0  0.45199  0.56126  0.44665  1.0000
  H   H3024     1.0  0.52794  0.67096  0.02840  1.0000
  C   C1697     1.0  0.57752  0.51778  0.44218  1.0000
  C   C1698     1.0  0.59179  0.87513  0.11588  1.0000
  S   S368      1.0  0.55579  0.58998  0.33535  1.0000
  H   H3025     1.0  0.39642  0.88053  0.15928  1.0000
  H   H3026     1.0  0.44260  0.54363  0.28478  1.0000
  S   S369      1.0  0.55698  0.57171  0.39346  1.0000
  Fe  Fe181     1.0  0.45262  0.69669  0.22466  1.0000
  S   S370      1.0  0.42448  0.68829  0.21966  1.0000
  S   S371      1.0  0.45237  0.73128  0.21750  1.0000
  Fe  Fe182     1.0  0.47185  0.65147  0.24103  1.0000
  S   S372      1.0  0.44503  0.63947  0.23765  1.0000
  S   S373      1.0  0.49751  0.62590  0.25247  1.0000
  Fe  Fe183     1.0  0.44727  0.66192  0.20668  1.0000
  S   S374      1.0  0.44537  0.64965  0.17931  1.0000
  Fe  Fe184     1.0  0.42498  0.66687  0.25100  1.0000
  S   S375      1.0  0.54110  0.49818  0.28497  1.0000
  S   S376      1.0  0.47575  0.67206  0.20875  1.0000
  S   S377      1.0  0.45150  0.67708  0.25736  1.0000
  Fe  Fe185     1.0  0.44486  0.71701  0.04565  1.0000
  S   S378      1.0  0.40999  0.72720  0.05315  1.0000
  S   S379      1.0  0.46653  0.74007  0.03096  1.0000
  Fe  Fe186     1.0  0.44324  0.67106  0.06205  1.0000
  S   S380      1.0  0.40812  0.67700  0.07189  1.0000
  S   S381      1.0  0.46419  0.63901  0.06650  1.0000
  H   H3027     1.0  0.39682  0.60752  0.32929  1.0000
  C   C1699     1.0  0.54597  0.65382  0.08690  1.0000
  Fe  Fe187     1.0  0.41182  0.70413  0.08354  1.0000
  C   C1700     1.0  0.40573  0.58635  0.01450  1.0000
  S   S382      1.0  0.44362  0.69149  0.02990  1.0000
  S   S383      1.0  0.44677  0.69589  0.07697  1.0000
  S   S384      1.0  0.51641  0.82802  0.06465  1.0000
  H   H3028     1.0  0.47067  0.57631  0.26209  1.0000
  C   C1701     1.0  0.41791  0.80604  0.99172  1.0000
  Fe  Fe188     1.0  0.47184  0.97422  0.12336  1.0000
  S   S385      1.0  0.49473  0.95699  0.14420  1.0000
  C   C1702     1.0  0.45368  0.52352  0.20218  1.0000
  H   H3029     1.0  0.42761  0.53337  0.47107  1.0000
  S   S386      1.0  0.46062  0.95583  0.10626  1.0000
  S   S387      1.0  0.42143  0.77729  0.13313  1.0000
  H   H3030     1.0  0.55778  0.66391  0.08273  1.0000
  Fe  Fe189     1.0  0.42639  0.50968  0.14939  1.0000
  C   C1703     1.0  0.53008  0.50791  0.37346  1.0000
  H   H3031     1.0  0.51102  0.53444  0.29729  1.0000
  H   H3032     1.0  0.41112  0.69956  0.27468  1.0000
  C   C1704     1.0  0.41748  0.93492  0.09958  1.0000
  H   H3033     1.0  0.41577  0.62284  0.02288  1.0000
  C   C1705     1.0  0.55516  0.98152  0.12778  1.0000
  H   H3034     1.0  0.40947  0.75786  0.09286  1.0000
  H   H3035     1.0  0.42258  0.71432  0.99378  1.0000
  C   C1706     1.0  0.51717  0.96759  0.13968  1.0000
  C   C1707     1.0  0.53489  0.95494  0.14690  1.0000
  C   C1708     1.0  0.55403  0.96163  0.14048  1.0000
  C   C1709     1.0  0.40196  0.60742  0.06352  1.0000
  H   H3036     1.0  0.49243  0.53245  0.32184  1.0000
  H   H3037     1.0  0.53407  0.93950  0.15666  1.0000
  H   H3038     1.0  0.56792  0.95130  0.14514  1.0000
  H   H3039     1.0  0.49607  0.66895  0.05751  1.0000
  H   H3040     1.0  0.55480  0.84460  0.13053  1.0000
  H   H3041     1.0  0.48993  0.97638  0.99477  1.0000
  H   H3042     1.0  0.42557  0.52179  0.27296  1.0000
  C   C1710     1.0  0.51532  0.68489  0.03069  1.0000
  C   C1711     1.0  0.47658  0.66417  0.12171  1.0000
  H   H3043     1.0  0.44676  0.58627  0.22615  1.0000
  H   H3044     1.0  0.41942  0.65291  0.41113  1.0000
  C   C1712     1.0  0.47962  0.74715  0.04707  1.0000
  C   C1713     1.0  0.47584  0.73999  0.06888  1.0000
  C   C1714     1.0  0.48538  0.74702  0.08145  1.0000
  C   C1715     1.0  0.49915  0.76096  0.07231  1.0000
  C   C1716     1.0  0.49343  0.76103  0.03793  1.0000
  H   H3045     1.0  0.46497  0.72964  0.07623  1.0000
  H   H3046     1.0  0.48179  0.74193  0.09835  1.0000
  C   C1717     1.0  0.43059  0.66781  0.16212  1.0000
  C   C1718     1.0  0.42534  0.66083  0.14660  1.0000
  H   H3047     1.0  0.42452  0.52263  0.36161  1.0000
  H   H3048     1.0  0.42129  0.93158  0.18463  1.0000
  C   C1719     1.0  0.41287  0.70328  0.14905  1.0000
  C   C1720     1.0  0.42422  0.68906  0.16346  1.0000
  C   C1721     1.0  0.45596  0.49514  0.18487  1.0000
  H   H3049     1.0  0.42161  0.58463  0.20485  1.0000
  S   S388      1.0  0.40980  0.87886  0.09376  1.0000
  H   H3050     1.0  0.42856  0.69468  0.17513  1.0000
  C   C1722     1.0  0.44214  0.74371  0.19487  1.0000
  C   C1723     1.0  0.44400  0.73249  0.17933  1.0000
  C   C1724     1.0  0.43744  0.74288  0.16045  1.0000
  C   C1725     1.0  0.42847  0.76436  0.15731  1.0000
  C   C1726     1.0  0.42582  0.77542  0.17321  1.0000
  C   C1727     1.0  0.43294  0.76516  0.19184  1.0000
  H   H3051     1.0  0.45118  0.71595  0.18157  1.0000
  H   H3052     1.0  0.43949  0.73432  0.14818  1.0000
  H   H3053     1.0  0.40864  0.63164  0.12810  1.0000
  H   H3054     1.0  0.43134  0.77386  0.20390  1.0000
  C   C1728     1.0  0.53332  0.64349  0.29260  1.0000
  C   C1729     1.0  0.51766  0.65867  0.28392  1.0000
  C   C1730     1.0  0.50660  0.65349  0.27145  1.0000
  C   C1731     1.0  0.51133  0.63313  0.26751  1.0000
  C   C1732     1.0  0.52731  0.61814  0.27574  1.0000
  C   C1733     1.0  0.53832  0.62330  0.28819  1.0000
  H   H3055     1.0  0.51409  0.67443  0.28680  1.0000
  H   H3056     1.0  0.49457  0.66528  0.26479  1.0000
  H   H3057     1.0  0.53131  0.60255  0.27238  1.0000
  H   H3058     1.0  0.50520  0.59951  0.22328  1.0000
  H   H3059     1.0  0.55801  0.54454  0.33947  1.0000
  C   C1734     1.0  0.56359  0.58359  0.44694  1.0000
  C   C1735     1.0  0.55510  0.58193  0.43060  1.0000
  C   C1736     1.0  0.56816  0.57552  0.41264  1.0000
  C   C1737     1.0  0.50224  0.61494  0.18235  1.0000
  H   H3060     1.0  0.49723  0.53651  0.46919  1.0000
  C   C1738     1.0  0.40028  0.58153  0.31318  1.0000
  H   H3061     1.0  0.53837  0.58545  0.43188  1.0000
  H   H3062     1.0  0.55390  0.50288  0.43848  1.0000
  H   H3063     1.0  0.51922  0.71506  0.08997  1.0000
  H   H3064     1.0  0.47055  0.85885  0.06524  1.0000
  H   H3065     1.0  0.39838  0.85799  0.02128  1.0000
  H   H3066     1.0  0.53569  0.50484  0.38840  1.0000
  C   C1739     1.0  0.40871  0.90123  0.17209  1.0000
  H   H3067     1.0  0.51368  0.61673  0.42534  1.0000
  C   C1740     1.0  0.42075  0.59098  0.18810  1.0000
  C   C1741     1.0  0.45010  0.62386  0.08795  1.0000
  C   C1742     1.0  0.43460  0.63426  0.10194  1.0000
  H   H3068     1.0  0.48807  0.70086  0.01697  1.0000
  H   H3069     1.0  0.45732  0.76939  0.99482  1.0000
  C   C1743     1.0  0.43932  0.59092  0.10627  1.0000
  C   C1744     1.0  0.45289  0.60204  0.09034  1.0000
  H   H3070     1.0  0.43321  0.65089  0.10040  1.0000
  H   H3071     1.0  0.56809  0.62898  0.07252  1.0000
  H   H3072     1.0  0.44132  0.57417  0.10797  1.0000
  H   H3073     1.0  0.46510  0.59386  0.07965  1.0000
  H   H3074     1.0  0.43230  0.91292  0.07922  1.0000
  H   H3075     1.0  0.40307  0.93394  0.05225  1.0000
  H   H3076     1.0  0.40571  0.54093  0.32298  1.0000
  H   H3077     1.0  0.41875  0.79196  0.17099  1.0000
  S   S389      1.0  0.40076  0.95962  0.12927  1.0000
  S   S390      1.0  0.40793  0.83422  0.14472  1.0000
  H   H3078     1.0  0.47352  0.59596  0.23854  1.0000
  H   H3079     1.0  0.47385  0.80311  0.11234  1.0000
  H   H3080     1.0  0.45417  0.61256  0.28322  1.0000
  H   H3081     1.0  0.45301  0.56255  0.30320  1.0000
  S   S391      1.0  0.52543  0.84098  0.00351  1.0000
  H   H3082     1.0  0.48255  0.87648  0.00101  1.0000
  C   C1745     1.0  0.43619  0.88871  0.14352  1.0000
  H   H3083     1.0  0.42873  0.75394  0.06934  1.0000
  C   C1746     1.0  0.44214  0.91236  0.16260  1.0000
  S   S392      1.0  0.57926  0.98932  0.11821  1.0000
  H   H3084     1.0  0.39612  0.58287  0.09187  1.0000
  C   C1747     1.0  0.45955  0.88460  0.13230  1.0000
  C   C1748     1.0  0.43746  0.92208  0.18238  1.0000
  C   C1749     1.0  0.44150  0.85319  0.17833  1.0000
  H   H3085     1.0  0.40878  0.61936  0.16769  1.0000
  H   H3086     1.0  0.58151  0.50337  0.28661  1.0000
  C   C1750     1.0  0.46324  0.87214  0.11508  1.0000
  C   C1751     1.0  0.45221  0.93684  0.18007  1.0000
  H   H3087     1.0  0.42798  0.90188  0.13290  1.0000
  H   H3088     1.0  0.55073  0.51397  0.20546  1.0000
  H   H3089     1.0  0.45265  0.57483  0.17809  1.0000
  C   C1752     1.0  0.39937  0.93144  0.03796  1.0000
  H   H3090     1.0  0.43733  0.92535  0.14953  1.0000
  H   H3091     1.0  0.45945  0.90771  0.15809  1.0000
  H   H3092     1.0  0.45692  0.87628  0.18137  1.0000
  H   H3093     1.0  0.40918  0.66962  0.12079  1.0000
  H   H3094     1.0  0.56606  0.97820  0.19646  1.0000
  H   H3095     1.0  0.55998  0.51920  0.33594  1.0000
  H   H3096     1.0  0.46448  0.89989  0.12483  1.0000
  H   H3097     1.0  0.46986  0.87585  0.14350  1.0000
  H   H3098     1.0  0.44146  0.74277  0.99069  1.0000
  H   H3099     1.0  0.48590  0.83447  0.00032  1.0000
  C   C1753     1.0  0.50634  0.53910  0.31277  1.0000
  C   C1754     1.0  0.44742  0.49620  0.42940  1.0000
  S   S393      1.0  0.39477  0.66379  0.27361  1.0000
  N   N94       1.0  0.51668  0.68075  0.06996  1.0000
  H   H3100     1.0  0.46883  0.53422  0.04488  1.0000
  H   H3101     1.0  0.53716  0.76390  0.11933  1.0000
  C   C1755     1.0  0.47067  0.62327  0.47499  1.0000
  H   H3102     1.0  0.51029  0.73253  0.22233  1.0000
  H   H3103     1.0  0.48002  0.86970  0.10725  1.0000
  H   H3104     1.0  0.45899  0.85649  0.12190  1.0000
  H   H3105     1.0  0.45376  0.88082  0.10308  1.0000
  N   N95       1.0  0.45815  0.91704  0.00954  1.0000
  H   H3106     1.0  0.44801  0.94424  0.19400  1.0000
  H   H3107     1.0  0.46866  0.92806  0.17875  1.0000
  N   N96       1.0  0.44227  0.81484  0.05408  1.0000
  C   C1756     1.0  0.42305  0.82829  0.04648  1.0000
  C   C1757     1.0  0.44057  0.79208  0.05832  1.0000
  C   C1758     1.0  0.44371  0.82091  0.07376  1.0000
  C   C1759     1.0  0.46196  0.81803  0.03798  1.0000
  C   C1760     1.0  0.46290  0.81485  0.01569  1.0000
  C   C1761     1.0  0.42304  0.85215  0.03897  1.0000
  C   C1762     1.0  0.45994  0.80574  0.08619  1.0000
  C   C1763     1.0  0.42131  0.78592  0.07502  1.0000
  H   H3108     1.0  0.40923  0.61154  0.22494  1.0000
  C   C1764     1.0  0.48381  0.81832  0.00143  1.0000
  H   H3109     1.0  0.52527  0.50955  0.20544  1.0000
  C   C1765     1.0  0.46163  0.81429  0.10451  1.0000
  H   H3110     1.0  0.40898  0.82682  0.05927  1.0000
  H   H3111     1.0  0.42022  0.82249  0.03352  1.0000
  H   H3112     1.0  0.43961  0.78757  0.04383  1.0000
  H   H3113     1.0  0.45500  0.78173  0.06286  1.0000
  H   H3114     1.0  0.42840  0.82268  0.08475  1.0000
  H   H3115     1.0  0.44766  0.83673  0.06996  1.0000
  H   H3116     1.0  0.46505  0.83398  0.03640  1.0000
  H   H3117     1.0  0.47574  0.80695  0.04332  1.0000
  H   H3118     1.0  0.45037  0.82616  0.00841  1.0000
  H   H3119     1.0  0.46160  0.79860  0.01601  1.0000
  H   H3120     1.0  0.42557  0.85882  0.05143  1.0000
  H   H3121     1.0  0.43542  0.85510  0.02477  1.0000
  H   H3122     1.0  0.47571  0.80345  0.07607  1.0000
  H   H3123     1.0  0.45549  0.79016  0.09286  1.0000
  H   H3124     1.0  0.41840  0.79293  0.08896  1.0000
  H   H3125     1.0  0.40711  0.79140  0.06806  1.0000
  C   C1766     1.0  0.50654  0.62279  0.45668  1.0000
  H   H3126     1.0  0.52220  0.62452  0.45610  1.0000
  H   H3127     1.0  0.55098  0.72873  0.08365  1.0000
  C   C1767     1.0  0.40712  0.61354  0.18495  1.0000
  S   S394      1.0  0.55773  0.63099  0.48122  1.0000
  C   C1768     1.0  0.47385  0.95021  0.00419  1.0000
  H   H3128     1.0  0.52763  0.74402  0.48772  1.0000
  H   H3129     1.0  0.42452  0.51602  0.44817  1.0000
  S   S395      1.0  0.58144  0.61650  0.35104  1.0000
  H   H3130     1.0  0.52446  0.64715  0.07126  1.0000
  H   H3131     1.0  0.46625  0.82985  0.09890  1.0000
  H   H3132     1.0  0.44657  0.81561  0.11604  1.0000
  C   C1769     1.0  0.43268  0.53169  0.36755  1.0000
  C   C1770     1.0  0.40548  0.90309  0.10129  1.0000
  H   H3133     1.0  0.44711  0.52113  0.37202  1.0000
  H   H3134     1.0  0.44425  0.89257  0.00547  1.0000
  H   H3135     1.0  0.40890  0.61260  0.30163  1.0000
  C   C1771     1.0  0.50358  0.68278  0.05402  1.0000
  C   C1772     1.0  0.43715  0.92958  0.01839  1.0000
  C   C1773     1.0  0.46986  0.90511  0.02673  1.0000
  C   C1774     1.0  0.46102  0.88633  0.04194  1.0000
  C   C1775     1.0  0.53350  0.70686  0.08060  1.0000
  C   C1776     1.0  0.41830  0.91832  0.02588  1.0000
  H   H3136     1.0  0.52809  0.51336  0.32684  1.0000
  C   C1777     1.0  0.47737  0.87170  0.05384  1.0000
  N   N97       1.0  0.53378  0.52911  0.36040  1.0000
  H   H3137     1.0  0.49318  0.76639  0.48329  1.0000
  H   H3138     1.0  0.48735  0.57344  0.47177  1.0000
  H   H3139     1.0  0.57338  0.69335  0.42745  1.0000
  N   N98       1.0  0.54188  0.51360  0.46774  1.0000
  H   H3140     1.0  0.47039  0.91574  0.03682  1.0000
  H   H3141     1.0  0.42861  0.94510  0.09266  1.0000
  H   H3142     1.0  0.44744  0.89217  0.05372  1.0000
  H   H3143     1.0  0.42418  0.67857  0.39703  1.0000
  H   H3144     1.0  0.51698  0.55561  0.34112  1.0000
  C   C1778     1.0  0.46207  0.60325  0.29628  1.0000
  H   H3145     1.0  0.42197  0.90279  0.03622  1.0000
  H   H3146     1.0  0.42244  0.53679  0.38187  1.0000
  C   C1779     1.0  0.42104  0.62329  0.11770  1.0000
  S   S396      1.0  0.40355  0.53178  0.16833  1.0000
  H   H3147     1.0  0.48286  0.88032  0.06272  1.0000
  H   H3148     1.0  0.45615  0.87661  0.03373  1.0000
  H   H3149     1.0  0.49089  0.86468  0.04265  1.0000
  H   H3150     1.0  0.50008  0.74635  0.13099  1.0000
  H   H3151     1.0  0.43685  0.59199  0.25200  1.0000
  C   C1780     1.0  0.41876  0.78330  0.98958  1.0000
  H   H3152     1.0  0.42158  0.57671  0.01076  1.0000
  N   N99       1.0  0.48088  0.65517  0.35785  1.0000
  C   C1781     1.0  0.48687  0.66889  0.33657  1.0000
  C   C1782     1.0  0.48113  0.63308  0.35568  1.0000
  C   C1783     1.0  0.45873  0.66467  0.36722  1.0000
  C   C1784     1.0  0.49474  0.65452  0.37260  1.0000
  C   C1785     1.0  0.42675  0.60922  0.03006  1.0000
  C   C1786     1.0  0.48611  0.69229  0.33643  1.0000
  C   C1787     1.0  0.44893  0.65221  0.38876  1.0000
  C   C1788     1.0  0.49693  0.62455  0.33705  1.0000
  C   C1789     1.0  0.49739  0.60128  0.33869  1.0000
  C   C1790     1.0  0.49615  0.70361  0.31489  1.0000
  H   H3153     1.0  0.44897  0.53456  0.06850  1.0000
  H   H3154     1.0  0.47653  0.66873  0.32605  1.0000
  H   H3155     1.0  0.50286  0.66248  0.32861  1.0000
  H   H3156     1.0  0.48371  0.62150  0.37042  1.0000
  H   H3157     1.0  0.46560  0.63195  0.35357  1.0000
  H   H3158     1.0  0.44832  0.66676  0.35602  1.0000
  H   H3159     1.0  0.45778  0.68063  0.36987  1.0000
  Fe  Fe190     1.0  0.40419  0.52552  0.11277  1.0000
  Fe  Fe191     1.0  0.57318  0.58457  0.36104  1.0000
  H   H3160     1.0  0.52348  0.66082  0.34979  1.0000
  H   H3161     1.0  0.46590  0.63761  0.02272  1.0000
  H   H3162     1.0  0.46968  0.70083  0.34004  1.0000
  H   H3163     1.0  0.49455  0.69369  0.34803  1.0000
  C   C1791     1.0  0.54115  0.74736  0.12765  1.0000
  H   H3164     1.0  0.44973  0.63562  0.38821  1.0000
  H   H3165     1.0  0.49235  0.63327  0.32193  1.0000
  H   H3166     1.0  0.51299  0.62614  0.33634  1.0000
  H   H3167     1.0  0.50822  0.59594  0.32471  1.0000
  H   H3168     1.0  0.50307  0.59171  0.35300  1.0000
  H   H3169     1.0  0.48159  0.59876  0.33928  1.0000
  H   H3170     1.0  0.51304  0.69646  0.31094  1.0000
  H   H3171     1.0  0.48823  0.70277  0.30258  1.0000
  H   H3172     1.0  0.49473  0.72044  0.31507  1.0000
  S   S397      1.0  0.47633  0.60972  0.41787  1.0000
  N   N100      1.0  0.53614  0.94059  0.06652  1.0000
  C   C1792     1.0  0.55911  0.93743  0.05645  1.0000
  C   C1793     1.0  0.53303  0.92835  0.08893  1.0000
  C   C1794     1.0  0.52554  0.93146  0.05455  1.0000
  C   C1795     1.0  0.52615  0.96362  0.06515  1.0000
  C   C1796     1.0  0.53617  0.97690  0.07419  1.0000
  C   C1797     1.0  0.56463  0.94841  0.03304  1.0000
  C   C1798     1.0  0.50214  0.93004  0.06391  1.0000
  C   C1799     1.0  0.54825  0.92852  0.10266  1.0000
  C   C1800     1.0  0.54326  0.91448  0.12435  1.0000
  C   C1801     1.0  0.42083  0.54600  0.31498  1.0000
  H   H3173     1.0  0.51048  0.54112  0.48735  1.0000
  C   C1802     1.0  0.49875  0.90848  0.07716  1.0000
  H   H3174     1.0  0.56583  0.92033  0.05757  1.0000
  H   H3175     1.0  0.56823  0.94271  0.06499  1.0000
  H   H3176     1.0  0.51688  0.93365  0.09760  1.0000
  H   H3177     1.0  0.53487  0.91134  0.08893  1.0000
  H   H3178     1.0  0.53449  0.91551  0.05219  1.0000
  H   H3179     1.0  0.52570  0.94116  0.03842  1.0000
  H   H3180     1.0  0.52506  0.97142  0.04863  1.0000
  H   H3181     1.0  0.50961  0.96559  0.07366  1.0000
  H   H3182     1.0  0.55333  0.97225  0.07211  1.0000
  H   H3183     1.0  0.52953  0.97520  0.09122  1.0000
  H   H3184     1.0  0.55890  0.94125  0.02293  1.0000
  H   H3185     1.0  0.55779  0.96550  0.03068  1.0000
  H   H3186     1.0  0.49408  0.93317  0.05058  1.0000
  H   H3187     1.0  0.49373  0.94212  0.07319  1.0000
  H   H3188     1.0  0.56450  0.92194  0.09569  1.0000
  H   H3189     1.0  0.54753  0.94451  0.10477  1.0000
  H   H3190     1.0  0.55478  0.91413  0.13373  1.0000
  H   H3191     1.0  0.52729  0.92043  0.13275  1.0000
  H   H3192     1.0  0.54421  0.89811  0.12297  1.0000
  C   C1803     1.0  0.58827  0.94608  0.02541  1.0000
  H   H3193     1.0  0.41674  0.55692  0.28171  1.0000
  H   H3194     1.0  0.45438  0.84921  0.16512  1.0000
  H   H3195     1.0  0.41949  0.77291  0.00536  1.0000
  H   H3196     1.0  0.44548  0.52795  0.17220  1.0000
  H   H3197     1.0  0.41048  0.67011  0.00278  1.0000
  H   H3198     1.0  0.48197  0.90785  0.07981  1.0000
  H   H3199     1.0  0.50829  0.89563  0.06909  1.0000
  H   H3200     1.0  0.50249  0.90576  0.09289  1.0000
  H   H3201     1.0  0.50201  0.64718  0.10242  1.0000
  C   C1804     1.0  0.40787  0.69623  0.13338  1.0000
  H   H3202     1.0  0.57090  0.74282  0.10582  1.0000
  S   S398      1.0  0.51099  0.76942  0.08855  1.0000
  H   H3203     1.0  0.41253  0.61209  0.07107  1.0000
  C   C1805     1.0  0.39672  0.60521  0.31356  1.0000
  H   H3204     1.0  0.48283  0.94346  0.01689  1.0000
  H   H3205     1.0  0.50933  0.68756  0.99976  1.0000
  H   H3206     1.0  0.58847  0.66111  0.46470  1.0000
  H   H3207     1.0  0.47505  0.71151  0.14628  1.0000
  Fe  Fe192     1.0  0.40596  0.55561  0.13830  1.0000
  C   C1806     1.0  0.52958  0.54403  0.37516  1.0000
  H   H3208     1.0  0.44322  0.59662  0.15858  1.0000
  C   C1807     1.0  0.51060  0.58681  0.21410  1.0000
  H   H3209     1.0  0.54988  0.55706  0.23293  1.0000
  C   C1808     1.0  0.50477  0.56358  0.40224  1.0000
  H   H3210     1.0  0.40874  0.71978  0.14958  1.0000
  H   H3211     1.0  0.55336  0.58859  0.46077  1.0000
  H   H3212     1.0  0.53325  0.55958  0.36631  1.0000
  H   H3213     1.0  0.50659  0.57640  0.25649  1.0000
  H   H3214     1.0  0.48075  0.56133  0.22053  1.0000
  H   H3215     1.0  0.49535  0.55498  0.37806  1.0000
  H   H3216     1.0  0.54024  0.58306  0.23841  1.0000
  C   C1809     1.0  0.51621  0.56390  0.24787  1.0000
  H   H3217     1.0  0.43639  0.75648  0.09244  1.0000
  H   H3218     1.0  0.50743  0.57914  0.39256  1.0000
  C   C1810     1.0  0.42496  0.52784  0.48777  1.0000
  H   H3219     1.0  0.51613  0.55766  0.41280  1.0000
  H   H3220     1.0  0.53824  0.53683  0.31412  1.0000
  H   H3221     1.0  0.54187  0.69623  0.05101  1.0000
  H   H3222     1.0  0.40301  0.91599  0.16125  1.0000
  S   S399      1.0  0.58428  0.55495  0.29696  1.0000
  H   H3223     1.0  0.48489  0.54772  0.24564  1.0000
  S   S400      1.0  0.47667  0.98169  0.04525  1.0000
  H   H3224     1.0  0.51357  0.77877  0.04319  1.0000
  H   H3225     1.0  0.50221  0.55657  0.31002  1.0000
  Fe  Fe193     1.0  0.42893  0.97461  0.11717  1.0000
  H   H3226     1.0  0.51295  0.50454  0.48620  1.0000
  C   C1811     1.0  0.52120  0.54870  0.21623  1.0000
  C   C1812     1.0  0.50318  0.56763  0.46295  1.0000
  Fe  Fe194     1.0  0.57487  0.80223  0.05315  1.0000
  C   C1813     1.0  0.56205  0.86381  0.09975  1.0000
  H   H3227     1.0  0.51397  0.54883  0.25904  1.0000
  C   C1814     1.0  0.57970  0.86047  0.12826  1.0000
  H   H3228     1.0  0.50983  0.72821  0.18700  1.0000
  H   H3229     1.0  0.52737  0.58740  0.20737  1.0000
  H   H3230     1.0  0.49664  0.68946  0.14533  1.0000
  C   C1815     1.0  0.50194  0.68120  0.09103  1.0000
  C   C1816     1.0  0.49913  0.59327  0.19542  1.0000
  C   C1817     1.0  0.54728  0.55867  0.26486  1.0000
  N   N101      1.0  0.41439  0.59489  0.04702  1.0000
  C   C1818     1.0  0.46144  0.50902  0.21879  1.0000
  H   H3231     1.0  0.41876  0.56543  0.06944  1.0000
  H   H3232     1.0  0.48204  0.59432  0.20100  1.0000
  C   C1819     1.0  0.57301  0.52019  0.36211  1.0000
  H   H3233     1.0  0.54938  0.54130  0.26985  1.0000
  C   C1820     1.0  0.49765  0.74058  0.14831  1.0000
  H   H3234     1.0  0.54118  0.69378  0.09158  1.0000
  C   C1821     1.0  0.44312  0.59103  0.17566  1.0000
  Fe  Fe195     1.0  0.54326  0.83462  0.07464  1.0000
  H   H3235     1.0  0.50796  0.75848  0.22691  1.0000
  H   H3236     1.0  0.43037  0.64445  0.14546  1.0000
  H   H3237     1.0  0.51907  0.61487  0.17564  1.0000
  S   S401      1.0  0.40192  0.49846  0.14028  1.0000
  C   C1822     1.0  0.50919  0.75778  0.19446  1.0000
  H   H3238     1.0  0.49702  0.80682  0.00749  1.0000
  H   H3239     1.0  0.43483  0.55380  0.03665  1.0000
  Fe  Fe196     1.0  0.58648  0.57576  0.31730  1.0000
  H   H3240     1.0  0.56668  0.69545  0.45469  1.0000
  H   H3241     1.0  0.48980  0.69597  0.09001  1.0000
  Fe  Fe197     1.0  0.53806  0.82709  0.03331  1.0000
  H   H3242     1.0  0.55083  0.61166  0.29417  1.0000
  C   C1823     1.0  0.52750  0.69936  0.06325  1.0000
  C   C1824     1.0  0.52534  0.52602  0.22953  1.0000
  H   H3243     1.0  0.39907  0.60304  0.26314  1.0000
  Fe  Fe198     1.0  0.40871  0.69937  0.04082  1.0000
  S   S402      1.0  0.43110  0.53443  0.12006  1.0000
  C   C1825     1.0  0.49228  0.70689  0.14147  1.0000
  H   H3244     1.0  0.56461  0.73773  0.48006  1.0000
  H   H3245     1.0  0.42699  0.85141  0.17481  1.0000
  H   H3246     1.0  0.50295  0.53330  0.39862  1.0000
  H   H3247     1.0  0.59038  0.81500  0.01375  1.0000
  H   H3248     1.0  0.43738  0.58082  0.06655  1.0000
  C   C1826     1.0  0.53920  0.56621  0.24440  1.0000
  H   H3249     1.0  0.40485  0.55879  0.35074  1.0000
  H   H3250     1.0  0.52614  0.66586  0.38463  1.0000
  H   H3251     1.0  0.42944  0.87508  0.14401  1.0000
  H   H3252     1.0  0.49690  0.71234  0.12426  1.0000
  H   H3253     1.0  0.43645  0.58317  0.28927  1.0000
  H   H3254     1.0  0.46060  0.83718  0.20176  1.0000
  Fe  Fe199     1.0  0.44446  0.54816  0.42244  1.0000
  H   H3255     1.0  0.46424  0.62068  0.00651  1.0000
  H   H3256     1.0  0.51735  0.71357  0.05554  1.0000
  H   H3257     1.0  0.41993  0.63922  0.33025  1.0000
  C   C1827     1.0  0.49098  0.62537  0.47459  1.0000
  H   H3258     1.0  0.50506  0.58170  0.18498  1.0000
  C   C1828     1.0  0.50967  0.54398  0.47055  1.0000
  H   H3259     1.0  0.49646  0.76676  0.02111  1.0000
  C   C1829     1.0  0.57121  0.68424  0.44388  1.0000
  H   H3260     1.0  0.54074  0.54655  0.45288  1.0000
  C   C1830     1.0  0.41904  0.56504  0.34196  1.0000
  C   C1831     1.0  0.52665  0.49883  0.47434  1.0000
  C   C1832     1.0  0.44808  0.58075  0.24290  1.0000
  C   C1833     1.0  0.51810  0.98790  0.12786  1.0000
  S   S403      1.0  0.46124  0.51624  0.41510  1.0000
  H   H3261     1.0  0.44468  0.56008  0.35837  1.0000
  H   H3262     1.0  0.52634  0.75675  0.19064  1.0000
  H   H3263     1.0  0.53641  0.56600  0.27765  1.0000
  C   C1834     1.0  0.50316  0.76789  0.05048  1.0000
  C   C1835     1.0  0.48619  0.56285  0.23433  1.0000
  H   H3264     1.0  0.39464  0.51048  0.25056  1.0000
  H   H3265     1.0  0.42934  0.80571  0.00115  1.0000
  H   H3266     1.0  0.46776  0.55149  0.06198  1.0000
  H   H3267     1.0  0.52223  0.69921  0.02532  1.0000
  H   H3268     1.0  0.53666  0.55243  0.20758  1.0000
  H   H3269     1.0  0.48047  0.74488  0.15387  1.0000
  H   H3270     1.0  0.43390  0.62945  0.04738  1.0000
  H   H3271     1.0  0.58132  0.85386  0.14436  1.0000
  N   N102      1.0  0.50857  0.56562  0.22816  1.0000
  C   C1836     1.0  0.47024  0.57997  0.24512  1.0000
  C   C1837     1.0  0.43830  0.55077  0.35082  1.0000
  C   C1838     1.0  0.55604  0.52849  0.34843  1.0000
  H   H3272     1.0  0.45802  0.81490  0.15598  1.0000
  H   H3273     1.0  0.50287  0.53509  0.35354  1.0000
  H   H3274     1.0  0.45367  0.57077  0.03002  1.0000
  H   H3275     1.0  0.42309  0.66419  0.33362  1.0000
  H   H3276     1.0  0.48056  0.66141  0.08997  1.0000
  Fe  Fe200     1.0  0.41215  0.58713  0.41006  1.0000
  H   H3277     1.0  0.45129  0.54517  0.33839  1.0000
  C   C1839     1.0  0.45494  0.63097  0.01762  1.0000
  H   H3278     1.0  0.56800  0.62701  0.09981  1.0000
  H   H3279     1.0  0.46743  0.61432  0.30261  1.0000
  H   H3280     1.0  0.45576  0.58296  0.32628  1.0000
  C   C1840     1.0  0.42576  0.54388  0.29160  1.0000
  H   H3281     1.0  0.52036  0.71037  0.14832  1.0000
  H   H3282     1.0  0.40520  0.90533  0.18782  1.0000
  H   H3283     1.0  0.51331  0.54817  0.20373  1.0000
  H   H3284     1.0  0.45040  0.60143  0.18090  1.0000
  Fe  Fe201     1.0  0.47751  0.49369  0.26512  1.0000
  C   C1841     1.0  0.56498  0.74089  0.12308  1.0000
  C   C1842     1.0  0.54907  0.51468  0.48695  1.0000
  H   H3285     1.0  0.58581  0.64223  0.43895  1.0000
  H   H3286     1.0  0.49148  0.64264  0.38726  1.0000
  C   C1843     1.0  0.55795  0.63108  0.08800  1.0000
  C   C1844     1.0  0.53241  0.66027  0.06998  1.0000
  Fe  Fe202     1.0  0.41726  0.57225  0.45547  1.0000
  H   H3287     1.0  0.57373  0.50750  0.24731  1.0000
  S   S404      1.0  0.40960  0.55685  0.43310  1.0000
  C   C1845     1.0  0.42419  0.76209  0.08276  1.0000
  H   H3288     1.0  0.54691  0.62008  0.09280  1.0000
  H   H3289     1.0  0.58749  0.51538  0.45378  1.0000
  C   C1846     1.0  0.55621  0.53512  0.48652  1.0000
  H   H3290     1.0  0.43158  0.87733  0.19717  1.0000
  H   H3291     1.0  0.49591  0.62708  0.19220  1.0000
  S   S405      1.0  0.40533  0.52394  0.07951  1.0000
  C   C1847     1.0  0.51863  0.64932  0.36419  1.0000
  C   C1848     1.0  0.46608  0.61798  0.45791  1.0000
  H   H3292     1.0  0.41357  0.91605  0.01203  1.0000
  N   N103      1.0  0.42033  0.56749  0.31876  1.0000
  H   H3293     1.0  0.58642  0.50476  0.22066  1.0000
  H   H3294     1.0  0.41469  0.62379  0.19007  1.0000
  H   H3295     1.0  0.48561  0.75109  0.22285  1.0000
  H   H3296     1.0  0.39835  0.87138  0.18669  1.0000
  S   S406      1.0  0.40515  0.58892  0.13923  1.0000
  C   C1849     1.0  0.53586  0.51000  0.21552  1.0000
  Fe  Fe203     1.0  0.46302  0.98340  0.07921  1.0000
  C   C1850     1.0  0.39630  0.81573  0.00293  1.0000
  H   H3297     1.0  0.39448  0.94696  0.02784  1.0000
  C   C1851     1.0  0.41945  0.91675  0.09186  1.0000
  H   H3298     1.0  0.49367  0.61927  0.16926  1.0000
  H   H3299     1.0  0.54371  0.66078  0.05471  1.0000
  C   C1852     1.0  0.50169  0.61848  0.43923  1.0000
  H   H3300     1.0  0.43217  0.94363  0.00633  1.0000
  H   H3301     1.0  0.56267  0.56303  0.26237  1.0000
  H   H3302     1.0  0.44399  0.56495  0.24868  1.0000
  H   H3303     1.0  0.46963  0.78039  0.14797  1.0000
  H   H3304     1.0  0.40263  0.88107  0.02709  1.0000
  C   C1853     1.0  0.44367  0.56174  0.04307  1.0000
  C   C1854     1.0  0.47079  0.93255  0.99475  1.0000
  H   H3305     1.0  0.44437  0.64423  0.00943  1.0000
  C   C1855     1.0  0.50052  0.68651  0.01624  1.0000
  H   H3306     1.0  0.52758  0.53358  0.44222  1.0000
  C   C1856     1.0  0.52445  0.53070  0.32447  1.0000
  H   H3307     1.0  0.47606  0.59205  0.29003  1.0000
  H   H3308     1.0  0.41448  0.57996  0.18268  1.0000
  H   H3309     1.0  0.43914  0.90972  0.19671  1.0000
  H   H3310     1.0  0.53652  0.65501  0.10280  1.0000
  C   C1857     1.0  0.50287  0.74940  0.21806  1.0000
  H   H3311     1.0  0.57200  0.75101  0.12898  1.0000
  C   C1858     1.0  0.50699  0.54810  0.38827  1.0000
  Fe  Fe204     1.0  0.53109  0.79384  0.07278  1.0000
  H   H3312     1.0  0.52019  0.49857  0.46069  1.0000
  H   H3313     1.0  0.45355  0.60577  0.04469  1.0000
  C   C1859     1.0  0.49063  0.66231  0.10025  1.0000
  H   H3314     1.0  0.48882  0.56564  0.41207  1.0000
  S   S407      1.0  0.41648  0.60379  0.43352  1.0000
  H   H3315     1.0  0.51302  0.50801  0.37879  1.0000
  C   C1860     1.0  0.44234  0.61842  0.03676  1.0000
  S   S408      1.0  0.56340  0.83693  0.04249  1.0000
  S   S409      1.0  0.55142  0.79246  0.04107  1.0000
  H   H3316     1.0  0.54007  0.53814  0.38667  1.0000
  C   C1861     1.0  0.48158  0.61572  0.43989  1.0000
  H   H3317     1.0  0.51424  0.57598  0.46567  1.0000
  H   H3318     1.0  0.45047  0.61607  0.45850  1.0000
  S   S410      1.0  0.55590  0.80031  0.08604  1.0000
  H   H3319     1.0  0.54771  0.64726  0.37352  1.0000
  C   C1862     1.0  0.50333  0.71618  0.15313  1.0000
  C   C1863     1.0  0.58521  0.57825  0.44553  1.0000
  C   C1864     1.0  0.41530  0.65660  0.32569  1.0000
  S   S411      1.0  0.44660  0.57765  0.39769  1.0000
  C   C1865     1.0  0.44710  0.59152  0.31363  1.0000
  H   H3320     1.0  0.39897  0.58114  0.29723  1.0000
  Fe  Fe205     1.0  0.45079  0.59158  0.42320  1.0000
  H   H3321     1.0  0.56345  0.71456  0.06279  1.0000
  H   H3322     1.0  0.54120  0.73591  0.05974  1.0000
  C   C1866     1.0  0.42833  0.57597  0.05751  1.0000
  H   H3323     1.0  0.43592  0.60123  0.01709  1.0000
  C   C1867     1.0  0.42971  0.50056  0.44487  1.0000
  H   H3324     1.0  0.57138  0.53478  0.43751  1.0000
  C   C1868     1.0  0.55995  0.50494  0.45168  1.0000
  H   H3325     1.0  0.48285  0.81533  0.13793  1.0000
  H   H3326     1.0  0.40306  0.64163  0.98991  1.0000
  H   H3327     1.0  0.51008  0.68175  0.10321  1.0000
  S   S412      1.0  0.39513  0.71369  0.11417  1.0000
  H   H3328     1.0  0.45712  0.65244  0.40107  1.0000
  C   C1869     1.0  0.47886  0.78444  0.15741  1.0000
  C   C1870     1.0  0.47509  0.80840  0.15396  1.0000
  H   H3329     1.0  0.50590  0.77916  0.13320  1.0000
  S   S413      1.0  0.54579  0.64943  0.30978  1.0000
  H   H3330     1.0  0.56522  0.81374  0.00036  1.0000
  H   H3331     1.0  0.46464  0.67902  0.12062  1.0000
  H   H3332     1.0  0.43843  0.93597  0.03172  1.0000
  C   C1871     1.0  0.43935  0.57574  0.30535  1.0000
  H   H3333     1.0  0.43278  0.53367  0.32228  1.0000
  H   H3334     1.0  0.51064  0.52136  0.23914  1.0000
  H   H3335     1.0  0.50140  0.77460  0.19127  1.0000
  S   S414      1.0  0.48137  0.50821  0.29008  1.0000
  C   C1872     1.0  0.42593  0.66203  0.39560  1.0000
  H   H3336     1.0  0.49102  0.66969  0.37797  1.0000
  H   H3337     1.0  0.57425  0.53303  0.36919  1.0000
  N   N104      1.0  0.43197  0.89395  0.16495  1.0000
  H   H3338     1.0  0.47253  0.77861  0.17421  1.0000
  C   C1873     1.0  0.50240  0.77488  0.15067  1.0000
  H   H3339     1.0  0.48128  0.81301  0.16560  1.0000
  H   H3340     1.0  0.41692  0.66161  0.38407  1.0000
  H   H3341     1.0  0.52352  0.63320  0.36098  1.0000
  H   H3342     1.0  0.48567  0.74574  0.18676  1.0000
  H   H3343     1.0  0.44646  0.82079  0.19549  1.0000
  H   H3344     1.0  0.53590  0.52478  0.24026  1.0000
  H   H3345     1.0  0.53787  0.72863  0.15937  1.0000
  Fe  Fe206     1.0  0.56708  0.62026  0.32327  1.0000
  H   H3346     1.0  0.49323  0.67244  0.02080  1.0000
  C   C1874     1.0  0.44060  0.87578  0.18108  1.0000
  C   C1875     1.0  0.45101  0.51661  0.18522  1.0000
  N   N105      1.0  0.50874  0.75141  0.15803  1.0000
  H   H3347     1.0  0.51190  0.78337  0.15570  1.0000
  H   H3348     1.0  0.49841  0.70988  0.17018  1.0000
  H   H3349     1.0  0.52775  0.63783  0.39460  1.0000
  Fe  Fe207     1.0  0.39966  0.80831  0.13501  1.0000
  C   C1876     1.0  0.54818  0.72243  0.07104  1.0000
  C   C1877     1.0  0.40206  0.86422  0.03344  1.0000
  H   H3350     1.0  0.53504  0.73726  0.12084  1.0000
  C   C1878     1.0  0.53069  0.65017  0.38030  1.0000
  H   H3351     1.0  0.56937  0.50681  0.37502  1.0000
  H   H3352     1.0  0.42066  0.66135  0.30842  1.0000
  C   C1879     1.0  0.42320  0.60166  0.11979  1.0000
  H   H3353     1.0  0.48592  0.66359  0.13333  1.0000
  C   C1880     1.0  0.53219  0.74514  0.15160  1.0000
  H   H3354     1.0  0.46838  0.65072  0.12749  1.0000
  C   C1881     1.0  0.56476  0.85505  0.12036  1.0000
  C   C1882     1.0  0.45817  0.54449  0.05542  1.0000
  H   H3355     1.0  0.43177  0.98906  0.04927  1.0000
  C   C1883     1.0  0.50277  0.74503  0.18164  1.0000
  H   H3356     1.0  0.53996  0.75485  0.15725  1.0000
  C   C1884     1.0  0.45559  0.90271  0.99663  1.0000
  H   H3357     1.0  0.45098  0.94952  0.16588  1.0000
  H   H3358     1.0  0.45869  0.95977  0.01066  1.0000
  C   C1885     1.0  0.53078  0.53468  0.45735  1.0000
  H   H3359     1.0  0.55836  0.67559  0.44678  1.0000
  C   C1886     1.0  0.57473  0.87782  0.08700  1.0000
  H   H3360     1.0  0.57262  0.88474  0.07114  1.0000
  S   S415      1.0  0.46431  0.51832  0.23977  1.0000
  C   C1887     1.0  0.39917  0.58814  0.03804  1.0000
  H   H3361     1.0  0.44973  0.54014  0.20241  1.0000
  C   C1888     1.0  0.44560  0.83676  0.19805  1.0000
  H   H3362     1.0  0.58264  0.51433  0.40975  1.0000
  H   H3363     1.0  0.50275  0.57138  0.44597  1.0000
  H   H3364     1.0  0.42979  0.50966  0.29915  1.0000
  H   H3365     1.0  0.56864  0.53888  0.47275  1.0000
  C   C1889     1.0  0.41382  0.67500  0.13241  1.0000
  H   H3366     1.0  0.40574  0.60231  0.00447  1.0000
  H   H3367     1.0  0.40397  0.52365  0.29493  1.0000
  H   H3368     1.0  0.48655  0.89932  0.01976  1.0000
  H   H3369     1.0  0.59200  0.95316  0.00841  1.0000
  H   H3370     1.0  0.57000  0.72415  0.13051  1.0000
  C   C1890     1.0  0.42097  0.52345  0.28963  1.0000
  H   H3371     1.0  0.43264  0.83963  0.21164  1.0000
  C   C1891     1.0  0.58959  0.88346  0.09499  1.0000
  H   H3372     1.0  0.41634  0.58049  0.34641  1.0000
  H   H3373     1.0  0.53942  0.49410  0.22547  1.0000
  H   H3374     1.0  0.58485  0.63633  0.40379  1.0000
  H   H3375     1.0  0.39925  0.58086  0.25240  1.0000
  C   C1892     1.0  0.58985  0.57074  0.41093  1.0000
  H   H3376     1.0  0.58971  0.80953  0.09951  1.0000
  H   H3377     1.0  0.52590  0.68481  0.47762  1.0000
  H   H3378     1.0  0.39468  0.55952  0.01171  1.0000
  H   H3379     1.0  0.39612  0.83204  0.00396  1.0000
  C   C1893     1.0  0.40142  0.93951  0.11659  1.0000
  H   H3380     1.0  0.54297  0.54884  0.48614  1.0000
  H   H3381     1.0  0.39531  0.57287  0.04754  1.0000
  H   H3382     1.0  0.40894  0.53547  0.21903  1.0000
  C   C1894     1.0  0.58878  0.50205  0.23698  1.0000
  H   H3383     1.0  0.44346  0.49699  0.48562  1.0000
  C   C1895     1.0  0.39468  0.88541  0.17432  1.0000
  C   C1896     1.0  0.59161  0.51072  0.42245  1.0000
  H   H3384     1.0  0.39409  0.65761  0.36397  1.0000
  C   C1897     1.0  0.39474  0.66730  0.00633  1.0000
  H   H3385     1.0  0.45845  0.62574  0.48854  1.0000
  H   H3386     1.0  0.57669  0.71018  0.48610  1.0000
  H   H3387     1.0  0.39473  0.73064  0.29098  1.0000
  C   C1898     1.0  0.39475  0.70189  0.28199  1.0000
  S   S416      1.0  0.43982  0.99077  0.13673  1.0000
  H   H3388     1.0  0.57996  0.99189  0.15961  1.0000
  H   H3389     1.0  0.54376  0.70872  0.48737  1.0000
  H   H3390     1.0  0.59107  0.88794  0.01532  1.0000
  C   C1899     1.0  0.59144  0.66889  0.44790  1.0000
  Fe  Fe208     1.0  0.39313  0.85552  0.11849  1.0000
  Fe  Fe209     1.0  0.57254  0.59686  0.48925  1.0000
  Fe  Fe210     1.0  0.56654  0.63353  0.51055  1.0000
  S   S417      1.0  0.58381  0.60017  0.51653  1.0000
  S   S418      1.0  0.58474  0.65818  0.50905  1.0000
  H   H3391     1.0  0.49854  0.75359  0.52925  1.0000
  S   S419      1.0  0.54308  0.58677  0.50845  1.0000
  C   C1900     1.0  0.40951  0.84885  0.86950  1.0000
  Fe  Fe211     1.0  0.55317  0.59289  0.53526  1.0000
  S   S420      1.0  0.55315  0.56878  0.56518  1.0000
  C   C1901     1.0  0.57731  0.98079  0.74590  1.0000
  S   S421      1.0  0.53637  0.62664  0.53179  1.0000
  H   H3392     1.0  0.52269  0.96711  0.84028  1.0000
  H   H3393     1.0  0.41937  0.60415  0.49988  1.0000
  H   H3394     1.0  0.48431  0.81643  0.98541  1.0000
  C   C1902     1.0  0.45595  0.98357  0.92113  1.0000
  C   C1903     1.0  0.41809  0.51318  0.53120  1.0000
  H   H3395     1.0  0.48171  0.56150  0.51566  1.0000
  H   H3396     1.0  0.40347  0.78290  0.98656  1.0000
  H   H3397     1.0  0.55503  0.95864  0.85989  1.0000
  Fe  Fe212     1.0  0.41547  0.90923  0.95078  1.0000
  H   H3398     1.0  0.52599  0.74593  0.54630  1.0000
  C   C1904     1.0  0.45678  0.98385  0.72765  1.0000
  H   H3399     1.0  0.57435  0.71874  0.66152  1.0000
  S   S422      1.0  0.57687  0.69962  0.58611  1.0000
  C   C1905     1.0  0.50182  0.92855  0.91034  1.0000
  H   H3400     1.0  0.55108  0.98844  0.72983  1.0000
  H   H3401     1.0  0.44294  0.80069  0.94713  1.0000
  C   C1906     1.0  0.57236  0.70401  0.75342  1.0000
  H   H3402     1.0  0.40160  0.95348  0.68438  1.0000
  H   H3403     1.0  0.44981  0.74533  0.96288  1.0000
  Fe  Fe213     1.0  0.54597  0.79961  0.87427  1.0000
  S   S423      1.0  0.55036  0.82455  0.88873  1.0000
  S   S424      1.0  0.51289  0.79780  0.87560  1.0000
  H   H3404     1.0  0.55843  0.51008  0.66095  1.0000
  Fe  Fe214     1.0  0.57488  0.79895  0.90183  1.0000
  H   H3405     1.0  0.48676  0.92436  0.98843  1.0000
  S   S425      1.0  0.56884  0.77349  0.88946  1.0000
  S   S426      1.0  0.56912  0.80706  0.84420  1.0000
  H   H3406     1.0  0.55435  0.90414  0.88565  1.0000
  Fe  Fe215     1.0  0.43493  0.86426  0.94584  1.0000
  C   C1907     1.0  0.43383  0.50718  0.49606  1.0000
  S   S427      1.0  0.46103  0.83749  0.95335  1.0000
  H   H3407     1.0  0.40370  0.75109  0.98511  1.0000
  C   C1908     1.0  0.47099  0.87470  0.97475  1.0000
  S   S428      1.0  0.43887  0.89549  0.92495  1.0000
  Fe  Fe216     1.0  0.50475  0.93909  0.78600  1.0000
  S   S429      1.0  0.50509  0.94992  0.81494  1.0000
  S   S430      1.0  0.51313  0.90467  0.78558  1.0000
  H   H3408     1.0  0.49929  0.91977  0.89957  1.0000
  Fe  Fe217     1.0  0.47515  0.97159  0.80865  1.0000
  C   C1909     1.0  0.41747  0.74540  0.97350  1.0000
  S   S431      1.0  0.52312  0.96210  0.76352  1.0000
  S   S432      1.0  0.47310  0.95854  0.78186  1.0000
  H   H3409     1.0  0.55291  0.53350  0.60167  1.0000
  S   S433      1.0  0.41424  0.87805  0.97275  1.0000
  H   H3410     1.0  0.57991  0.89304  0.73585  1.0000
  H   H3411     1.0  0.54578  0.96640  0.88463  1.0000
  C   C1910     1.0  0.45605  0.60878  0.55447  1.0000
  S   S434      1.0  0.41724  0.93626  0.96402  1.0000
  H   H3412     1.0  0.46562  0.54833  0.53819  1.0000
  Fe  Fe218     1.0  0.57520  0.82995  0.85999  1.0000
  H   H3413     1.0  0.42038  0.79009  0.91452  1.0000
  H   H3414     1.0  0.58502  0.63110  0.63849  1.0000
  H   H3415     1.0  0.55167  0.53238  0.52027  1.0000
  H   H3416     1.0  0.58210  0.87828  0.89796  1.0000
  H   H3417     1.0  0.39844  0.54388  0.53295  1.0000
  S   S435      1.0  0.47234  0.53110  0.58189  1.0000
  H   H3418     1.0  0.47659  0.97427  0.97551  1.0000
  H   H3419     1.0  0.58732  0.86883  0.55539  1.0000
  C   C1911     1.0  0.51479  0.98311  0.93437  1.0000
  H   H3420     1.0  0.59120  0.68887  0.84200  1.0000
  H   H3421     1.0  0.57771  0.87051  0.93737  1.0000
  C   C1912     1.0  0.51738  0.97647  0.85272  1.0000
  H   H3422     1.0  0.40582  0.84203  0.85775  1.0000
  H   H3423     1.0  0.53034  0.55628  0.64015  1.0000
  H   H3424     1.0  0.43484  0.96738  0.72354  1.0000
  H   H3425     1.0  0.54136  0.86674  0.94536  1.0000
  C   C1913     1.0  0.50133  0.74984  0.51347  1.0000
  C   C1914     1.0  0.56699  0.95259  0.81627  1.0000
  H   H3426     1.0  0.55505  0.94519  0.81483  1.0000
  C   C1915     1.0  0.41744  0.92507  0.86816  1.0000
  C   C1916     1.0  0.42327  0.93653  0.87968  1.0000
  C   C1917     1.0  0.43272  0.95375  0.86925  1.0000
  C   C1918     1.0  0.43677  0.95921  0.84733  1.0000
  C   C1919     1.0  0.43083  0.94785  0.83577  1.0000
  C   C1920     1.0  0.42061  0.93116  0.84626  1.0000
  H   H3427     1.0  0.42028  0.93230  0.89663  1.0000
  H   H3428     1.0  0.43699  0.96279  0.87813  1.0000
  C   C1921     1.0  0.52516  0.74317  0.50493  1.0000
  C   C1922     1.0  0.54309  0.56210  0.62765  1.0000
  C   C1923     1.0  0.44106  0.98164  0.71850  1.0000
  H   H3429     1.0  0.43360  0.95230  0.81881  1.0000
  C   C1924     1.0  0.40854  0.53372  0.52272  1.0000
  C   C1925     1.0  0.53175  0.89288  0.80116  1.0000
  C   C1926     1.0  0.53294  0.87183  0.81144  1.0000
  C   C1927     1.0  0.54713  0.86258  0.82479  1.0000
  H   H3430     1.0  0.42373  0.81564  0.91599  1.0000
  H   H3431     1.0  0.48504  0.98499  0.84870  1.0000
  H   H3432     1.0  0.52256  0.86286  0.80949  1.0000
  H   H3433     1.0  0.54721  0.84671  0.83343  1.0000
  C   C1928     1.0  0.53283  0.82759  0.96600  1.0000
  C   C1929     1.0  0.54537  0.81645  0.95048  1.0000
  H   H3434     1.0  0.52961  0.98525  0.85160  1.0000
  H   H3435     1.0  0.53988  0.81728  0.93647  1.0000
  C   C1930     1.0  0.49769  0.80724  0.89793  1.0000
  C   C1931     1.0  0.47676  0.81734  0.89844  1.0000
  C   C1932     1.0  0.46555  0.82734  0.91509  1.0000
  C   C1933     1.0  0.47494  0.82622  0.93178  1.0000
  C   C1934     1.0  0.49548  0.81526  0.93174  1.0000
  C   C1935     1.0  0.50686  0.80581  0.91484  1.0000
  H   H3436     1.0  0.46937  0.81773  0.88585  1.0000
  H   H3437     1.0  0.44963  0.83570  0.91515  1.0000
  H   H3438     1.0  0.50275  0.81440  0.94462  1.0000
  H   H3439     1.0  0.52277  0.79740  0.91495  1.0000
  H   H3440     1.0  0.57027  0.90388  0.81837  1.0000
  H   H3441     1.0  0.50070  0.92386  0.94392  1.0000
  H   H3442     1.0  0.53495  0.92019  0.90885  1.0000
  H   H3443     1.0  0.43504  0.56993  0.51630  1.0000
  H   H3444     1.0  0.48979  0.94312  0.91027  1.0000
  H   H3445     1.0  0.39788  0.81066  0.91974  1.0000
  H   H3446     1.0  0.54502  0.85715  0.92159  1.0000
  C   C1936     1.0  0.43205  0.95439  0.94722  1.0000
  H   H3447     1.0  0.43907  0.94000  0.92035  1.0000
  N   N106      1.0  0.43659  0.77490  0.97323  1.0000
  S   S436      1.0  0.49617  0.63208  0.49630  1.0000
  H   H3448     1.0  0.47676  0.63087  0.53940  1.0000
  H   H3449     1.0  0.57091  0.50111  0.54412  1.0000
  C   C1937     1.0  0.43318  0.57534  0.55670  1.0000
  H   H3450     1.0  0.58549  0.96288  0.72184  1.0000
  H   H3451     1.0  0.39932  0.86464  0.87001  1.0000
  H   H3452     1.0  0.44262  0.62214  0.55282  1.0000
  H   H3453     1.0  0.54686  0.88392  0.92034  1.0000
  H   H3454     1.0  0.46437  0.54755  0.49294  1.0000
  S   S437      1.0  0.57934  0.86241  0.84297  1.0000
  H   H3455     1.0  0.56136  0.71937  0.75402  1.0000
  H   H3456     1.0  0.39620  0.98263  0.83570  1.0000
  S   S438      1.0  0.40719  0.90253  0.88080  1.0000
  C   C1938     1.0  0.46619  0.54002  0.50930  1.0000
  H   H3457     1.0  0.58391  0.98941  0.75388  1.0000
  H   H3458     1.0  0.58280  0.65057  0.61507  1.0000
  C   C1939     1.0  0.57088  0.49638  0.59970  1.0000
  C   C1940     1.0  0.49510  0.54108  0.57706  1.0000
  C   C1941     1.0  0.49348  0.56082  0.58146  1.0000
  C   C1942     1.0  0.51135  0.56932  0.57775  1.0000
  C   C1943     1.0  0.53090  0.55803  0.56975  1.0000
  C   C1944     1.0  0.53261  0.53823  0.56541  1.0000
  C   C1945     1.0  0.51467  0.52976  0.56897  1.0000
  H   H3459     1.0  0.47838  0.56950  0.58786  1.0000
  H   H3460     1.0  0.51002  0.58457  0.58120  1.0000
  H   H3461     1.0  0.54777  0.52954  0.55923  1.0000
  H   H3462     1.0  0.51596  0.51450  0.56554  1.0000
  C   C1946     1.0  0.58412  0.66657  0.53206  1.0000
  Fe  Fe219     1.0  0.52089  0.97472  0.79210  1.0000
  C   C1947     1.0  0.51276  0.96221  0.87484  1.0000
  C   C1948     1.0  0.58053  0.68603  0.56577  1.0000
  C   C1949     1.0  0.56564  0.67458  0.56605  1.0000
  C   C1950     1.0  0.56750  0.66471  0.54932  1.0000
  Fe  Fe220     1.0  0.49148  0.98264  0.76166  1.0000
  C   C1951     1.0  0.56599  0.97414  0.80828  1.0000
  H   H3463     1.0  0.55242  0.67364  0.57908  1.0000
  H   H3464     1.0  0.55563  0.65643  0.54937  1.0000
  H   H3465     1.0  0.58669  0.50274  0.65481  1.0000
  H   H3466     1.0  0.58153  0.85181  0.89830  1.0000
  C   C1952     1.0  0.54958  0.95259  0.87694  1.0000
  C   C1953     1.0  0.48610  0.96517  0.98738  1.0000
  H   H3467     1.0  0.50888  0.89984  0.93362  1.0000
  C   C1954     1.0  0.43737  0.75172  0.97532  1.0000
  C   C1955     1.0  0.58300  0.71484  0.71362  1.0000
  C   C1956     1.0  0.58375  0.62068  0.59631  1.0000
  H   H3468     1.0  0.44874  0.91228  0.98300  1.0000
  C   C1957     1.0  0.46649  0.55629  0.52149  1.0000
  C   C1958     1.0  0.48708  0.81026  0.83360  1.0000
  C   C1959     1.0  0.41168  0.54862  0.57942  1.0000
  H   H3469     1.0  0.54743  0.57494  0.63230  1.0000
  H   H3470     1.0  0.56020  0.76554  0.66383  1.0000
  H   H3471     1.0  0.57095  0.70605  0.71378  1.0000
  H   H3472     1.0  0.40588  0.71724  0.97581  1.0000
  N   N107      1.0  0.53616  0.72196  0.51535  1.0000
  C   C1960     1.0  0.52663  0.71564  0.53836  1.0000
  C   C1961     1.0  0.54012  0.82670  0.98407  1.0000
  H   H3473     1.0  0.49896  0.72910  0.57387  1.0000
  C   C1962     1.0  0.56908  0.93758  0.88433  1.0000
  H   H3474     1.0  0.42535  0.53883  0.58604  1.0000
  H   H3475     1.0  0.53221  0.75606  0.50620  1.0000
  H   H3476     1.0  0.57505  0.90550  0.75782  1.0000
  H   H3477     1.0  0.50589  0.71421  0.49498  1.0000
  C   C1963     1.0  0.53501  0.88824  0.87702  1.0000
  H   H3478     1.0  0.41560  0.50753  0.54805  1.0000
  C   C1964     1.0  0.51575  0.72439  0.57480  1.0000
  H   H3479     1.0  0.56926  0.62519  0.60786  1.0000
  H   H3480     1.0  0.53350  0.69894  0.54449  1.0000
  H   H3481     1.0  0.50971  0.71590  0.54082  1.0000
  H   H3482     1.0  0.48563  0.86442  0.96826  1.0000
  C   C1965     1.0  0.51484  0.70050  0.50439  1.0000
  H   H3483     1.0  0.42643  0.99019  0.76640  1.0000
  C   C1966     1.0  0.58458  0.89188  0.75089  1.0000
  C   C1967     1.0  0.39817  0.98977  0.90167  1.0000
  H   H3484     1.0  0.42454  0.58573  0.56797  1.0000
  H   H3485     1.0  0.59030  0.74673  0.49559  1.0000
  H   H3486     1.0  0.40597  0.83860  0.88522  1.0000
  H   H3487     1.0  0.58627  0.68253  0.65088  1.0000
  C   C1968     1.0  0.58357  0.94065  0.82605  1.0000
  C   C1969     1.0  0.58544  0.94994  0.88400  1.0000
  H   H3488     1.0  0.58000  0.81122  0.74179  1.0000
  S   S439      1.0  0.44874  0.98058  0.83458  1.0000
  H   H3489     1.0  0.48781  0.89637  0.97788  1.0000
  H   H3490     1.0  0.53729  0.56866  0.61275  1.0000
  C   C1970     1.0  0.52959  0.72881  0.55299  1.0000
  H   H3491     1.0  0.57218  0.68119  0.63199  1.0000
  C   C1971     1.0  0.56215  0.54431  0.62466  1.0000
  H   H3492     1.0  0.49566  0.78579  0.97210  1.0000
  H   H3493     1.0  0.45728  0.79358  0.97640  1.0000
  H   H3494     1.0  0.51877  0.73353  0.58503  1.0000
  S   S440      1.0  0.54515  0.98988  0.79687  1.0000
  H   H3495     1.0  0.58596  0.76978  0.82553  1.0000
  H   H3496     1.0  0.47305  0.62418  0.56756  1.0000
  H   H3497     1.0  0.54585  0.87292  0.88056  1.0000
  H   H3498     1.0  0.57655  0.92655  0.87348  1.0000
  H   H3499     1.0  0.40242  0.78480  0.95228  1.0000
  S   S441      1.0  0.40250  0.56736  0.48992  1.0000
  H   H3500     1.0  0.56206  0.50112  0.49029  1.0000
  H   H3501     1.0  0.40248  0.59255  0.52278  1.0000
  C   C1972     1.0  0.51754  0.68170  0.49427  1.0000
  H   H3502     1.0  0.49792  0.98243  0.93888  1.0000
  H   H3503     1.0  0.54433  0.92077  0.79568  1.0000
  C   C1973     1.0  0.55978  0.89500  0.81655  1.0000
  H   H3504     1.0  0.46347  0.94038  0.98083  1.0000
  H   H3505     1.0  0.52890  0.88831  0.86313  1.0000
  C   C1974     1.0  0.58064  0.87143  0.76616  1.0000
  H   H3506     1.0  0.57429  0.73124  0.71423  1.0000
  H   H3507     1.0  0.48024  0.80367  0.85012  1.0000
  H   H3508     1.0  0.54604  0.72462  0.55513  1.0000
  H   H3509     1.0  0.51744  0.92634  0.86545  1.0000
  C   C1975     1.0  0.56508  0.80437  0.95318  1.0000
  C   C1976     1.0  0.46020  0.59548  0.53742  1.0000
  S   S442      1.0  0.58186  0.79093  0.93405  1.0000
  H   H3510     1.0  0.58575  0.85419  0.74194  1.0000
  C   C1977     1.0  0.42018  0.72145  0.97755  1.0000
  C   C1978     1.0  0.57363  0.86032  0.92897  1.0000
  C   C1979     1.0  0.47575  0.88766  0.98802  1.0000
  C   C1980     1.0  0.44126  0.95254  0.92645  1.0000
  H   H3511     1.0  0.57686  0.51875  0.50826  1.0000
  C   C1981     1.0  0.59219  0.73215  0.67639  1.0000
  H   H3512     1.0  0.57836  0.69865  0.76826  1.0000
  H   H3513     1.0  0.56781  0.53873  0.63957  1.0000
  C   C1982     1.0  0.57982  0.60483  0.58561  1.0000
  H   H3514     1.0  0.57145  0.54690  0.50462  1.0000
  H   H3515     1.0  0.54459  0.49420  0.58746  1.0000
  H   H3516     1.0  0.58694  0.83764  0.80089  1.0000
  N   N108      1.0  0.46008  0.86868  0.83567  1.0000
  C   C1983     1.0  0.46281  0.88206  0.84940  1.0000
  C   C1984     1.0  0.43789  0.86514  0.84241  1.0000
  C   C1985     1.0  0.47574  0.84824  0.83826  1.0000
  C   C1986     1.0  0.46374  0.87930  0.81275  1.0000
  C   C1987     1.0  0.45086  0.90191  0.80734  1.0000
  C   C1988     1.0  0.48367  0.88988  0.84340  1.0000
  C   C1989     1.0  0.47422  0.83192  0.82618  1.0000
  C   C1990     1.0  0.43256  0.85038  0.86409  1.0000
  H   H3517     1.0  0.45303  0.53191  0.51720  1.0000
  C   C1991     1.0  0.45460  0.91047  0.78363  1.0000
  C   C1992     1.0  0.48330  0.90521  0.85694  1.0000
  H   H3518     1.0  0.46150  0.87336  0.86600  1.0000
  H   H3519     1.0  0.44993  0.89603  0.84983  1.0000
  H   H3520     1.0  0.42668  0.88039  0.84330  1.0000
  H   H3521     1.0  0.43364  0.85903  0.83045  1.0000
  H   H3522     1.0  0.47491  0.84089  0.85514  1.0000
  H   H3523     1.0  0.49194  0.85113  0.83268  1.0000
  H   H3524     1.0  0.48059  0.87975  0.80647  1.0000
  H   H3525     1.0  0.45996  0.86989  0.80325  1.0000
  H   H3526     1.0  0.45521  0.91283  0.81469  1.0000
  H   H3527     1.0  0.43391  0.90211  0.81277  1.0000
  H   H3528     1.0  0.49696  0.87649  0.84583  1.0000
  H   H3529     1.0  0.48661  0.89835  0.82686  1.0000
  H   H3530     1.0  0.48037  0.83700  0.80912  1.0000
  H   H3531     1.0  0.45796  0.82998  0.82828  1.0000
  H   H3532     1.0  0.44189  0.83419  0.86412  1.0000
  H   H3533     1.0  0.43559  0.85629  0.87682  1.0000
  C   C1993     1.0  0.39344  0.62592  0.51310  1.0000
  H   H3534     1.0  0.46267  0.97127  0.73962  1.0000
  H   H3535     1.0  0.56536  0.92849  0.90057  1.0000
  H   H3536     1.0  0.47134  0.91106  0.77719  1.0000
  H   H3537     1.0  0.44977  0.90050  0.77552  1.0000
  H   H3538     1.0  0.44527  0.92670  0.78029  1.0000
  H   H3539     1.0  0.49807  0.91115  0.85167  1.0000
  H   H3540     1.0  0.47016  0.91893  0.85513  1.0000
  H   H3541     1.0  0.48174  0.89727  0.87376  1.0000
  H   H3542     1.0  0.58642  0.63498  0.58427  1.0000
  H   H3543     1.0  0.48962  0.60556  0.55211  1.0000
  C   C1994     1.0  0.49640  0.76930  0.97138  1.0000
  H   H3544     1.0  0.44635  0.56543  0.56399  1.0000
  H   H3545     1.0  0.50347  0.81128  0.83264  1.0000
  H   H3546     1.0  0.56352  0.87221  0.76991  1.0000
  H   H3547     1.0  0.57098  0.66249  0.65683  1.0000
  H   H3548     1.0  0.45987  0.86457  0.98447  1.0000
  C   C1995     1.0  0.54683  0.90614  0.87238  1.0000
  C   C1996     1.0  0.43522  0.78692  0.95113  1.0000
  C   C1997     1.0  0.41297  0.79615  0.94626  1.0000
  H   H3549     1.0  0.52196  0.88941  0.89080  1.0000
  H   H3550     1.0  0.56394  0.69218  0.75233  1.0000
  H   H3551     1.0  0.55911  0.72893  0.68432  1.0000
  H   H3552     1.0  0.52369  0.94562  0.91328  1.0000
  C   C1998     1.0  0.41389  0.80355  0.92265  1.0000
  N   N109      1.0  0.57318  0.50636  0.61661  1.0000
  C   C1999     1.0  0.58121  0.67165  0.64409  1.0000
  H   H3553     1.0  0.58302  0.75705  0.79487  1.0000
  C   C2000     1.0  0.44670  0.98546  0.94187  1.0000
  H   H3554     1.0  0.58572  0.87089  0.78078  1.0000
  H   H3555     1.0  0.43368  0.71468  0.96621  1.0000
  C   C2001     1.0  0.42511  0.60765  0.52955  1.0000
  H   H3556     1.0  0.55992  0.90368  0.85880  1.0000
  H   H3557     1.0  0.49945  0.78281  0.49759  1.0000
  H   H3558     1.0  0.44432  0.77699  0.93955  1.0000
  C   C2002     1.0  0.58676  0.86180  0.90620  1.0000
  Fe  Fe221     1.0  0.47645  0.49924  0.57476  1.0000
  H   H3559     1.0  0.40153  0.53799  0.57914  1.0000
  H   H3560     1.0  0.57627  0.84396  0.93812  1.0000
  H   H3561     1.0  0.47818  0.77549  0.94753  1.0000
  H   H3562     1.0  0.57674  0.59031  0.59721  1.0000
  C   C2003     1.0  0.52369  0.93441  0.90358  1.0000
  H   H3563     1.0  0.46414  0.88507  0.96142  1.0000
  H   H3564     1.0  0.45360  0.58581  0.50306  1.0000
  H   H3565     1.0  0.57454  0.55125  0.61267  1.0000
  C   C2004     1.0  0.45668  0.77677  0.97812  1.0000
  H   H3566     1.0  0.53635  0.51281  0.50121  1.0000
  C   C2005     1.0  0.55865  0.72299  0.51382  1.0000
  H   H3567     1.0  0.56638  0.70866  0.52363  1.0000
  H   H3568     1.0  0.53984  0.93498  0.85035  1.0000
  C   C2006     1.0  0.56084  0.87403  0.82707  1.0000
  H   H3569     1.0  0.40466  0.56944  0.55113  1.0000
  Fe  Fe222     1.0  0.52891  0.62122  0.50281  1.0000
  C   C2007     1.0  0.54509  0.90453  0.80377  1.0000
  H   H3570     1.0  0.58730  0.79405  0.97356  1.0000
  C   C2008     1.0  0.55961  0.81440  0.98664  1.0000
  H   H3571     1.0  0.58790  0.69205  0.68343  1.0000
  C   C2009     1.0  0.45305  0.96723  0.91340  1.0000
  C   C2010     1.0  0.56773  0.82918  0.77598  1.0000
  H   H3572     1.0  0.40266  0.55977  0.58977  1.0000
  C   C2011     1.0  0.56317  0.80709  0.78731  1.0000
  H   H3573     1.0  0.51765  0.83694  0.96390  1.0000
  C   C2012     1.0  0.53967  0.80793  0.79452  1.0000
  H   H3574     1.0  0.56038  0.83454  0.76195  1.0000
  H   H3575     1.0  0.55884  0.84011  0.78667  1.0000
  H   H3576     1.0  0.57961  0.95993  0.89600  1.0000
  H   H3577     1.0  0.40543  0.81000  0.95360  1.0000
  H   H3578     1.0  0.47887  0.75023  0.96528  1.0000
  H   H3579     1.0  0.57018  0.80101  0.80142  1.0000
  H   H3580     1.0  0.56949  0.79560  0.77682  1.0000
  H   H3581     1.0  0.50101  0.95632  0.97954  1.0000
  H   H3582     1.0  0.46704  0.60467  0.52201  1.0000
  H   H3583     1.0  0.53188  0.81309  0.78083  1.0000
  H   H3584     1.0  0.53678  0.79205  0.80296  1.0000
  H   H3585     1.0  0.53276  0.81901  0.80543  1.0000
  C   C2013     1.0  0.53632  0.70490  0.50426  1.0000
  H   H3586     1.0  0.58937  0.96013  0.86829  1.0000
  C   C2014     1.0  0.41246  0.54122  0.50095  1.0000
  C   C2015     1.0  0.47734  0.76728  0.96423  1.0000
  C   C2016     1.0  0.56453  0.53309  0.50617  1.0000
  C   C2017     1.0  0.57170  0.73150  0.67024  1.0000
  H   H3587     1.0  0.39790  0.97694  0.80081  1.0000
  H   H3588     1.0  0.51940  0.70740  0.58210  1.0000
  N   N110      1.0  0.53011  0.94382  0.88055  1.0000
  C   C2018     1.0  0.55678  0.52638  0.61743  1.0000
  H   H3589     1.0  0.50198  0.67865  0.49467  1.0000
  H   H3590     1.0  0.48083  0.52798  0.50897  1.0000
  H   H3591     1.0  0.52645  0.66734  0.50294  1.0000
  C   C2019     1.0  0.59067  0.70634  0.73478  1.0000
  C   C2020     1.0  0.53291  0.92832  0.86673  1.0000
  H   H3592     1.0  0.47289  0.58183  0.54140  1.0000
  C   C2021     1.0  0.44837  0.57557  0.51847  1.0000
  H   H3593     1.0  0.42191  0.81652  0.97624  1.0000
  H   H3594     1.0  0.48187  0.91310  0.93729  1.0000
  C   C2022     1.0  0.43478  0.97091  0.95488  1.0000
  N   N111      1.0  0.44139  0.58821  0.53556  1.0000
  C   C2023     1.0  0.49825  0.91551  0.93268  1.0000
  H   H3595     1.0  0.54181  0.52277  0.62769  1.0000
  H   H3596     1.0  0.48713  0.79933  0.82362  1.0000
  C   C2024     1.0  0.56391  0.75208  0.65578  1.0000
  Fe  Fe223     1.0  0.41037  0.89355  0.91454  1.0000
  C   C2025     1.0  0.41883  0.56049  0.55709  1.0000
  C   C2026     1.0  0.58174  0.98360  0.80964  1.0000
  H   H3597     1.0  0.41446  0.75149  0.95738  1.0000
  C   C2027     1.0  0.47508  0.61782  0.55328  1.0000
  C   C2028     1.0  0.57205  0.80327  0.97137  1.0000
  C   C2029     1.0  0.41037  0.60603  0.51585  1.0000
  H   H3598     1.0  0.42730  0.54842  0.54765  1.0000
  S   S443      1.0  0.40885  0.86077  0.93297  1.0000
  H   H3599     1.0  0.49835  0.95657  0.87555  1.0000
  H   H3600     1.0  0.42756  0.97256  0.97086  1.0000
  H   H3601     1.0  0.55942  0.73636  0.52045  1.0000
  H   H3602     1.0  0.43276  0.62105  0.52039  1.0000
  H   H3603     1.0  0.58947  0.74759  0.68101  1.0000
  H   H3604     1.0  0.45994  0.96598  0.89727  1.0000
  H   H3605     1.0  0.58874  0.91561  0.78231  1.0000
  C   C2030     1.0  0.55030  0.86747  0.92895  1.0000
  H   H3606     1.0  0.51089  0.76416  0.96013  1.0000
  H   H3607     1.0  0.45261  0.59877  0.57036  1.0000
  H   H3608     1.0  0.41510  0.61326  0.54379  1.0000
  H   H3609     1.0  0.50827  0.97263  0.88650  1.0000
  H   H3610     1.0  0.57159  0.96739  0.75755  1.0000
  H   H3611     1.0  0.40487  0.97267  0.90539  1.0000
  H   H3612     1.0  0.54953  0.75105  0.65124  1.0000
  H   H3613     1.0  0.41547  0.92271  0.83744  1.0000
  H   H3614     1.0  0.50561  0.69683  0.52057  1.0000
  H   H3615     1.0  0.56598  0.61183  0.57823  1.0000
  C   C2031     1.0  0.43082  0.49998  0.51776  1.0000
  H   H3616     1.0  0.57593  0.75508  0.64124  1.0000
  H   H3617     1.0  0.54602  0.68981  0.51105  1.0000
  H   H3618     1.0  0.58442  0.92401  0.83237  1.0000
  H   H3619     1.0  0.49267  0.73737  0.51503  1.0000
  H   H3620     1.0  0.52074  0.97995  0.91826  1.0000
  C   C2032     1.0  0.57191  0.49736  0.65692  1.0000
  H   H3621     1.0  0.40058  0.63993  0.50549  1.0000
  H   H3622     1.0  0.57253  0.50754  0.58424  1.0000
  H   H3623     1.0  0.52322  0.97083  0.94555  1.0000
  H   H3624     1.0  0.49729  0.75921  0.98716  1.0000
  Fe  Fe224     1.0  0.59262  0.78370  0.86099  1.0000
  N   N112      1.0  0.59045  0.83085  0.77005  1.0000
  C   C2033     1.0  0.59224  0.85211  0.75615  1.0000
  H   H3625     1.0  0.53695  0.49713  0.61391  1.0000
  C   C2034     1.0  0.49169  0.76954  0.49912  1.0000
  H   H3626     1.0  0.47481  0.77429  0.50588  1.0000
  H   H3627     1.0  0.59149  0.72770  0.92520  1.0000
  H   H3628     1.0  0.58983  0.53641  0.58445  1.0000
  C   C2035     1.0  0.57264  0.72536  0.49147  1.0000
  S   S444      1.0  0.77607  0.24252  0.07876  1.0000
  C   C2036     1.0  0.61863  0.01172  0.13738  1.0000
  C   C2037     1.0  0.72340  0.47175  0.33560  1.0000
  Fe  Fe225     1.0  0.69268  0.33476  0.14983  1.0000
  S   S445      1.0  0.69714  0.30114  0.16719  1.0000
  S   S446      1.0  0.70271  0.34093  0.11462  1.0000
  Fe  Fe226     1.0  0.67184  0.35206  0.18963  1.0000
  S   S447      1.0  0.67406  0.31972  0.21003  1.0000
  S   S448      1.0  0.65863  0.38237  0.20173  1.0000
  Fe  Fe227     1.0  0.70664  0.31326  0.19091  1.0000
  S   S449      1.0  0.73434  0.29781  0.20642  1.0000
  Fe  Fe228     1.0  0.66420  0.31079  0.18426  1.0000
  S   S450      1.0  0.64057  0.28998  0.19070  1.0000
  S   S451      1.0  0.70495  0.34624  0.17203  1.0000
  S   S452      1.0  0.65910  0.34376  0.16549  1.0000
  S   S453      1.0  0.66594  0.41878  0.32896  1.0000
  H   H3629     1.0  0.66951  0.18939  0.37921  1.0000
  C   C2038     1.0  0.60481  0.25263  0.30552  1.0000
  C   C2039     1.0  0.64540  0.24613  0.31207  1.0000
  C   C2040     1.0  0.66466  0.18829  0.33888  1.0000
  C   C2041     1.0  0.73781  0.10663  0.04633  1.0000
  H   H3630     1.0  0.61278  0.47415  0.23488  1.0000
  S   S454      1.0  0.69615  0.36946  0.44767  1.0000
  S   S455      1.0  0.72542  0.38677  0.46849  1.0000
  Fe  Fe229     1.0  0.69121  0.39086  0.46966  1.0000
  C   C2042     1.0  0.63309  0.40597  0.40503  1.0000
  Fe  Fe230     1.0  0.77416  0.10246  0.32889  1.0000
  S   S456      1.0  0.77346  0.11586  0.29489  1.0000
  S   S457      1.0  0.74751  0.10760  0.35595  1.0000
  H   H3631     1.0  0.61649  0.37227  0.47375  1.0000
  H   H3632     1.0  0.61246  0.08550  0.00226  1.0000
  C   C2043     1.0  0.68109  0.24708  0.44731  1.0000
  H   H3633     1.0  0.66704  0.40185  0.39164  1.0000
  C   C2044     1.0  0.66032  0.17829  0.37784  1.0000
  H   H3634     1.0  0.59801  0.10891  0.24173  1.0000
  H   H3635     1.0  0.69608  0.99828  0.00889  1.0000
  H   H3636     1.0  0.75347  0.30244  0.02025  1.0000
  S   S458      1.0  0.74543  0.28544  0.32330  1.0000
  S   S459      1.0  0.73902  0.29154  0.37876  1.0000
  H   H3637     1.0  0.62464  0.25543  0.18688  1.0000
  H   H3638     1.0  0.69462  0.20709  0.43807  1.0000
  H   H3639     1.0  0.71996  0.18701  0.01526  1.0000
  C   C2045     1.0  0.74902  0.03093  0.28365  1.0000
  C   C2046     1.0  0.69177  0.44771  0.18135  1.0000
  Fe  Fe231     1.0  0.68676  0.03993  0.20850  1.0000
  S   S460      1.0  0.65412  0.05864  0.20938  1.0000
  S   S461      1.0  0.71517  0.04865  0.21269  1.0000
  C   C2047     1.0  0.64504  0.00350  0.19899  1.0000
  Fe  Fe232     1.0  0.72993  0.36269  0.44907  1.0000
  N   N113      1.0  0.62951  0.38731  0.39873  1.0000
  C   C2048     1.0  0.60108  0.27721  0.24402  1.0000
  S   S462      1.0  0.66483  0.20515  0.11100  1.0000
  Fe  Fe233     1.0  0.66130  0.19530  0.08285  1.0000
  S   S463      1.0  0.69036  0.18842  0.05866  1.0000
  Fe  Fe234     1.0  0.66018  0.15398  0.29412  1.0000
  S   S464      1.0  0.66175  0.13456  0.32631  1.0000
  S   S465      1.0  0.66961  0.14011  0.26535  1.0000
  H   H3640     1.0  0.72912  0.27763  0.47414  1.0000
  H   H3641     1.0  0.76715  0.41137  0.46631  1.0000
  C   C2049     1.0  0.77676  0.16080  0.07160  1.0000
  C   C2050     1.0  0.76040  0.39810  0.16954  1.0000
  C   C2051     1.0  0.73206  0.40075  0.13906  1.0000
  Fe  Fe235     1.0  0.63981  0.44567  0.32140  1.0000
  C   C2052     1.0  0.62124  0.27184  0.48698  1.0000
  H   H3642     1.0  0.65557  0.26987  0.42364  1.0000
  C   C2053     1.0  0.64476  0.07929  0.22311  1.0000
  C   C2054     1.0  0.65812  0.08931  0.22829  1.0000
  C   C2055     1.0  0.64968  0.10679  0.23802  1.0000
  H   H3643     1.0  0.61136  0.41286  0.30398  1.0000
  H   H3644     1.0  0.63610  0.01947  0.20097  1.0000
  C   C2056     1.0  0.62314  0.08639  0.22811  1.0000
  H   H3645     1.0  0.67486  0.08395  0.22433  1.0000
  H   H3646     1.0  0.65997  0.11486  0.24146  1.0000
  C   C2057     1.0  0.61063  0.19047  0.19307  1.0000
  C   C2058     1.0  0.77125  0.05593  0.26455  1.0000
  C   C2059     1.0  0.76788  0.05335  0.24576  1.0000
  C   C2060     1.0  0.75475  0.04020  0.24574  1.0000
  C   C2061     1.0  0.77065  0.42969  0.34075  1.0000
  H   H3647     1.0  0.75245  0.03840  0.23099  1.0000
  H   H3648     1.0  0.76383  0.40816  0.15367  1.0000
  H   H3649     1.0  0.69632  0.99437  0.15924  1.0000
  C   C2062     1.0  0.73302  0.48740  0.33736  1.0000
  H   H3650     1.0  0.62190  0.24301  0.15577  1.0000
  H   H3651     1.0  0.78115  0.43140  0.35026  1.0000
  H   H3652     1.0  0.68890  0.20881  0.30276  1.0000
  C   C2063     1.0  0.73041  0.38881  0.16225  1.0000
  C   C2064     1.0  0.67484  0.15631  0.37746  1.0000
  H   H3653     1.0  0.59544  0.23563  0.39404  1.0000
  C   C2065     1.0  0.76650  0.43842  0.43926  1.0000
  C   C2066     1.0  0.72385  0.11560  0.34735  1.0000
  C   C2067     1.0  0.70622  0.10847  0.36026  1.0000
  C   C2068     1.0  0.68731  0.11411  0.35338  1.0000
  C   C2069     1.0  0.68590  0.12721  0.33375  1.0000
  C   C2070     1.0  0.70341  0.13463  0.32085  1.0000
  C   C2071     1.0  0.72242  0.12885  0.32773  1.0000
  H   H3654     1.0  0.70731  0.09823  0.37541  1.0000
  H   H3655     1.0  0.67373  0.10838  0.36334  1.0000
  H   H3656     1.0  0.70228  0.14486  0.30570  1.0000
  H   H3657     1.0  0.73584  0.13494  0.31806  1.0000
  C   C2072     1.0  0.69765  0.19898  0.31496  1.0000
  Fe  Fe236     1.0  0.76135  0.28426  0.34912  1.0000
  H   H3658     1.0  0.61278  0.07870  0.22413  1.0000
  C   C2073     1.0  0.72590  0.42104  0.17631  1.0000
  H   H3659     1.0  0.61486  0.15099  0.34408  1.0000
  H   H3660     1.0  0.76598  0.42334  0.18159  1.0000
  C   C2074     1.0  0.74527  0.02891  0.26467  1.0000
  C   C2075     1.0  0.73334  0.33146  0.41668  1.0000
  C   C2076     1.0  0.72974  0.31676  0.40716  1.0000
  C   C2077     1.0  0.74433  0.31002  0.39013  1.0000
  Fe  Fe237     1.0  0.68403  0.44361  0.32601  1.0000
  H   H3661     1.0  0.72205  0.33624  0.42997  1.0000
  H   H3662     1.0  0.71555  0.31069  0.41302  1.0000
  H   H3663     1.0  0.63459  0.02986  0.10902  1.0000
  C   C2078     1.0  0.70329  0.47259  0.46336  1.0000
  C   C2079     1.0  0.69172  0.47586  0.44783  1.0000
  C   C2080     1.0  0.68101  0.46048  0.44763  1.0000
  C   C2081     1.0  0.68252  0.44159  0.46251  1.0000
  C   C2082     1.0  0.69434  0.43821  0.47780  1.0000
  H   H3664     1.0  0.62860  0.39396  0.45828  1.0000
  H   H3665     1.0  0.61682  0.12758  0.19679  1.0000
  H   H3666     1.0  0.70360  0.18282  0.31177  1.0000
  C   C2083     1.0  0.62889  0.26443  0.17123  1.0000
  C   C2084     1.0  0.63675  0.28267  0.16856  1.0000
  C   C2085     1.0  0.64165  0.29460  0.14830  1.0000
  C   C2086     1.0  0.63883  0.28822  0.13095  1.0000
  C   C2087     1.0  0.63422  0.29185  0.26546  1.0000
  H   H3667     1.0  0.64732  0.30893  0.14599  1.0000
  H   H3668     1.0  0.64192  0.29796  0.11545  1.0000
  H   H3669     1.0  0.77686  0.19273  0.07261  1.0000
  C   C2088     1.0  0.66758  0.38512  0.22323  1.0000
  C   C2089     1.0  0.68005  0.36827  0.23428  1.0000
  C   C2090     1.0  0.68650  0.37087  0.25164  1.0000
  C   C2091     1.0  0.68000  0.38995  0.25858  1.0000
  C   C2092     1.0  0.66806  0.40703  0.24713  1.0000
  C   C2093     1.0  0.66208  0.40461  0.22939  1.0000
  H   H3670     1.0  0.68478  0.35329  0.22942  1.0000
  H   H3671     1.0  0.69657  0.35809  0.25981  1.0000
  H   H3672     1.0  0.60961  0.41979  0.22790  1.0000
  H   H3673     1.0  0.65345  0.41789  0.22017  1.0000
  C   C2094     1.0  0.77062  0.33157  0.15983  1.0000
  C   C2095     1.0  0.75558  0.31957  0.17108  1.0000
  C   C2096     1.0  0.75567  0.30943  0.19188  1.0000
  C   C2097     1.0  0.77191  0.31001  0.20112  1.0000
  H   H3674     1.0  0.73965  0.33659  0.02935  1.0000
  H   H3675     1.0  0.74359  0.31821  0.16386  1.0000
  H   H3676     1.0  0.77206  0.30225  0.21732  1.0000
  S   S466      1.0  0.70072  0.44037  0.35218  1.0000
  H   H3677     1.0  0.77427  0.31256  0.36979  1.0000
  C   C2098     1.0  0.77562  0.43790  0.40153  1.0000
  C   C2099     1.0  0.76853  0.30248  0.09838  1.0000
  C   C2100     1.0  0.75389  0.30439  0.08614  1.0000
  C   C2101     1.0  0.73387  0.31692  0.09054  1.0000
  C   C2102     1.0  0.72822  0.32690  0.10766  1.0000
  C   C2103     1.0  0.74286  0.32514  0.11971  1.0000
  C   C2104     1.0  0.76296  0.31293  0.11513  1.0000
  H   H3678     1.0  0.75786  0.29625  0.07331  1.0000
  H   H3679     1.0  0.72264  0.31855  0.08098  1.0000
  H   H3680     1.0  0.73861  0.33365  0.13226  1.0000
  H   H3681     1.0  0.77416  0.31150  0.12463  1.0000
  C   C2105     1.0  0.72407  0.24283  0.04487  1.0000
  C   C2106     1.0  0.70230  0.24670  0.04746  1.0000
  C   C2107     1.0  0.69193  0.22995  0.05181  1.0000
  C   C2108     1.0  0.70338  0.20935  0.05277  1.0000
  C   C2109     1.0  0.72521  0.20547  0.04966  1.0000
  H   H3682     1.0  0.69336  0.26262  0.04649  1.0000
  H   H3683     1.0  0.67505  0.23300  0.05425  1.0000
  H   H3684     1.0  0.73398  0.18948  0.05092  1.0000
  H   H3685     1.0  0.71156  0.49071  0.38825  1.0000
  H   H3686     1.0  0.67631  0.14889  0.41068  1.0000
  H   H3687     1.0  0.69662  0.45773  0.16577  1.0000
  H   H3688     1.0  0.65368  0.22478  0.29076  1.0000
  H   H3689     1.0  0.72959  0.40098  0.36595  1.0000
  H   H3690     1.0  0.78794  0.00965  0.23329  1.0000
  H   H3691     1.0  0.66197  0.00397  0.19476  1.0000
  H   H3692     1.0  0.62442  0.17058  0.37637  1.0000
  H   H3693     1.0  0.60803  0.48161  0.30710  1.0000
  Fe  Fe238     1.0  0.64589  0.18108  0.12914  1.0000
  Fe  Fe239     1.0  0.70858  0.99579  0.20258  1.0000
  H   H3694     1.0  0.61253  0.37435  0.42933  1.0000
  C   C2110     1.0  0.71277  0.32294  0.03560  1.0000
  H   H3695     1.0  0.73000  0.09386  0.04644  1.0000
  H   H3696     1.0  0.59889  0.99830  0.07077  1.0000
  C   C2111     1.0  0.61007  0.38061  0.41297  1.0000
  H   H3697     1.0  0.60539  0.02358  0.99385  1.0000
  H   H3698     1.0  0.69482  0.46289  0.38526  1.0000
  H   H3699     1.0  0.61481  0.40775  0.37350  1.0000
  H   H3700     1.0  0.64325  0.44357  0.40483  1.0000
  H   H3701     1.0  0.67836  0.21469  0.33938  1.0000
  H   H3702     1.0  0.61263  0.20819  0.21588  1.0000
  N   N114      1.0  0.70459  0.24896  0.12085  1.0000
  C   C2112     1.0  0.70840  0.22562  0.12147  1.0000
  C   C2113     1.0  0.68978  0.25358  0.14091  1.0000
  C   C2114     1.0  0.69373  0.26038  0.10282  1.0000
  C   C2115     1.0  0.72443  0.25686  0.11774  1.0000
  C   C2116     1.0  0.74189  0.24189  0.12867  1.0000
  C   C2117     1.0  0.72056  0.21826  0.10088  1.0000
  C   C2118     1.0  0.68954  0.28482  0.09848  1.0000
  C   C2119     1.0  0.69775  0.24318  0.16161  1.0000
  C   C2120     1.0  0.68042  0.24452  0.18100  1.0000
  C   C2121     1.0  0.75680  0.25399  0.13179  1.0000
  C   C2122     1.0  0.72918  0.19452  0.10491  1.0000
  C   C2123     1.0  0.67875  0.29436  0.07981  1.0000
  H   H3703     1.0  0.69322  0.22035  0.12579  1.0000
  H   H3704     1.0  0.71686  0.21622  0.13395  1.0000
  H   H3705     1.0  0.68571  0.27071  0.14080  1.0000
  H   H3706     1.0  0.67471  0.24888  0.14214  1.0000
  H   H3707     1.0  0.67861  0.25534  0.10508  1.0000
  H   H3708     1.0  0.70331  0.25629  0.08777  1.0000
  H   H3709     1.0  0.73171  0.26050  0.10071  1.0000
  H   H3710     1.0  0.72060  0.27225  0.12281  1.0000
  H   H3711     1.0  0.75088  0.23024  0.11891  1.0000
  H   H3712     1.0  0.73612  0.23268  0.14419  1.0000
  H   H3713     1.0  0.70978  0.22159  0.08989  1.0000
  H   H3714     1.0  0.73372  0.22649  0.09310  1.0000
  H   H3715     1.0  0.70440  0.29047  0.09457  1.0000
  H   H3716     1.0  0.67955  0.29123  0.11211  1.0000
  H   H3717     1.0  0.70444  0.22629  0.16252  1.0000
  H   H3718     1.0  0.70970  0.25126  0.16297  1.0000
  H   H3719     1.0  0.66601  0.24153  0.17844  1.0000
  H   H3720     1.0  0.68512  0.23227  0.19444  1.0000
  H   H3721     1.0  0.67736  0.26021  0.18497  1.0000
  H   H3722     1.0  0.76612  0.26029  0.11646  1.0000
  H   H3723     1.0  0.74821  0.26720  0.13980  1.0000
  H   H3724     1.0  0.76747  0.24319  0.14169  1.0000
  H   H3725     1.0  0.73673  0.18958  0.08976  1.0000
  H   H3726     1.0  0.74105  0.19031  0.11488  1.0000
  H   H3727     1.0  0.71634  0.18581  0.11270  1.0000
  H   H3728     1.0  0.67511  0.31179  0.07761  1.0000
  H   H3729     1.0  0.68914  0.28996  0.06525  1.0000
  H   H3730     1.0  0.66393  0.28877  0.08251  1.0000
  H   H3731     1.0  0.71398  0.38671  0.16847  1.0000
  H   H3732     1.0  0.76949  0.37815  0.29831  1.0000
  H   H3733     1.0  0.73985  0.37267  0.16177  1.0000
  H   H3734     1.0  0.61928  0.32058  0.45639  1.0000
  H   H3735     1.0  0.63963  0.25002  0.46803  1.0000
  S   S467      1.0  0.72760  0.33556  0.47644  1.0000
  H   H3736     1.0  0.61821  0.27101  0.24142  1.0000
  C   C2124     1.0  0.74579  0.31440  0.00837  1.0000
  H   H3737     1.0  0.60634  0.12385  0.17625  1.0000
  H   H3738     1.0  0.70817  0.42084  0.39584  1.0000
  H   H3739     1.0  0.67063  0.43715  0.39359  1.0000
  C   C2125     1.0  0.62603  0.30871  0.24719  1.0000
  C   C2126     1.0  0.63444  0.17363  0.36044  1.0000
  H   H3740     1.0  0.65117  0.42274  0.37649  1.0000
  H   H3741     1.0  0.66048  0.42267  0.41906  1.0000
  C   C2127     1.0  0.60275  0.32577  0.45642  1.0000
  H   H3742     1.0  0.61214  0.39762  0.33993  1.0000
  H   H3743     1.0  0.71582  0.38352  0.20252  1.0000
  C   C2128     1.0  0.67926  0.28779  0.40528  1.0000
  H   H3744     1.0  0.61397  0.37209  0.19145  1.0000
  C   C2129     1.0  0.60766  0.43659  0.22879  1.0000
  C   C2130     1.0  0.60893  0.26309  0.31921  1.0000
  H   H3745     1.0  0.74189  0.02199  0.29834  1.0000
  H   H3746     1.0  0.73738  0.43832  0.39006  1.0000
  C   C2131     1.0  0.65301  0.41453  0.39270  1.0000
  H   H3747     1.0  0.63686  0.43893  0.19079  1.0000
  H   H3748     1.0  0.62904  0.27693  0.26753  1.0000
  C   C2132     1.0  0.79267  0.34408  0.24103  1.0000
  H   H3749     1.0  0.64418  0.37078  0.47130  1.0000
  H   H3750     1.0  0.71645  0.30059  0.45801  1.0000
  H   H3751     1.0  0.75711  0.39154  0.26623  1.0000
  C   C2133     1.0  0.66444  0.28058  0.42632  1.0000
  H   H3752     1.0  0.78908  0.00928  0.26837  1.0000
  H   H3753     1.0  0.62931  0.00805  0.04282  1.0000
  H   H3754     1.0  0.73767  0.40906  0.29683  1.0000
  C   C2134     1.0  0.69454  0.25450  0.33267  1.0000
  H   H3755     1.0  0.74849  0.40181  0.13146  1.0000
  C   C2135     1.0  0.64119  0.23534  0.29872  1.0000
  H   H3756     1.0  0.61790  0.11853  0.04766  1.0000
  H   H3757     1.0  0.73598  0.30585  0.00396  1.0000
  H   H3758     1.0  0.77310  0.47006  0.40506  1.0000
  H   H3759     1.0  0.77346  0.12118  0.14903  1.0000
  H   H3760     1.0  0.75054  0.27307  0.24786  1.0000
  N   N115      1.0  0.64930  0.18742  0.35964  1.0000
  H   H3761     1.0  0.73269  0.39474  0.21060  1.0000
  H   H3762     1.0  0.66347  0.42205  0.25188  1.0000
  S   S468      1.0  0.72902  0.01212  0.26467  1.0000
  C   C2136     1.0  0.78646  0.13442  0.20986  1.0000
  H   H3763     1.0  0.71872  0.30925  0.04737  1.0000
  H   H3764     1.0  0.78628  0.09567  0.38798  1.0000
  C   C2137     1.0  0.76269  0.31806  0.38262  1.0000
  H   H3765     1.0  0.68279  0.18504  0.14943  1.0000
  H   H3766     1.0  0.65664  0.19735  0.32583  1.0000
  H   H3767     1.0  0.63316  0.09546  0.15471  1.0000
  H   H3768     1.0  0.63211  0.09249  0.04478  1.0000
  C   C2138     1.0  0.70435  0.45389  0.47848  1.0000
  H   H3769     1.0  0.73409  0.37315  0.12640  1.0000
  H   H3770     1.0  0.63319  0.40232  0.42209  1.0000
  C   C2139     1.0  0.74623  0.36385  0.20324  1.0000
  H   H3771     1.0  0.69238  0.27626  0.47847  1.0000
  C   C2140     1.0  0.68165  0.17623  0.16541  1.0000
  H   H3772     1.0  0.64329  0.15780  0.35790  1.0000
  H   H3773     1.0  0.75431  0.06703  0.19007  1.0000
  H   H3774     1.0  0.68173  0.01969  0.27685  1.0000
  H   H3775     1.0  0.68640  0.15597  0.36248  1.0000
  H   H3776     1.0  0.60611  0.10141  0.03937  1.0000
  S   S469      1.0  0.69768  0.44396  0.29175  1.0000
  H   H3777     1.0  0.64872  0.19371  0.19716  1.0000
  H   H3778     1.0  0.60733  0.07641  0.07408  1.0000
  H   H3779     1.0  0.78462  0.11782  0.21632  1.0000
  H   H3780     1.0  0.78825  0.19478  0.23810  1.0000
  H   H3781     1.0  0.72796  0.11598  0.05808  1.0000
  H   H3782     1.0  0.77125  0.14427  0.20669  1.0000
  H   H3783     1.0  0.74195  0.26376  0.27592  1.0000
  C   C2141     1.0  0.69633  0.18089  0.00289  1.0000
  N   N116      1.0  0.76201  0.32206  0.98981  1.0000
  C   C2142     1.0  0.68711  0.14983  0.39510  1.0000
  C   C2143     1.0  0.76186  0.04463  0.28363  1.0000
  C   C2144     1.0  0.76146  0.43975  0.47773  1.0000
  C   C2145     1.0  0.62088  0.23859  0.29541  1.0000
  C   C2146     1.0  0.63366  0.05777  0.99229  1.0000
  H   H3784     1.0  0.75267  0.17881  0.01944  1.0000
  H   H3785     1.0  0.76270  0.36478  0.20196  1.0000
  H   H3786     1.0  0.60409  0.01629  0.13103  1.0000
  H   H3787     1.0  0.75238  0.21913  0.04419  1.0000
  C   C2147     1.0  0.63945  0.20925  0.19126  1.0000
  S   S470      1.0  0.61635  0.32447  0.35671  1.0000
  C   C2148     1.0  0.78730  0.32179  0.18974  1.0000
  H   H3788     1.0  0.77871  0.32614  0.01175  1.0000
  H   H3789     1.0  0.71167  0.36098  0.38440  1.0000
  C   C2149     1.0  0.63243  0.26920  0.13345  1.0000
  H   H3790     1.0  0.60123  0.17935  0.23630  1.0000
  N   N117      1.0  0.67955  0.31605  0.31603  1.0000
  C   C2150     1.0  0.65980  0.31840  0.30824  1.0000
  C   C2151     1.0  0.68442  0.29411  0.32905  1.0000
  C   C2152     1.0  0.67531  0.33131  0.33053  1.0000
  C   C2153     1.0  0.69770  0.32069  0.29841  1.0000
  C   C2154     1.0  0.69913  0.31393  0.27750  1.0000
  C   C2155     1.0  0.65043  0.34114  0.29775  1.0000
  C   C2156     1.0  0.69433  0.33303  0.33870  1.0000
  C   C2157     1.0  0.69126  0.27563  0.31734  1.0000
  C   C2158     1.0  0.62953  0.07934  0.99795  1.0000
  C   C2159     1.0  0.72110  0.31337  0.26417  1.0000
  C   C2160     1.0  0.63571  0.34139  0.28377  1.0000
  C   C2161     1.0  0.68729  0.34701  0.35495  1.0000
  H   H3791     1.0  0.64736  0.31300  0.32145  1.0000
  H   H3792     1.0  0.66205  0.30778  0.29727  1.0000
  H   H3793     1.0  0.69738  0.29241  0.33704  1.0000
  H   H3794     1.0  0.67063  0.29102  0.34178  1.0000
  H   H3795     1.0  0.66254  0.32752  0.34421  1.0000
  H   H3796     1.0  0.66965  0.34768  0.32248  1.0000
  H   H3797     1.0  0.69755  0.33792  0.29406  1.0000
  H   H3798     1.0  0.71262  0.31357  0.30393  1.0000
  H   H3799     1.0  0.68792  0.32529  0.26845  1.0000
  H   H3800     1.0  0.69538  0.29835  0.27957  1.0000
  H   H3801     1.0  0.64117  0.35001  0.31011  1.0000
  H   H3802     1.0  0.66281  0.34974  0.28813  1.0000
  H   H3803     1.0  0.70587  0.34013  0.32557  1.0000
  H   H3804     1.0  0.70268  0.31771  0.34630  1.0000
  H   H3805     1.0  0.67940  0.27553  0.30859  1.0000
  H   H3806     1.0  0.70658  0.27656  0.30647  1.0000
  H   H3807     1.0  0.78034  0.33930  0.38622  1.0000
  H   H3808     1.0  0.61846  0.45091  0.17377  1.0000
  H   H3809     1.0  0.76575  0.39914  0.20063  1.0000
  H   H3810     1.0  0.72587  0.32845  0.26247  1.0000
  H   H3811     1.0  0.73247  0.30071  0.27187  1.0000
  C   C2162     1.0  0.59734  0.47876  0.24497  1.0000
  H   H3812     1.0  0.62331  0.33246  0.29272  1.0000
  H   H3813     1.0  0.62813  0.35790  0.27799  1.0000
  H   H3814     1.0  0.64472  0.33460  0.26997  1.0000
  H   H3815     1.0  0.70092  0.34704  0.36128  1.0000
  H   H3816     1.0  0.68073  0.36342  0.34769  1.0000
  H   H3817     1.0  0.67540  0.34077  0.36825  1.0000
  H   H3818     1.0  0.62923  0.04345  0.02564  1.0000
  H   H3819     1.0  0.66814  0.24009  0.44640  1.0000
  H   H3820     1.0  0.60244  0.24178  0.36580  1.0000
  C   C2163     1.0  0.62719  0.39348  0.37611  1.0000
  C   C2164     1.0  0.64757  0.36885  0.40056  1.0000
  C   C2165     1.0  0.62323  0.37610  0.36690  1.0000
  C   C2166     1.0  0.65652  0.36330  0.42074  1.0000
  H   H3821     1.0  0.69735  0.13409  0.39440  1.0000
  C   C2167     1.0  0.67254  0.34260  0.42110  1.0000
  H   H3822     1.0  0.64170  0.39815  0.36595  1.0000
  H   H3823     1.0  0.66083  0.37124  0.38702  1.0000
  H   H3824     1.0  0.64286  0.35432  0.39976  1.0000
  H   H3825     1.0  0.69148  0.16753  0.99971  1.0000
  H   H3826     1.0  0.63521  0.36146  0.36899  1.0000
  H   H3827     1.0  0.65459  0.30731  0.38915  1.0000
  H   H3828     1.0  0.64419  0.36131  0.43513  1.0000
  H   H3829     1.0  0.66445  0.37571  0.42129  1.0000
  H   H3830     1.0  0.65259  0.29512  0.42905  1.0000
  C   C2168     1.0  0.60027  0.43432  0.26696  1.0000
  S   S471      1.0  0.75248  0.22869  0.31805  1.0000
  H   H3831     1.0  0.68146  0.34009  0.43352  1.0000
  H   H3832     1.0  0.66436  0.32932  0.42442  1.0000
  H   H3833     1.0  0.68394  0.34266  0.40595  1.0000
  C   C2169     1.0  0.73868  0.35203  0.22530  1.0000
  H   H3834     1.0  0.72321  0.34847  0.22645  1.0000
  H   H3835     1.0  0.74974  0.33687  0.22870  1.0000
  H   H3836     1.0  0.73768  0.36129  0.23723  1.0000
  C   C2170     1.0  0.73102  0.33149  0.02007  1.0000
  C   C2171     1.0  0.59551  0.32782  0.43807  1.0000
  S   S472      1.0  0.69047  0.00895  0.23094  1.0000
  H   H3837     1.0  0.66193  0.25429  0.22723  1.0000
  H   H3838     1.0  0.66226  0.28041  0.38525  1.0000
  H   H3839     1.0  0.60736  0.22459  0.19176  1.0000
  C   C2172     1.0  0.72166  0.28322  0.46022  1.0000
  H   H3840     1.0  0.71901  0.04964  0.10840  1.0000
  H   H3841     1.0  0.69327  0.27559  0.40163  1.0000
  C   C2173     1.0  0.59836  0.01020  0.03753  1.0000
  H   H3842     1.0  0.72528  0.12689  0.02038  1.0000
  H   H3843     1.0  0.72472  0.34551  0.00889  1.0000
  H   H3844     1.0  0.60769  0.37215  0.37446  1.0000
  H   H3845     1.0  0.61529  0.17505  0.05806  1.0000
  H   H3846     1.0  0.76931  0.25908  0.26403  1.0000
  C   C2174     1.0  0.70992  0.46254  0.35299  1.0000
  C   C2175     1.0  0.62413  0.38321  0.34331  1.0000
  C   C2176     1.0  0.78312  0.10384  0.12448  1.0000
  H   H3847     1.0  0.62509  0.11425  0.12183  1.0000
  H   H3848     1.0  0.77212  0.39787  0.41374  1.0000
  S   S473      1.0  0.77757  0.12054  0.06885  1.0000
  H   H3849     1.0  0.64876  0.17639  0.39292  1.0000
  H   H3850     1.0  0.72080  0.07093  0.34125  1.0000
  H   H3851     1.0  0.62299  0.43812  0.23090  1.0000
  H   H3852     1.0  0.75311  0.09932  0.05094  1.0000
  Fe  Fe240     1.0  0.79237  0.08427  0.28991  1.0000
  C   C2177     1.0  0.78448  0.16697  0.14636  1.0000
  H   H3853     1.0  0.71336  0.24665  0.42845  1.0000
  N   N118      1.0  0.76396  0.42828  0.42263  1.0000
  H   H3854     1.0  0.66159  0.03383  0.26228  1.0000
  H   H3855     1.0  0.66364  0.27443  0.27415  1.0000
  C   C2178     1.0  0.77735  0.13722  0.37842  1.0000
  C   C2179     1.0  0.59316  0.47703  0.30956  1.0000
  C   C2180     1.0  0.76335  0.15951  0.37373  1.0000
  C   C2181     1.0  0.74538  0.15897  0.36398  1.0000
  H   H3856     1.0  0.63693  0.07834  0.01127  1.0000
  H   H3857     1.0  0.77563  0.06156  0.23113  1.0000
  C   C2182     1.0  0.60534  0.36780  0.20786  1.0000
  H   H3858     1.0  0.76725  0.12816  0.39156  1.0000
  H   H3859     1.0  0.65180  0.01069  0.12438  1.0000
  H   H3860     1.0  0.77603  0.43722  0.32413  1.0000
  H   H3861     1.0  0.75638  0.16527  0.38861  1.0000
  S   S474      1.0  0.78538  0.30224  0.32812  1.0000
  H   H3862     1.0  0.73562  0.14788  0.37459  1.0000
  H   H3863     1.0  0.73539  0.17493  0.36118  1.0000
  H   H3864     1.0  0.75158  0.15389  0.34868  1.0000
  H   H3865     1.0  0.76566  0.34858  0.34346  1.0000
  S   S475      1.0  0.68684  0.39144  0.28182  1.0000
  H   H3866     1.0  0.76467  0.04628  0.29824  1.0000
  S   S476      1.0  0.60713  0.44365  0.33944  1.0000
  S   S477      1.0  0.73928  0.99992  0.20701  1.0000
  H   H3867     1.0  0.74490  0.41082  0.40054  1.0000
  H   H3868     1.0  0.72105  0.39177  0.33749  1.0000
  H   H3869     1.0  0.60230  0.12081  0.14207  1.0000
  H   H3870     1.0  0.64659  0.48740  0.46780  1.0000
  C   C2183     1.0  0.70306  0.27270  0.46372  1.0000
  N   N119      1.0  0.68521  0.07319  0.29789  1.0000
  C   C2184     1.0  0.70251  0.07974  0.27999  1.0000
  C   C2185     1.0  0.68153  0.05261  0.29575  1.0000
  C   C2186     1.0  0.66587  0.09029  0.29672  1.0000
  C   C2187     1.0  0.69078  0.07040  0.31894  1.0000
  C   C2188     1.0  0.71099  0.05420  0.32269  1.0000
  C   C2189     1.0  0.71228  0.09752  0.28222  1.0000
  C   C2190     1.0  0.64540  0.08511  0.31182  1.0000
  C   C2191     1.0  0.67324  0.05349  0.27591  1.0000
  C   C2192     1.0  0.66769  0.03258  0.27653  1.0000
  C   C2193     1.0  0.71706  0.05531  0.34275  1.0000
  C   C2194     1.0  0.72621  0.10579  0.26151  1.0000
  C   C2195     1.0  0.62691  0.10325  0.30832  1.0000
  H   H3871     1.0  0.69677  0.08500  0.26496  1.0000
  H   H3872     1.0  0.71552  0.06610  0.27737  1.0000
  H   H3873     1.0  0.69636  0.04060  0.29503  1.0000
  H   H3874     1.0  0.67075  0.04590  0.30996  1.0000
  H   H3875     1.0  0.66291  0.09527  0.28044  1.0000
  H   H3876     1.0  0.66827  0.10466  0.30033  1.0000
  H   H3877     1.0  0.69197  0.08579  0.32158  1.0000
  H   H3878     1.0  0.67811  0.06506  0.33188  1.0000
  H   H3879     1.0  0.72428  0.05712  0.30965  1.0000
  H   H3880     1.0  0.70875  0.03797  0.32425  1.0000
  H   H3881     1.0  0.70018  0.11091  0.28704  1.0000
  H   H3882     1.0  0.72213  0.09164  0.29427  1.0000
  H   H3883     1.0  0.64669  0.08257  0.32845  1.0000
  H   H3884     1.0  0.64153  0.07091  0.30934  1.0000
  H   H3885     1.0  0.65890  0.06573  0.27448  1.0000
  H   H3886     1.0  0.68531  0.05682  0.26149  1.0000
  H   H3887     1.0  0.65334  0.29183  0.46481  1.0000
  S   S478      1.0  0.78787  0.07301  0.26285  1.0000
  C   C2196     1.0  0.76349  0.18895  0.31026  1.0000
  H   H3888     1.0  0.70419  0.05262  0.35656  1.0000
  H   H3889     1.0  0.61762  0.42492  0.18963  1.0000
  H   H3890     1.0  0.73847  0.09276  0.25594  1.0000
  H   H3891     1.0  0.71677  0.11358  0.24927  1.0000
  H   H3892     1.0  0.73405  0.11742  0.26389  1.0000
  H   H3893     1.0  0.62429  0.10583  0.29211  1.0000
  C   C2197     1.0  0.76325  0.17183  0.00628  1.0000
  H   H3894     1.0  0.61252  0.09944  0.31954  1.0000
  C   C2198     1.0  0.60513  0.45050  0.20687  1.0000
  N   N120      1.0  0.70277  0.10581  0.14473  1.0000
  C   C2199     1.0  0.69959  0.12263  0.12537  1.0000
  C   C2200     1.0  0.68194  0.10191  0.15835  1.0000
  C   C2201     1.0  0.71367  0.11410  0.15713  1.0000
  C   C2202     1.0  0.71647  0.08556  0.13930  1.0000
  C   C2203     1.0  0.70856  0.07503  0.12560  1.0000
  C   C2204     1.0  0.71978  0.12808  0.10986  1.0000
  C   C2205     1.0  0.71492  0.10139  0.17973  1.0000
  C   C2206     1.0  0.66403  0.10319  0.14708  1.0000
  C   C2207     1.0  0.73558  0.22219  0.04600  1.0000
  C   C2208     1.0  0.72521  0.05693  0.11805  1.0000
  C   C2209     1.0  0.71446  0.14550  0.09125  1.0000
  C   C2210     1.0  0.72720  0.11071  0.19014  1.0000
  H   H3895     1.0  0.68987  0.13743  0.13012  1.0000
  H   H3896     1.0  0.69048  0.11842  0.11600  1.0000
  H   H3897     1.0  0.68414  0.08636  0.16941  1.0000
  H   H3898     1.0  0.67533  0.11371  0.16861  1.0000
  H   H3899     1.0  0.70577  0.13057  0.15858  1.0000
  H   H3900     1.0  0.73007  0.11472  0.14881  1.0000
  H   H3901     1.0  0.73265  0.08783  0.13162  1.0000
  H   H3902     1.0  0.71834  0.07347  0.15382  1.0000
  H   H3903     1.0  0.70424  0.08630  0.11144  1.0000
  H   H3904     1.0  0.69490  0.06818  0.13508  1.0000
  H   H3905     1.0  0.72942  0.13385  0.11747  1.0000
  H   H3906     1.0  0.72938  0.11416  0.10348  1.0000
  H   H3907     1.0  0.72291  0.08490  0.17941  1.0000
  H   H3908     1.0  0.69914  0.10145  0.18991  1.0000
  H   H3909     1.0  0.65711  0.11994  0.14140  1.0000
  H   H3910     1.0  0.66926  0.09567  0.13330  1.0000
  H   H3911     1.0  0.72966  0.04461  0.13159  1.0000
  H   H3912     1.0  0.61092  0.47831  0.45921  1.0000
  H   H3913     1.0  0.72907  0.14888  0.08014  1.0000
  H   H3914     1.0  0.70493  0.14072  0.08266  1.0000
  H   H3915     1.0  0.70564  0.16017  0.09672  1.0000
  H   H3916     1.0  0.72762  0.10145  0.20634  1.0000
  H   H3917     1.0  0.74354  0.11009  0.18118  1.0000
  H   H3918     1.0  0.71962  0.12729  0.19110  1.0000
  N   N121      1.0  0.72812  0.22185  0.24525  1.0000
  C   C2211     1.0  0.72968  0.23977  0.25424  1.0000
  C   C2212     1.0  0.70536  0.22218  0.24659  1.0000
  C   C2213     1.0  0.73666  0.20152  0.25909  1.0000
  C   C2214     1.0  0.74035  0.22235  0.22293  1.0000
  C   C2215     1.0  0.74266  0.24430  0.20890  1.0000
  C   C2216     1.0  0.75175  0.23923  0.25765  1.0000
  C   C2217     1.0  0.73498  0.18090  0.25367  1.0000
  C   C2218     1.0  0.69318  0.24175  0.23371  1.0000
  C   C2219     1.0  0.75266  0.24263  0.18618  1.0000
  C   C2220     1.0  0.75339  0.26015  0.26155  1.0000
  C   C2221     1.0  0.74816  0.16178  0.26547  1.0000
  H   H3919     1.0  0.71883  0.23991  0.26982  1.0000
  H   H3920     1.0  0.72442  0.25528  0.24435  1.0000
  H   H3921     1.0  0.70368  0.20864  0.24084  1.0000
  H   H3922     1.0  0.69686  0.22038  0.26329  1.0000
  H   H3923     1.0  0.72888  0.20129  0.27587  1.0000
  H   H3924     1.0  0.75354  0.20027  0.25847  1.0000
  H   H3925     1.0  0.75659  0.21330  0.22282  1.0000
  H   H3926     1.0  0.73345  0.21416  0.21462  1.0000
  H   H3927     1.0  0.75288  0.25147  0.21440  1.0000
  H   H3928     1.0  0.72751  0.25545  0.20891  1.0000
  H   H3929     1.0  0.75489  0.22711  0.27172  1.0000
  H   H3930     1.0  0.76424  0.23521  0.24415  1.0000
  H   H3931     1.0  0.74041  0.18105  0.23661  1.0000
  H   H3932     1.0  0.71858  0.17859  0.25841  1.0000
  Fe  Fe241     1.0  0.69329  0.34416  0.47661  1.0000
  H   H3933     1.0  0.69960  0.24244  0.21675  1.0000
  H   H3934     1.0  0.66234  0.24118  0.25407  1.0000
  H   H3935     1.0  0.75449  0.25855  0.17680  1.0000
  H   H3936     1.0  0.76835  0.23215  0.18520  1.0000
  H   H3937     1.0  0.74257  0.23647  0.17941  1.0000
  S   S479      1.0  0.63471  0.27193  0.34027  1.0000
  H   H3938     1.0  0.67196  0.46305  0.43570  1.0000
  S   S480      1.0  0.67007  0.18473  0.27776  1.0000
  H   H3939     1.0  0.74697  0.14731  0.26111  1.0000
  H   H3940     1.0  0.76491  0.16296  0.26136  1.0000
  H   H3941     1.0  0.74250  0.16036  0.28271  1.0000
  H   H3942     1.0  0.73316  0.44859  0.42304  1.0000
  H   H3943     1.0  0.73953  0.37318  0.27501  1.0000
  H   H3944     1.0  0.60750  0.04697  0.01372  1.0000
  H   H3945     1.0  0.75198  0.46707  0.39486  1.0000
  H   H3946     1.0  0.60674  0.36717  0.40843  1.0000
  H   H3947     1.0  0.59503  0.29524  0.27936  1.0000
  H   H3948     1.0  0.76992  0.33996  0.14391  1.0000
  S   S481      1.0  0.70302  0.02646  0.17987  1.0000
  C   C2222     1.0  0.71022  0.37830  0.38063  1.0000
  C   C2223     1.0  0.70167  0.42457  0.18124  1.0000
  H   H3949     1.0  0.74842  0.18680  0.31994  1.0000
  H   H3950     1.0  0.76111  0.16450  0.06864  1.0000
  C   C2224     1.0  0.70555  0.46963  0.37188  1.0000
  H   H3951     1.0  0.70913  0.25548  0.46589  1.0000
  H   H3952     1.0  0.76582  0.19803  0.13856  1.0000
  S   S482      1.0  0.62677  0.16555  0.29132  1.0000
  H   H3953     1.0  0.61361  0.44205  0.26511  1.0000
  S   S483      1.0  0.78571  0.28115  0.03926  1.0000
  H   H3954     1.0  0.78413  0.13350  0.99281  1.0000
  C   C2225     1.0  0.69180  0.28091  0.44486  1.0000
  C   C2226     1.0  0.70743  0.21547  0.43628  1.0000
  C   C2227     1.0  0.59565  0.12429  0.11114  1.0000
  H   H3955     1.0  0.65538  0.02868  0.29055  1.0000
  C   C2228     1.0  0.61616  0.20923  0.19869  1.0000
  H   H3956     1.0  0.75279  0.45632  0.47482  1.0000
  C   C2229     1.0  0.77629  0.05138  0.16675  1.0000
  C   C2230     1.0  0.77048  0.06326  0.18238  1.0000
  S   S484      1.0  0.75744  0.04243  0.15940  1.0000
  H   H3957     1.0  0.74464  0.41513  0.32717  1.0000
  H   H3958     1.0  0.67447  0.44972  0.18489  1.0000
  C   C2231     1.0  0.65748  0.27465  0.46466  1.0000
  Fe  Fe242     1.0  0.73215  0.03182  0.18634  1.0000
  Fe  Fe243     1.0  0.72041  0.01637  0.23312  1.0000
  S   S485      1.0  0.71607  0.49180  0.46469  1.0000
  H   H3959     1.0  0.64156  0.09899  0.17676  1.0000
  C   C2232     1.0  0.61925  0.21154  0.38047  1.0000
  S   S486      1.0  0.63055  0.26113  0.11094  1.0000
  N   N122      1.0  0.75473  0.38133  0.33031  1.0000
  C   C2233     1.0  0.69038  0.16933  0.19993  1.0000
  C   C2234     1.0  0.75134  0.33998  0.40891  1.0000
  C   C2235     1.0  0.73052  0.38403  0.36681  1.0000
  H   H3960     1.0  0.76922  0.40732  0.31119  1.0000
  H   H3961     1.0  0.70232  0.19172  0.17327  1.0000
  H   H3962     1.0  0.75192  0.36083  0.31113  1.0000
  H   H3963     1.0  0.67685  0.14505  0.22279  1.0000
  C   C2236     1.0  0.69274  0.17998  0.17886  1.0000
  Fe  Fe244     1.0  0.67665  0.42175  0.29408  1.0000
  H   H3964     1.0  0.66402  0.30134  0.26071  1.0000
  H   H3965     1.0  0.76760  0.10776  0.12007  1.0000
  C   C2237     1.0  0.76616  0.33311  0.39197  1.0000
  H   H3966     1.0  0.61957  0.40402  0.25953  1.0000
  H   H3967     1.0  0.74583  0.35431  0.19219  1.0000
  C   C2238     1.0  0.59661  0.30134  0.23595  1.0000
  N   N123      1.0  0.63119  0.01882  0.00937  1.0000
  N   N124      1.0  0.73726  0.39855  0.17668  1.0000
  S   S487      1.0  0.64495  0.16910  0.10124  1.0000
  H   H3968     1.0  0.60514  0.30396  0.21937  1.0000
  C   C2239     1.0  0.62795  0.11402  0.24269  1.0000
  H   H3969     1.0  0.62975  0.11796  0.31083  1.0000
  H   H3970     1.0  0.72959  0.40085  0.26666  1.0000
  H   H3971     1.0  0.67966  0.25201  0.34377  1.0000
  H   H3972     1.0  0.63122  0.45736  0.46861  1.0000
  S   S488      1.0  0.65696  0.47034  0.32114  1.0000
  S   S489      1.0  0.61499  0.20346  0.12904  1.0000
  H   H3973     1.0  0.63196  0.32290  0.24686  1.0000
  Fe  Fe245     1.0  0.76916  0.25441  0.04651  1.0000
  S   S490      1.0  0.73643  0.26398  0.04086  1.0000
  H   H3974     1.0  0.71291  0.16175  0.02659  1.0000
  S   S491      1.0  0.66996  0.42201  0.46180  1.0000
  H   H3975     1.0  0.64328  0.00786  0.16678  1.0000
  H   H3976     1.0  0.70413  0.27940  0.43057  1.0000
  C   C2240     1.0  0.62015  0.18182  0.34403  1.0000
  C   C2241     1.0  0.62735  0.25736  0.15371  1.0000
  H   H3977     1.0  0.60710  0.20317  0.38024  1.0000
  S   S492      1.0  0.65290  0.15719  0.15789  1.0000
  C   C2242     1.0  0.66863  0.16144  0.17300  1.0000
  Fe  Fe246     1.0  0.63684  0.15389  0.26133  1.0000
  S   S493      1.0  0.64337  0.18503  0.24257  1.0000
  S   S494      1.0  0.64911  0.44693  0.28674  1.0000
  H   H3978     1.0  0.69072  0.49032  0.43620  1.0000
  H   H3979     1.0  0.66114  0.24370  0.31446  1.0000
  C   C2243     1.0  0.73220  0.38597  0.19875  1.0000
  H   H3980     1.0  0.68597  0.29816  0.44369  1.0000
  H   H3981     1.0  0.63444  0.30354  0.23221  1.0000
  H   H3982     1.0  0.77840  0.48719  0.36902  1.0000
  C   C2244     1.0  0.77053  0.40593  0.18373  1.0000
  C   C2245     1.0  0.75420  0.37719  0.30933  1.0000
  H   H3983     1.0  0.73021  0.42741  0.18807  1.0000
  C   C2246     1.0  0.62923  0.25983  0.32253  1.0000
  C   C2247     1.0  0.74125  0.38925  0.27500  1.0000
  C   C2248     1.0  0.61478  0.10350  0.23806  1.0000
  C   C2249     1.0  0.67832  0.15379  0.20690  1.0000
  S   S495      1.0  0.67317  0.32262  0.47589  1.0000
  H   H3984     1.0  0.65785  0.13809  0.19936  1.0000
  C   C2250     1.0  0.74092  0.12061  0.02438  1.0000
  C   C2251     1.0  0.66764  0.14975  0.19350  1.0000
  H   H3985     1.0  0.73097  0.43128  0.16089  1.0000
  C   C2252     1.0  0.78061  0.46977  0.37227  1.0000
  H   H3986     1.0  0.72164  0.31062  0.24841  1.0000
  C   C2253     1.0  0.64677  0.09266  0.16211  1.0000
  C   C2254     1.0  0.72442  0.38924  0.12637  1.0000
  H   H3987     1.0  0.73293  0.42295  0.43764  1.0000
  H   H3988     1.0  0.62963  0.18323  0.32781  1.0000
  C   C2255     1.0  0.76975  0.20812  0.30704  1.0000
  H   H3989     1.0  0.61996  0.41962  0.40267  1.0000
  H   H3990     1.0  0.65258  0.07540  0.16606  1.0000
  C   C2256     1.0  0.62047  0.44067  0.18925  1.0000
  S   S496      1.0  0.63188  0.21914  0.07854  1.0000
  C   C2257     1.0  0.63771  0.20953  0.36135  1.0000
  Fe  Fe247     1.0  0.63397  0.22706  0.10866  1.0000
  H   H3991     1.0  0.70271  0.33531  0.04407  1.0000
  H   H3992     1.0  0.76900  0.38198  0.16757  1.0000
  C   C2258     1.0  0.77103  0.40639  0.34285  1.0000
  C   C2259     1.0  0.78542  0.12115  0.13432  1.0000
  H   H3993     1.0  0.71126  0.20592  0.31404  1.0000
  H   H3994     1.0  0.69717  0.16126  0.39332  1.0000
  S   S497      1.0  0.61634  0.13638  0.25375  1.0000
  H   H3995     1.0  0.76253  0.39677  0.44080  1.0000
  H   H3996     1.0  0.70314  0.31793  0.02730  1.0000
  C   C2260     1.0  0.59519  0.15477  0.18393  1.0000
  H   H3997     1.0  0.72711  0.46617  0.32107  1.0000
  C   C2261     1.0  0.67009  0.24065  0.23750  1.0000
  H   H3998     1.0  0.72239  0.41688  0.13790  1.0000
  H   H3999     1.0  0.73351  0.27936  0.44617  1.0000
  H   H4000     1.0  0.62901  0.27534  0.45353  1.0000
  H   H4001     1.0  0.70705  0.38371  0.39566  1.0000
  Fe  Fe248     1.0  0.66908  0.46892  0.28708  1.0000
  H   H4002     1.0  0.67076  0.17230  0.33524  1.0000
  H   H4003     1.0  0.77258  0.36619  0.35476  1.0000
  H   H4004     1.0  0.76421  0.40024  0.35941  1.0000
  C   C2262     1.0  0.73360  0.37995  0.34441  1.0000
  C   C2263     1.0  0.74093  0.43186  0.42280  1.0000
  C   C2264     1.0  0.66798  0.29395  0.38694  1.0000
  C   C2265     1.0  0.62476  0.04162  0.01140  1.0000
  H   H4005     1.0  0.67907  0.29890  0.37234  1.0000
  H   H4006     1.0  0.72565  0.39799  0.10983  1.0000
  Fe  Fe249     1.0  0.63695  0.19532  0.27311  1.0000
  S   S498      1.0  0.76523  0.32824  0.27566  1.0000
  H   H4007     1.0  0.70782  0.38801  0.13300  1.0000
  S   S499      1.0  0.75482  0.35974  0.41989  1.0000
  H   H4008     1.0  0.71325  0.21119  0.45118  1.0000
  S   S500      1.0  0.61535  0.22600  0.27810  1.0000
  N   N125      1.0  0.67412  0.27060  0.44545  1.0000
  C   C2266     1.0  0.65699  0.43043  0.40327  1.0000
  H   H4009     1.0  0.72159  0.38944  0.30545  1.0000
  H   H4010     1.0  0.66838  0.22599  0.23379  1.0000
  H   H4011     1.0  0.72951  0.15125  0.99052  1.0000
  H   H4012     1.0  0.69594  0.41537  0.19694  1.0000
  H   H4013     1.0  0.62110  0.37062  0.33721  1.0000
  Fe  Fe250     1.0  0.61548  0.19343  0.09921  1.0000
  H   H4014     1.0  0.63836  0.00231  0.10882  1.0000
  H   H4015     1.0  0.69588  0.41985  0.16941  1.0000
  H   H4016     1.0  0.64381  0.21291  0.17384  1.0000
  C   C2267     1.0  0.77675  0.17246  0.30116  1.0000
  H   H4017     1.0  0.78109  0.34507  0.23212  1.0000
  H   H4018     1.0  0.66546  0.14419  0.37971  1.0000
  C   C2268     1.0  0.63676  0.26723  0.46699  1.0000
  C   C2269     1.0  0.75941  0.40300  0.32707  1.0000
  C   C2270     1.0  0.61588  0.46764  0.47342  1.0000
  C   C2271     1.0  0.71495  0.48548  0.37357  1.0000
  C   C2272     1.0  0.68364  0.19835  0.33680  1.0000
  C   C2273     1.0  0.62079  0.40519  0.29080  1.0000
  C   C2274     1.0  0.79180  0.18487  0.01480  1.0000
  H   H4019     1.0  0.64854  0.21922  0.36220  1.0000
  C   C2275     1.0  0.61636  0.10198  0.04971  1.0000
  H   H4020     1.0  0.66456  0.28195  0.24622  1.0000
  Fe  Fe251     1.0  0.77112  0.30073  0.30200  1.0000
  H   H4021     1.0  0.74323  0.37473  0.37495  1.0000
  C   C2276     1.0  0.60247  0.13102  0.19027  1.0000
  H   H4022     1.0  0.59539  0.16510  0.36243  1.0000
  Fe  Fe252     1.0  0.67588  0.17202  0.24823  1.0000
  H   H4023     1.0  0.70654  0.25374  0.34167  1.0000
  H   H4024     1.0  0.59594  0.40148  0.27888  1.0000
  C   C2277     1.0  0.75860  0.42782  0.46238  1.0000
  H   H4025     1.0  0.76920  0.02348  0.10188  1.0000
  H   H4026     1.0  0.69635  0.45300  0.19364  1.0000
  H   H4027     1.0  0.78131  0.13238  0.17296  1.0000
  H   H4028     1.0  0.69406  0.25648  0.23774  1.0000
  C   C2278     1.0  0.75203  0.13851  0.02369  1.0000
  H   H4029     1.0  0.73922  0.06287  0.10823  1.0000
  C   C2279     1.0  0.65808  0.28713  0.26138  1.0000
  H   H4030     1.0  0.78765  0.39828  0.33981  1.0000
  H   H4031     1.0  0.71031  0.40942  0.42271  1.0000
  H   H4032     1.0  0.63980  0.38636  0.33488  1.0000
  Fe  Fe253     1.0  0.76727  0.25487  0.31938  1.0000
  H   H4033     1.0  0.73119  0.04305  0.34540  1.0000
  H   H4034     1.0  0.75779  0.45508  0.43733  1.0000
  H   H4035     1.0  0.78609  0.18356  0.21707  1.0000
  H   H4036     1.0  0.68478  0.30184  0.40593  1.0000
  H   H4037     1.0  0.77982  0.12957  0.36484  1.0000
  H   H4038     1.0  0.69491  0.24253  0.41518  1.0000
  C   C2280     1.0  0.60563  0.16674  0.34655  1.0000
  H   H4039     1.0  0.61994  0.24364  0.38142  1.0000
  C   C2281     1.0  0.77088  0.36390  0.33958  1.0000
  S   S501      1.0  0.70015  0.17682  0.21837  1.0000
  H   H4040     1.0  0.76744  0.13046  0.02776  1.0000
  C   C2282     1.0  0.62853  0.38140  0.47264  1.0000
  C   C2283     1.0  0.73519  0.42583  0.40441  1.0000
  H   H4041     1.0  0.62475  0.20511  0.39548  1.0000
  H   H4042     1.0  0.76322  0.18499  0.99232  1.0000
  H   H4043     1.0  0.61015  0.19743  0.34570  1.0000
  H   H4044     1.0  0.75045  0.11041  0.01326  1.0000
  H   H4045     1.0  0.69700  0.38583  0.37249  1.0000
  C   C2284     1.0  0.77257  0.40487  0.42689  1.0000
  H   H4046     1.0  0.62854  0.29749  0.28049  1.0000
  C   C2285     1.0  0.78876  0.33654  0.26279  1.0000
  C   C2286     1.0  0.78839  0.14023  0.07249  1.0000
  H   H4047     1.0  0.68355  0.18810  0.01460  1.0000
  H   H4048     1.0  0.70183  0.43745  0.41483  1.0000
  C   C2287     1.0  0.60868  0.23456  0.38036  1.0000
  S   S502      1.0  0.61340  0.32224  0.41516  1.0000
  H   H4049     1.0  0.74358  0.14667  0.03689  1.0000
  H   H4050     1.0  0.64345  0.22097  0.19781  1.0000
  H   H4051     1.0  0.70021  0.24165  0.32371  1.0000
  H   H4052     1.0  0.63586  0.41051  0.28504  1.0000
  H   H4053     1.0  0.72048  0.21023  0.42367  1.0000
  H   H4054     1.0  0.63149  0.21760  0.34692  1.0000
  C   C2288     1.0  0.60980  0.12506  0.12527  1.0000
  H   H4055     1.0  0.77199  0.15757  0.30407  1.0000
  C   C2289     1.0  0.65491  0.01319  0.00447  1.0000
  C   C2290     1.0  0.73745  0.39240  0.29755  1.0000
  C   C2291     1.0  0.71247  0.42327  0.40980  1.0000
  C   C2292     1.0  0.60886  0.41025  0.27306  1.0000
  Fe  Fe254     1.0  0.60783  0.29482  0.35511  1.0000
  C   C2293     1.0  0.78912  0.21095  0.29424  1.0000
  H   H4056     1.0  0.74177  0.42757  0.46528  1.0000
  H   H4057     1.0  0.66160  0.02312  0.01106  1.0000
  H   H4058     1.0  0.62647  0.33829  0.21342  1.0000
  H   H4059     1.0  0.68475  0.23956  0.46310  1.0000
  H   H4060     1.0  0.78247  0.15137  0.40982  1.0000
  H   H4061     1.0  0.75457  0.43791  0.34668  1.0000
  H   H4062     1.0  0.77249  0.15889  0.14526  1.0000
  H   H4063     1.0  0.62070  0.17604  0.20055  1.0000
  H   H4064     1.0  0.77267  0.34620  0.06582  1.0000
  H   H4065     1.0  0.78436  0.08858  0.13583  1.0000
  H   H4066     1.0  0.73005  0.36422  0.34584  1.0000
  H   H4067     1.0  0.77205  0.17131  0.36296  1.0000
  C   C2294     1.0  0.78648  0.33284  0.16912  1.0000
  H   H4068     1.0  0.61653  0.19131  0.17588  1.0000
  H   H4069     1.0  0.66339  0.26682  0.47932  1.0000
  H   H4070     1.0  0.61149  0.16001  0.02928  1.0000
  C   C2295     1.0  0.69982  0.23929  0.43044  1.0000
  H   H4071     1.0  0.69351  0.18931  0.34831  1.0000
  C   C2296     1.0  0.78392  0.04964  0.09763  1.0000
  C   C2297     1.0  0.60935  0.34384  0.21496  1.0000
  C   C2298     1.0  0.62251  0.00585  0.03020  1.0000
  H   H4072     1.0  0.77439  0.05950  0.08609  1.0000
  C   C2299     1.0  0.78991  0.34291  0.06027  1.0000
  C   C2300     1.0  0.71633  0.17321  0.01168  1.0000
  H   H4073     1.0  0.60848  0.16111  0.17298  1.0000
  H   H4074     1.0  0.61795  0.02313  0.14708  1.0000
  H   H4075     1.0  0.78566  0.15385  0.02638  1.0000
  H   H4076     1.0  0.60840  0.46628  0.20542  1.0000
  C   C2301     1.0  0.63896  0.99666  0.18167  1.0000
  H   H4077     1.0  0.60716  0.01326  0.18587  1.0000
  H   H4078     1.0  0.78118  0.18748  0.11611  1.0000
  S   S503      1.0  0.78169  0.25245  0.34677  1.0000
  C   C2302     1.0  0.78534  0.02632  0.09834  1.0000
  H   H4079     1.0  0.62426  0.38793  0.29673  1.0000
  C   C2303     1.0  0.76900  0.46206  0.39454  1.0000
  N   N126      1.0  0.60265  0.31421  0.24806  1.0000
  C   C2304     1.0  0.63700  0.01372  0.11876  1.0000
  H   H4080     1.0  0.77450  0.43027  0.38906  1.0000
  H   H4081     1.0  0.79262  0.19722  0.00021  1.0000
  C   C2305     1.0  0.78570  0.17674  0.07372  1.0000
  H   H4082     1.0  0.79113  0.36847  0.45211  1.0000
  H   H4083     1.0  0.59634  0.27344  0.32736  1.0000
  C   C2306     1.0  0.60747  0.09324  0.07269  1.0000
  H   H4084     1.0  0.75983  0.00739  0.14162  1.0000
  H   H4085     1.0  0.61843  0.09427  0.08202  1.0000
  C   C2307     1.0  0.73469  0.16330  0.99569  1.0000
  H   H4086     1.0  0.77646  0.05367  0.11324  1.0000
  C   C2308     1.0  0.78566  0.07048  0.18798  1.0000
  H   H4087     1.0  0.61639  0.28903  0.48611  1.0000
  S   S504      1.0  0.79050  0.06990  0.32422  1.0000
  H   H4088     1.0  0.63011  0.32305  0.48724  1.0000
  H   H4089     1.0  0.78106  0.08050  0.19935  1.0000
  H   H4090     1.0  0.78200  0.13635  0.12317  1.0000
  H   H4091     1.0  0.78149  0.49202  0.48095  1.0000
  C   C2309     1.0  0.59711  0.33717  0.23778  1.0000
  H   H4092     1.0  0.61104  0.37501  0.21798  1.0000
  Fe  Fe255     1.0  0.59832  0.31961  0.38981  1.0000
  H   H4093     1.0  0.78368  0.01262  0.19645  1.0000
  C   C2310     1.0  0.61521  0.99648  0.18653  1.0000
  H   H4094     1.0  0.78140  0.16925  0.16274  1.0000
  C   C2311     1.0  0.78120  0.18878  0.13225  1.0000
  N   N127      1.0  0.75501  0.15414  0.00311  1.0000
  H   H4095     1.0  0.78313  0.43940  0.43735  1.0000
  H   H4096     1.0  0.60422  0.45749  0.48116  1.0000
  H   H4097     1.0  0.76249  0.34964  0.00086  1.0000
  H   H4098     1.0  0.59559  0.17297  0.33467  1.0000
  H   H4099     1.0  0.60000  0.47704  0.26101  1.0000
  H   H4100     1.0  0.78983  0.99380  0.07832  1.0000
  H   H4101     1.0  0.60381  0.08998  0.11570  1.0000
  H   H4102     1.0  0.59514  0.32175  0.27887  1.0000
  H   H4103     1.0  0.61264  0.14130  0.12222  1.0000
  H   H4104     1.0  0.59639  0.15619  0.21544  1.0000
  C   C2312     1.0  0.77331  0.33499  0.99697  1.0000
  H   H4105     1.0  0.77827  0.43961  0.47615  1.0000
  H   H4106     1.0  0.77431  0.46537  0.36059  1.0000
  C   C2313     1.0  0.60061  0.17105  0.05846  1.0000
  S   S505      1.0  0.79162  0.27029  0.29527  1.0000
  H   H4107     1.0  0.59413  0.27279  0.26093  1.0000
  H   H4108     1.0  0.60430  0.33739  0.20379  1.0000
  H   H4109     1.0  0.59942  0.34724  0.24760  1.0000
  H   H4110     1.0  0.78705  0.29543  0.99592  1.0000
  H   H4111     1.0  0.60430  0.12803  0.09470  1.0000
  C   C2314     1.0  0.59840  0.16252  0.04217  1.0000
  H   H4112     1.0  0.59848  0.27022  0.21490  1.0000
  H   H4113     1.0  0.59653  0.24883  0.23737  1.0000
  H   H4114     1.0  0.79068  0.01782  0.12997  1.0000
  H   H4115     1.0  0.78053  0.19152  0.02783  1.0000
  C   C2315     1.0  0.78534  0.16580  0.01160  1.0000
  H   H4116     1.0  0.60702  0.26555  0.48871  1.0000
  H   H4117     1.0  0.78031  0.01671  0.99266  1.0000
  H   H4118     1.0  0.79097  0.14007  0.22194  1.0000
  C   C2316     1.0  0.62240  0.01654  0.99173  1.0000
  C   C2317     1.0  0.61752  0.48030  0.48871  1.0000
  H   H4119     1.0  0.59406  0.32845  0.48911  1.0000
  H   H4120     1.0  0.75750  0.28031  0.99037  1.0000
  H   H4121     1.0  0.79257  0.43492  0.40154  1.0000
  H   H4122     1.0  0.63570  0.40108  0.48926  1.0000
  Fe  Fe256     1.0  0.70168  0.01364  0.92697  1.0000
  Fe  Fe257     1.0  0.72012  0.05076  0.90017  1.0000
  S   S506      1.0  0.75308  0.03276  0.89906  1.0000
  S   S507      1.0  0.71699  0.08436  0.88277  1.0000
  H   H4123     1.0  0.68352  0.29951  0.51608  1.0000
  H   H4124     1.0  0.60025  0.15195  0.78620  1.0000
  Fe  Fe258     1.0  0.74225  0.02122  0.93364  1.0000
  S   S508      1.0  0.70855  0.02588  0.89207  1.0000
  S   S509      1.0  0.70979  0.04074  0.93514  1.0000
  C   C2318     1.0  0.74583  0.04716  0.83666  1.0000
  H   H4125     1.0  0.63948  0.02158  0.72912  1.0000
  H   H4126     1.0  0.72570  0.08506  0.94006  1.0000
  C   C2319     1.0  0.64554  0.10087  0.93109  1.0000
  C   C2320     1.0  0.67375  0.11180  0.94140  1.0000
  H   H4127     1.0  0.61521  0.36278  0.51212  1.0000
  C   C2321     1.0  0.71321  0.04746  0.82412  1.0000
  H   H4128     1.0  0.66337  0.42938  0.51782  1.0000
  H   H4129     1.0  0.70059  0.06332  0.78234  1.0000
  H   H4130     1.0  0.65373  0.12735  0.89564  1.0000
  S   S510      1.0  0.60233  0.11343  0.81853  1.0000
  H   H4131     1.0  0.60845  0.40235  0.49217  1.0000
  C   C2322     1.0  0.78641  0.04787  0.98821  1.0000
  H   H4132     1.0  0.60478  0.21969  0.80136  1.0000
  H   H4133     1.0  0.60656  0.01778  0.85149  1.0000
  H   H4134     1.0  0.69576  0.16088  0.87194  1.0000
  S   S511      1.0  0.67393  0.99865  0.94371  1.0000
  S   S512      1.0  0.65464  0.02097  0.78282  1.0000
  H   H4135     1.0  0.74530  0.99575  0.79195  1.0000
  C   C2323     1.0  0.60497  0.02061  0.90156  1.0000
  H   H4136     1.0  0.60703  0.21436  0.74108  1.0000
  C   C2324     1.0  0.69435  0.35773  0.58078  1.0000
  S   S513      1.0  0.73608  0.35660  0.52248  1.0000
  H   H4137     1.0  0.59952  0.17455  0.80485  1.0000
  H   H4138     1.0  0.67811  0.11155  0.89915  1.0000
  H   H4139     1.0  0.69864  0.19298  0.98822  1.0000
  C   C2325     1.0  0.66903  0.07991  0.78221  1.0000
  S   S514      1.0  0.60944  0.47993  0.55672  1.0000
  Fe  Fe259     1.0  0.62607  0.11848  0.83361  1.0000
  S   S515      1.0  0.65910  0.11882  0.81625  1.0000
  C   C2326     1.0  0.70704  0.01768  0.81188  1.0000
  H   H4140     1.0  0.60834  0.30483  0.51860  1.0000
  H   H4141     1.0  0.64294  0.12951  0.96864  1.0000
  S   S516      1.0  0.61750  0.27969  0.55742  1.0000
  C   C2327     1.0  0.61827  0.17423  0.76383  1.0000
  H   H4142     1.0  0.63658  0.09734  0.94739  1.0000
  H   H4143     1.0  0.62651  0.16726  0.96064  1.0000
  H   H4144     1.0  0.67625  0.12582  0.94579  1.0000
  H   H4145     1.0  0.67167  0.04199  0.80652  1.0000
  H   H4146     1.0  0.69507  0.00945  0.81084  1.0000
  C   C2328     1.0  0.59476  0.38194  0.54170  1.0000
  H   H4147     1.0  0.66985  0.08098  0.91147  1.0000
  H   H4148     1.0  0.63658  0.07116  0.91301  1.0000
  H   H4149     1.0  0.69557  0.42362  0.48933  1.0000
  C   C2329     1.0  0.69588  0.10071  0.93157  1.0000
  C   C2330     1.0  0.66929  0.17149  0.80678  1.0000
  H   H4150     1.0  0.70351  0.08042  0.96077  1.0000
  H   H4151     1.0  0.71894  0.33508  0.98092  1.0000
  H   H4152     1.0  0.64847  0.34740  0.67896  1.0000
  H   H4153     1.0  0.66584  0.06891  0.77404  1.0000
  Fe  Fe260     1.0  0.63654  0.45154  0.62219  1.0000
  S   S517      1.0  0.65115  0.46637  0.58988  1.0000
  H   H4154     1.0  0.60284  0.43787  0.56373  1.0000
  Fe  Fe261     1.0  0.63194  0.41313  0.60740  1.0000
  S   S518      1.0  0.64639  0.42529  0.57393  1.0000
  S   S519      1.0  0.62459  0.38037  0.61527  1.0000
  Fe  Fe262     1.0  0.66942  0.43394  0.58742  1.0000
  S   S520      1.0  0.70400  0.42864  0.57459  1.0000
  Fe  Fe263     1.0  0.62678  0.45640  0.57963  1.0000
  S   S521      1.0  0.65672  0.41953  0.62080  1.0000
  S   S522      1.0  0.61034  0.44380  0.61213  1.0000
  H   H4155     1.0  0.61289  0.00489  0.72431  1.0000
  C   C2331     1.0  0.74325  0.31030  0.62197  1.0000
  C   C2332     1.0  0.60306  0.35414  0.60787  1.0000
  H   H4156     1.0  0.71136  0.35132  0.57805  1.0000
  C   C2333     1.0  0.67188  0.47315  0.63929  1.0000
  H   H4157     1.0  0.78732  0.37373  0.98667  1.0000
  H   H4158     1.0  0.77969  0.48743  0.63765  1.0000
  H   H4159     1.0  0.65839  0.32691  0.55519  1.0000
  H   H4160     1.0  0.67451  0.46295  0.62832  1.0000
  H   H4161     1.0  0.66923  0.32482  0.65353  1.0000
  C   C2334     1.0  0.67559  0.14467  0.89829  1.0000
  C   C2335     1.0  0.64489  0.06465  0.92630  1.0000
  C   C2336     1.0  0.64231  0.34651  0.66543  1.0000
  C   C2337     1.0  0.64861  0.49239  0.66498  1.0000
  H   H4162     1.0  0.62727  0.13880  0.74560  1.0000
  H   H4163     1.0  0.74390  0.46618  0.65104  1.0000
  C   C2338     1.0  0.75558  0.48734  0.62225  1.0000
  H   H4164     1.0  0.61569  0.34164  0.61251  1.0000
  H   H4165     1.0  0.69012  0.38704  0.60876  1.0000
  S   S523      1.0  0.68548  0.36614  0.49880  1.0000
  H   H4166     1.0  0.65865  0.01408  0.88185  1.0000
  H   H4167     1.0  0.73692  0.17599  0.98148  1.0000
  H   H4168     1.0  0.71319  0.45136  0.49060  1.0000
  C   C2339     1.0  0.65468  0.29058  0.53470  1.0000
  C   C2340     1.0  0.63341  0.29216  0.53539  1.0000
  H   H4169     1.0  0.68030  0.35755  0.65344  1.0000
  S   S524      1.0  0.59364  0.13437  0.90351  1.0000
  H   H4170     1.0  0.62196  0.00326  0.95571  1.0000
  H   H4171     1.0  0.66155  0.28135  0.54789  1.0000
  H   H4172     1.0  0.63054  0.24023  0.72988  1.0000
  C   C2341     1.0  0.72784  0.37826  0.53485  1.0000
  C   C2342     1.0  0.70913  0.39268  0.53246  1.0000
  C   C2343     1.0  0.70168  0.40840  0.54451  1.0000
  C   C2344     1.0  0.71335  0.41015  0.55830  1.0000
  C   C2345     1.0  0.73261  0.39651  0.55967  1.0000
  C   C2346     1.0  0.73963  0.38034  0.54831  1.0000
  H   H4173     1.0  0.70001  0.39124  0.52198  1.0000
  H   H4174     1.0  0.68693  0.41907  0.54322  1.0000
  H   H4175     1.0  0.74186  0.39805  0.56999  1.0000
  H   H4176     1.0  0.75417  0.36934  0.55004  1.0000
  C   C2347     1.0  0.75255  0.33558  0.97145  1.0000
  H   H4177     1.0  0.65404  0.39668  0.51427  1.0000
  S   S525      1.0  0.63027  0.47013  0.64777  1.0000
  H   H4178     1.0  0.73388  0.31356  0.96900  1.0000
  C   C2348     1.0  0.62683  0.01853  0.82089  1.0000
  C   C2349     1.0  0.63403  0.03121  0.80164  1.0000
  C   C2350     1.0  0.62506  0.05260  0.79751  1.0000
  C   C2351     1.0  0.68678  0.06895  0.79391  1.0000
  H   H4179     1.0  0.63318  0.00190  0.82400  1.0000
  H   H4180     1.0  0.65076  0.05303  0.98677  1.0000
  H   H4181     1.0  0.62989  0.06232  0.78235  1.0000
  H   H4182     1.0  0.66822  0.10136  0.95654  1.0000
  H   H4183     1.0  0.70364  0.11177  0.91845  1.0000
  C   C2352     1.0  0.61165  0.02753  0.83644  1.0000
  C   C2353     1.0  0.69028  0.14574  0.87679  1.0000
  C   C2354     1.0  0.66021  0.34052  0.64749  1.0000
  C   C2355     1.0  0.68697  0.02717  0.84503  1.0000
  H   H4184     1.0  0.64293  0.33379  0.57981  1.0000
  C   C2356     1.0  0.70221  0.09171  0.86316  1.0000
  C   C2357     1.0  0.68527  0.08247  0.86488  1.0000
  C   C2358     1.0  0.67235  0.09029  0.85006  1.0000
  C   C2359     1.0  0.67638  0.10728  0.83354  1.0000
  C   C2360     1.0  0.69404  0.11561  0.83120  1.0000
  C   C2361     1.0  0.70679  0.10800  0.84611  1.0000
  H   H4185     1.0  0.68187  0.06963  0.87783  1.0000
  H   H4186     1.0  0.65949  0.08297  0.85129  1.0000
  H   H4187     1.0  0.69755  0.12841  0.81826  1.0000
  H   H4188     1.0  0.72006  0.11498  0.84462  1.0000
  H   H4189     1.0  0.75733  0.30618  0.60983  1.0000
  C   C2362     1.0  0.66988  0.48892  0.51545  1.0000
  N   N128      1.0  0.69217  0.35371  0.62109  1.0000
  C   C2363     1.0  0.68511  0.35079  0.56573  1.0000
  H   H4190     1.0  0.64128  0.20409  0.75257  1.0000
  C   C2364     1.0  0.60952  0.22170  0.75308  1.0000
  H   H4191     1.0  0.62870  0.14166  0.92568  1.0000
  H   H4192     1.0  0.78992  0.30856  0.96930  1.0000
  Fe  Fe264     1.0  0.59515  0.12476  0.87359  1.0000
  C   C2365     1.0  0.66609  0.12455  0.90494  1.0000
  H   H4193     1.0  0.63659  0.43814  0.53010  1.0000
  C   C2366     1.0  0.63686  0.31422  0.50060  1.0000
  H   H4194     1.0  0.62739  0.33756  0.53945  1.0000
  C   C2367     1.0  0.72772  0.32844  0.61190  1.0000
  C   C2368     1.0  0.64267  0.32828  0.56564  1.0000
  H   H4195     1.0  0.73008  0.03374  0.78750  1.0000
  C   C2369     1.0  0.62676  0.20723  0.76467  1.0000
  H   H4196     1.0  0.64095  0.36532  0.51034  1.0000
  H   H4197     1.0  0.68211  0.14462  0.86480  1.0000
  H   H4198     1.0  0.77359  0.08864  0.94880  1.0000
  N   N129      1.0  0.65724  0.11826  0.92813  1.0000
  H   H4199     1.0  0.61094  0.34208  0.56412  1.0000
  H   H4200     1.0  0.70433  0.47512  0.63346  1.0000
  H   H4201     1.0  0.66397  0.37283  0.63562  1.0000
  H   H4202     1.0  0.62820  0.26445  0.50109  1.0000
  C   C2370     1.0  0.63105  0.13433  0.95866  1.0000
  S   S526      1.0  0.61742  0.09639  0.86402  1.0000
  H   H4203     1.0  0.73251  0.39651  0.60758  1.0000
  H   H4204     1.0  0.65292  0.99663  0.74168  1.0000
  C   C2371     1.0  0.62454  0.37434  0.51219  1.0000
  H   H4205     1.0  0.66514  0.46524  0.54430  1.0000
  S   S527      1.0  0.60564  0.14729  0.84427  1.0000
  H   H4206     1.0  0.78598  0.13144  0.94780  1.0000
  H   H4207     1.0  0.66099  0.01674  0.98715  1.0000
  H   H4208     1.0  0.69195  0.37515  0.57666  1.0000
  C   C2372     1.0  0.62556  0.99388  0.98834  1.0000
  C   C2373     1.0  0.65381  0.18628  0.79384  1.0000
  C   C2374     1.0  0.72688  0.34266  0.94733  1.0000
  C   C2375     1.0  0.60213  0.18988  0.79469  1.0000
  H   H4209     1.0  0.75944  0.03681  0.84302  1.0000
  C   C2376     1.0  0.76733  0.05753  0.95337  1.0000
  H   H4210     1.0  0.68255  0.03940  0.85483  1.0000
  C   C2377     1.0  0.64138  0.13697  0.93488  1.0000
  C   C2378     1.0  0.66168  0.00476  0.86948  1.0000
  H   H4211     1.0  0.68726  0.33337  0.56905  1.0000
  H   H4212     1.0  0.73618  0.29614  0.62887  1.0000
  H   H4213     1.0  0.66866  0.00865  0.83607  1.0000
  H   H4214     1.0  0.66753  0.07158  0.93951  1.0000
  C   C2379     1.0  0.73319  0.00286  0.78226  1.0000
  C   C2380     1.0  0.62642  0.34332  0.55382  1.0000
  H   H4215     1.0  0.71458  0.37196  0.60002  1.0000
  H   H4216     1.0  0.63233  0.33450  0.67073  1.0000
  H   H4217     1.0  0.66691  0.36053  0.60433  1.0000
  H   H4218     1.0  0.65457  0.08548  0.79329  1.0000
  H   H4219     1.0  0.63866  0.31242  0.57078  1.0000
  H   H4220     1.0  0.63170  0.17320  0.75021  1.0000
  H   H4221     1.0  0.71996  0.05614  0.80852  1.0000
  H   H4222     1.0  0.61426  0.01564  0.88686  1.0000
  H   H4223     1.0  0.72390  0.32308  0.59924  1.0000
  H   H4224     1.0  0.72457  0.35989  0.94624  1.0000
  C   C2381     1.0  0.70756  0.33417  0.62821  1.0000
  H   H4225     1.0  0.73580  0.34184  0.60491  1.0000
  H   H4226     1.0  0.62108  0.12245  0.96355  1.0000
  H   H4227     1.0  0.67915  0.18060  0.81038  1.0000
  C   C2382     1.0  0.78461  0.06826  0.97590  1.0000
  H   H4228     1.0  0.66286  0.15887  0.89711  1.0000
  C   C2383     1.0  0.77739  0.15683  0.96523  1.0000
  C   C2384     1.0  0.65875  0.07936  0.92676  1.0000
  C   C2385     1.0  0.70992  0.09250  0.94774  1.0000
  C   C2386     1.0  0.75345  0.46531  0.63505  1.0000
  H   H4229     1.0  0.72747  0.40099  0.63389  1.0000
  C   C2387     1.0  0.60363  0.04921  0.83268  1.0000
  C   C2388     1.0  0.68879  0.48007  0.64224  1.0000
  H   H4230     1.0  0.75171  0.05736  0.82158  1.0000
  H   H4231     1.0  0.70854  0.02999  0.77830  1.0000
  H   H4232     1.0  0.66818  0.05926  0.82380  1.0000
  N   N130      1.0  0.62179  0.18664  0.77812  1.0000
  H   H4233     1.0  0.62806  0.14194  0.78170  1.0000
  C   C2389     1.0  0.66696  0.01842  0.84764  1.0000
  N   N131      1.0  0.61767  0.38171  0.53284  1.0000
  H   H4234     1.0  0.74216  0.02323  0.82263  1.0000
  H   H4235     1.0  0.64877  0.15085  0.93146  1.0000
  H   H4236     1.0  0.67966  0.15962  0.79784  1.0000
  H   H4237     1.0  0.63239  0.36197  0.66005  1.0000
  H   H4238     1.0  0.64756  0.99852  0.87074  1.0000
  C   C2390     1.0  0.64013  0.17393  0.78806  1.0000
  C   C2391     1.0  0.70186  0.37303  0.61409  1.0000
  C   C2392     1.0  0.61491  0.15151  0.77417  1.0000
  N   N132      1.0  0.69712  0.03596  0.82277  1.0000
  H   H4239     1.0  0.60222  0.07765  0.80912  1.0000
  H   H4240     1.0  0.62961  0.02572  0.97651  1.0000
  H   H4241     1.0  0.66307  0.19441  0.77927  1.0000
  H   H4242     1.0  0.73682  0.05714  0.84816  1.0000
  C   C2393     1.0  0.71116  0.37824  0.63067  1.0000
  C   C2394     1.0  0.73222  0.03362  0.83341  1.0000
  H   H4243     1.0  0.69067  0.08096  0.80026  1.0000
  H   H4244     1.0  0.72737  0.02355  0.84880  1.0000
  H   H4245     1.0  0.76436  0.33509  0.95652  1.0000
  H   H4246     1.0  0.60480  0.16064  0.95414  1.0000
  H   H4247     1.0  0.67352  0.09374  0.77032  1.0000
  C   C2395     1.0  0.71956  0.02287  0.78918  1.0000
  H   H4248     1.0  0.65135  0.16403  0.77734  1.0000
  H   H4249     1.0  0.65128  0.39883  0.54091  1.0000
  H   H4250     1.0  0.76028  0.06130  0.93975  1.0000
  H   H4251     1.0  0.76525  0.48539  0.60659  1.0000
  H   H4252     1.0  0.61422  0.40862  0.54647  1.0000
  H   H4253     1.0  0.76401  0.16490  0.95747  1.0000
  H   H4254     1.0  0.74824  0.31491  0.63443  1.0000
  C   C2396     1.0  0.65212  0.48534  0.50673  1.0000
  C   C2397     1.0  0.61284  0.14007  0.75802  1.0000
  H   H4255     1.0  0.64680  0.36553  0.54241  1.0000
  C   C2398     1.0  0.64462  0.40539  0.52651  1.0000
  C   C2399     1.0  0.64696  0.42832  0.51899  1.0000
  H   H4256     1.0  0.61340  0.41527  0.51956  1.0000
  H   H4257     1.0  0.68141  0.33430  0.60625  1.0000
  H   H4258     1.0  0.70558  0.05985  0.83348  1.0000
  H   H4259     1.0  0.69819  0.01425  0.85263  1.0000
  H   H4260     1.0  0.62596  0.37200  0.56357  1.0000
  C   C2400     1.0  0.60976  0.06148  0.81290  1.0000
  H   H4261     1.0  0.62692  0.00819  0.75411  1.0000
  H   H4262     1.0  0.63034  0.21682  0.77405  1.0000
  C   C2401     1.0  0.76917  0.03712  0.96564  1.0000
  H   H4263     1.0  0.76402  0.29272  0.96285  1.0000
  H   H4264     1.0  0.60326  0.25267  0.73317  1.0000
  H   H4265     1.0  0.69905  0.38121  0.64478  1.0000
  H   H4266     1.0  0.73947  0.33794  0.93411  1.0000
  H   H4267     1.0  0.63321  0.06239  0.94123  1.0000
  C   C2402     1.0  0.62141  0.40338  0.53132  1.0000
  C   C2403     1.0  0.76992  0.28634  0.97763  1.0000
  H   H4268     1.0  0.59918  0.14849  0.75073  1.0000
  C   C2404     1.0  0.79264  0.34194  0.98103  1.0000
  H   H4269     1.0  0.70777  0.41199  0.61830  1.0000
  C   C2405     1.0  0.62456  0.30407  0.51837  1.0000
  C   C2406     1.0  0.77806  0.30339  0.98331  1.0000
  C   C2407     1.0  0.68305  0.35094  0.60379  1.0000
  S   S528      1.0  0.75993  0.01698  0.95975  1.0000
  C   C2408     1.0  0.73241  0.33050  0.96839  1.0000
  H   H4270     1.0  0.60588  0.03724  0.90028  1.0000
  H   H4271     1.0  0.71206  0.33523  0.64269  1.0000
  H   H4272     1.0  0.74836  0.35246  0.97271  1.0000
  C   C2409     1.0  0.77874  0.03243  0.98308  1.0000
  C   C2410     1.0  0.66701  0.30102  0.51688  1.0000
  H   H4273     1.0  0.62213  0.46900  0.50269  1.0000
  C   C2411     1.0  0.77004  0.14285  0.98679  1.0000
  H   H4274     1.0  0.74553  0.45780  0.62715  1.0000
  C   C2412     1.0  0.60345  0.37507  0.60765  1.0000
  C   C2413     1.0  0.67436  0.35719  0.63957  1.0000
  H   H4275     1.0  0.70015  0.32018  0.63287  1.0000
  H   H4276     1.0  0.69302  0.35592  0.54927  1.0000
  H   H4277     1.0  0.61041  0.12392  0.76593  1.0000
  H   H4278     1.0  0.61288  0.19618  0.82020  1.0000
  H   H4279     1.0  0.63638  0.09051  0.98433  1.0000
  H   H4280     1.0  0.71215  0.33916  0.94582  1.0000
  C   C2414     1.0  0.77496  0.07298  0.95851  1.0000
  H   H4281     1.0  0.71158  0.10557  0.95419  1.0000
  H   H4282     1.0  0.75524  0.43212  0.49409  1.0000
  H   H4283     1.0  0.68330  0.49213  0.50246  1.0000
  H   H4284     1.0  0.68439  0.14550  0.90986  1.0000
  H   H4285     1.0  0.78517  0.16889  0.96689  1.0000
  H   H4286     1.0  0.64094  0.47847  0.52038  1.0000
  H   H4287     1.0  0.65472  0.04902  0.92417  1.0000
  H   H4288     1.0  0.76907  0.45528  0.63643  1.0000
  H   H4289     1.0  0.72392  0.36519  0.63548  1.0000
  H   H4290     1.0  0.61193  0.01049  0.91496  1.0000
  C   C2415     1.0  0.72029  0.39812  0.62198  1.0000
  C   C2416     1.0  0.68018  0.05095  0.81223  1.0000
  Fe  Fe265     1.0  0.74072  0.00675  0.89359  1.0000
  H   H4291     1.0  0.70418  0.13271  0.87754  1.0000
  H   H4292     1.0  0.65305  0.33911  0.63487  1.0000
  H   H4293     1.0  0.69536  0.08724  0.92528  1.0000
  C   C2417     1.0  0.62973  0.36639  0.54849  1.0000
  H   H4294     1.0  0.63370  0.10612  0.92093  1.0000
  H   H4295     1.0  0.65338  0.03159  0.84554  1.0000
  H   H4296     1.0  0.66825  0.35803  0.56734  1.0000
  C   C2418     1.0  0.67795  0.46934  0.53093  1.0000
  H   H4297     1.0  0.60412  0.18227  0.75716  1.0000
  H   H4298     1.0  0.69046  0.47227  0.53720  1.0000
  H   H4299     1.0  0.63471  0.16247  0.80243  1.0000
  H   H4300     1.0  0.74112  0.00670  0.76554  1.0000
  H   H4301     1.0  0.71743  0.00557  0.82137  1.0000
  H   H4302     1.0  0.68457  0.45577  0.52301  1.0000
  H   H4303     1.0  0.66089  0.16324  0.82186  1.0000
  H   H4304     1.0  0.59797  0.99983  0.97473  1.0000
  C   C2419     1.0  0.65172  0.47914  0.65077  1.0000
  H   H4305     1.0  0.64314  0.43450  0.50316  1.0000
  C   C2420     1.0  0.78756  0.26744  0.97383  1.0000
  H   H4306     1.0  0.65970  0.47242  0.49791  1.0000
  H   H4307     1.0  0.76299  0.13098  0.98352  1.0000
  H   H4308     1.0  0.78152  0.25551  0.96948  1.0000
  H   H4309     1.0  0.64440  0.19830  0.80293  1.0000
  C   C2421     1.0  0.65802  0.31262  0.49976  1.0000
  C   C2422     1.0  0.61568  0.24274  0.74159  1.0000
  C   C2423     1.0  0.61710  0.15497  0.96370  1.0000
  H   H4310     1.0  0.62592  0.05959  0.97901  1.0000
  C   C2424     1.0  0.62379  0.39146  0.49178  1.0000
  H   H4311     1.0  0.59600  0.06449  0.75546  1.0000
  H   H4312     1.0  0.60167  0.48947  0.49393  1.0000
  C   C2425     1.0  0.62797  0.99468  0.72734  1.0000
  S   S529      1.0  0.73328  0.99306  0.92813  1.0000
  C   C2426     1.0  0.60148  0.20403  0.80990  1.0000
  H   H4313     1.0  0.63890  0.99331  0.71212  1.0000
  H   H4314     1.0  0.60934  0.15244  0.98058  1.0000
  H   H4315     1.0  0.61757  0.25134  0.75292  1.0000
  H   H4316     1.0  0.59448  0.22515  0.76425  1.0000
  C   C2427     1.0  0.63738  0.00588  0.73882  1.0000
  H   H4317     1.0  0.78935  0.34817  0.96500  1.0000
  C   C2428     1.0  0.61506  0.99362  0.97075  1.0000
  Fe  Fe266     1.0  0.72023  0.36026  0.49590  1.0000
  H   H4318     1.0  0.61512  0.56778  0.42644  1.0000
  C   C2429     1.0  0.64124  0.61214  0.45955  1.0000
  S   S530      1.0  0.70029  0.86638  0.00985  1.0000
  H   H4319     1.0  0.72835  0.79095  0.47782  1.0000
  H   H4320     1.0  0.60172  0.86232  0.00888  1.0000
  H   H4321     1.0  0.61042  0.61199  0.42795  1.0000
  S   S531      1.0  0.66920  0.49811  0.26219  1.0000
  H   H4322     1.0  0.68420  0.50674  0.33955  1.0000
  C   C2430     1.0  0.62639  0.92584  0.19160  1.0000
  H   H4323     1.0  0.73311  0.98754  0.16334  1.0000
  H   H4324     1.0  0.68133  0.83543  0.04181  1.0000
  H   H4325     1.0  0.60465  0.51943  0.41674  1.0000
  H   H4326     1.0  0.62734  0.98885  0.03007  1.0000
  H   H4327     1.0  0.59971  0.82115  0.11550  1.0000
  C   C2431     1.0  0.62161  0.62273  0.42024  1.0000
  H   H4328     1.0  0.61769  0.63854  0.46623  1.0000
  C   C2432     1.0  0.62042  0.62720  0.45581  1.0000
  S   S532      1.0  0.64143  0.60825  0.32865  1.0000
  H   H4329     1.0  0.65664  0.56757  0.31938  1.0000
  C   C2433     1.0  0.60514  0.87511  0.01448  1.0000
  H   H4330     1.0  0.75514  0.50332  0.47665  1.0000
  H   H4331     1.0  0.59453  0.95440  0.03406  1.0000
  C   C2434     1.0  0.68237  0.53957  0.34033  1.0000
  H   H4332     1.0  0.65607  0.49928  0.36934  1.0000
  S   S533      1.0  0.60944  0.78867  0.04688  1.0000
  H   H4333     1.0  0.59802  0.53749  0.25991  1.0000
  H   H4334     1.0  0.77889  0.97742  0.26647  1.0000
  H   H4335     1.0  0.70016  0.88945  0.04045  1.0000
  H   H4336     1.0  0.64207  0.91544  0.19159  1.0000
  H   H4337     1.0  0.63187  0.51576  0.24557  1.0000
  H   H4338     1.0  0.61555  0.97964  0.14149  1.0000
  C   C2435     1.0  0.62037  0.98887  0.15047  1.0000
  C   C2436     1.0  0.65440  0.81987  0.05241  1.0000
  C   C2437     1.0  0.77876  0.98267  0.12469  1.0000
  C   C2438     1.0  0.60850  0.54061  0.28649  1.0000
  C   C2439     1.0  0.71769  0.50968  0.28207  1.0000
  H   H4339     1.0  0.77720  0.50675  0.45541  1.0000
  H   H4340     1.0  0.77057  0.98380  0.15860  1.0000
  H   H4341     1.0  0.63209  0.62393  0.38643  1.0000
  H   H4342     1.0  0.69668  0.97071  0.01192  1.0000
  H   H4343     1.0  0.60651  0.50833  0.35883  1.0000
  Fe  Fe267     1.0  0.72153  0.51633  0.43530  1.0000
  Fe  Fe268     1.0  0.70757  0.55968  0.41062  1.0000
  S   S534      1.0  0.73791  0.55900  0.38714  1.0000
  S   S535      1.0  0.68057  0.58712  0.40933  1.0000
  Fe  Fe269     1.0  0.73484  0.52606  0.38784  1.0000
  H   H4344     1.0  0.63873  0.94910  0.16663  1.0000
  Fe  Fe270     1.0  0.75283  0.54492  0.41541  1.0000
  S   S536      1.0  0.70343  0.52790  0.40939  1.0000
  S   S537      1.0  0.72259  0.54835  0.43879  1.0000
  H   H4345     1.0  0.64872  0.98108  0.17996  1.0000
  H   H4346     1.0  0.66500  0.83284  0.08366  1.0000
  S   S538      1.0  0.74106  0.51423  0.35762  1.0000
  H   H4347     1.0  0.65507  0.56311  0.27085  1.0000
  C   C2440     1.0  0.72506  0.58372  0.32710  1.0000
  S   S539      1.0  0.70196  0.96540  0.19902  1.0000
  H   H4348     1.0  0.62985  0.66666  0.41359  1.0000
  H   H4349     1.0  0.60378  0.67811  0.44510  1.0000
  H   H4350     1.0  0.64663  0.60075  0.44901  1.0000
  Fe  Fe271     1.0  0.63280  0.94291  0.07462  1.0000
  S   S540      1.0  0.65105  0.91767  0.09565  1.0000
  S   S541      1.0  0.63726  0.94505  0.04002  1.0000
  H   H4351     1.0  0.64846  0.52655  0.37164  1.0000
  S   S542      1.0  0.61922  0.93691  0.13514  1.0000
  Fe  Fe272     1.0  0.64935  0.94296  0.11314  1.0000
  S   S543      1.0  0.67634  0.95455  0.11813  1.0000
  Fe  Fe273     1.0  0.61915  0.91419  0.11521  1.0000
  H   H4352     1.0  0.65349  0.62137  0.45718  1.0000
  S   S544      1.0  0.63378  0.96845  0.08986  1.0000
  H   H4353     1.0  0.76837  0.98779  0.30124  1.0000
  C   C2441     1.0  0.69300  0.96341  0.17710  1.0000
  C   C2442     1.0  0.68720  0.94467  0.17716  1.0000
  C   C2443     1.0  0.68104  0.94211  0.15957  1.0000
  C   C2444     1.0  0.68071  0.95827  0.14171  1.0000
  C   C2445     1.0  0.68638  0.97706  0.14172  1.0000
  C   C2446     1.0  0.69209  0.97980  0.15946  1.0000
  H   H4354     1.0  0.68792  0.93188  0.19070  1.0000
  H   H4355     1.0  0.67730  0.92733  0.15953  1.0000
  H   H4356     1.0  0.61087  0.98866  0.20330  1.0000
  H   H4357     1.0  0.66394  0.62702  0.42257  1.0000
  C   C2447     1.0  0.66132  0.55223  0.45434  1.0000
  C   C2448     1.0  0.76540  0.58707  0.43644  1.0000
  S   S545      1.0  0.75278  0.51181  0.41373  1.0000
  C   C2449     1.0  0.70577  0.53691  0.30530  1.0000
  C   C2450     1.0  0.63898  0.59943  0.48210  1.0000
  H   H4358     1.0  0.68442  0.58125  0.32592  1.0000
  H   H4359     1.0  0.59864  0.96153  0.19841  1.0000
  H   H4360     1.0  0.67261  0.59078  0.28958  1.0000
  H   H4361     1.0  0.59852  0.52541  0.33563  1.0000
  H   H4362     1.0  0.66314  0.54658  0.30636  1.0000
  H   H4363     1.0  0.70924  0.56021  0.34798  1.0000
  C   C2451     1.0  0.61063  0.86685  0.03622  1.0000
  H   H4364     1.0  0.61834  0.92056  0.18193  1.0000
  H   H4365     1.0  0.77250  0.95978  0.30347  1.0000
  H   H4366     1.0  0.63703  0.61188  0.41942  1.0000
  H   H4367     1.0  0.73746  0.57981  0.33644  1.0000
  C   C2452     1.0  0.62890  0.94864  0.18259  1.0000
  H   H4368     1.0  0.62021  0.64894  0.39207  1.0000
  C   C2453     1.0  0.65198  0.60174  0.35135  1.0000
  C   C2454     1.0  0.64505  0.58690  0.36894  1.0000
  C   C2455     1.0  0.65440  0.58168  0.38658  1.0000
  C   C2456     1.0  0.67053  0.59141  0.38662  1.0000
  C   C2457     1.0  0.67743  0.60614  0.36901  1.0000
  C   C2458     1.0  0.66826  0.61119  0.35140  1.0000
  H   H4369     1.0  0.63251  0.57952  0.36896  1.0000
  H   H4370     1.0  0.64889  0.57046  0.40031  1.0000
  H   H4371     1.0  0.68973  0.61381  0.36907  1.0000
  H   H4372     1.0  0.67370  0.62260  0.33779  1.0000
  H   H4373     1.0  0.59885  0.61244  0.39477  1.0000
  C   C2459     1.0  0.63298  0.49550  0.47819  1.0000
  H   H4374     1.0  0.71647  0.52637  0.31547  1.0000
  H   H4375     1.0  0.70302  0.57796  0.30254  1.0000
  H   H4376     1.0  0.61733  0.92414  0.20802  1.0000
  C   C2460     1.0  0.59785  0.65226  0.43381  1.0000
  H   H4377     1.0  0.75709  0.72757  0.45560  1.0000
  H   H4378     1.0  0.65961  0.97841  0.00866  1.0000
  H   H4379     1.0  0.77545  0.68681  0.46788  1.0000
  C   C2461     1.0  0.65196  0.84666  0.08445  1.0000
  H   H4380     1.0  0.63247  0.54816  0.47510  1.0000
  C   C2462     1.0  0.64372  0.85448  0.06380  1.0000
  C   C2463     1.0  0.64629  0.51540  0.27079  1.0000
  C   C2464     1.0  0.62996  0.52126  0.25988  1.0000
  H   H4381     1.0  0.66686  0.55799  0.46566  1.0000
  H   H4382     1.0  0.78038  0.70881  0.42114  1.0000
  C   C2465     1.0  0.62515  0.53544  0.29692  1.0000
  C   C2466     1.0  0.64374  0.52219  0.28947  1.0000
  H   H4383     1.0  0.59684  0.86131  0.04709  1.0000
  H   H4384     1.0  0.75335  0.61680  0.44635  1.0000
  H   H4385     1.0  0.62354  0.54110  0.31103  1.0000
  H   H4386     1.0  0.65608  0.51709  0.29822  1.0000
  C   C2467     1.0  0.62019  0.79969  0.02096  1.0000
  C   C2468     1.0  0.60691  0.81269  0.00799  1.0000
  C   C2469     1.0  0.64538  0.53847  0.46570  1.0000
  H   H4387     1.0  0.74614  0.96483  0.15216  1.0000
  C   C2470     1.0  0.78038  0.97345  0.29866  1.0000
  C   C2471     1.0  0.64184  0.79649  0.01344  1.0000
  H   H4388     1.0  0.79216  0.96619  0.08906  1.0000
  H   H4389     1.0  0.77462  0.89200  0.99133  1.0000
  H   H4390     1.0  0.65222  0.78601  0.02322  1.0000
  C   C2472     1.0  0.68194  0.88734  0.01923  1.0000
  C   C2473     1.0  0.66346  0.89571  0.01165  1.0000
  C   C2474     1.0  0.64967  0.91336  0.01818  1.0000
  C   C2475     1.0  0.65406  0.92236  0.03281  1.0000
  C   C2476     1.0  0.67203  0.91344  0.04119  1.0000
  C   C2477     1.0  0.68600  0.89597  0.03435  1.0000
  H   H4391     1.0  0.65616  0.59055  0.26143  1.0000
  H   H4392     1.0  0.63570  0.92009  0.01182  1.0000
  H   H4393     1.0  0.67560  0.92047  0.05234  1.0000
  H   H4394     1.0  0.60627  0.79311  0.11712  1.0000
  H   H4395     1.0  0.78094  0.96520  0.12747  1.0000
  H   H4396     1.0  0.63536  0.81137  0.09657  1.0000
  H   H4397     1.0  0.77992  0.75418  0.47144  1.0000
  H   H4398     1.0  0.60325  0.73192  0.47532  1.0000
  S   S546      1.0  0.60920  0.88254  0.12730  1.0000
  H   H4399     1.0  0.75201  0.58795  0.42993  1.0000
  H   H4400     1.0  0.74085  0.70028  0.47956  1.0000
  N   N133      1.0  0.63687  0.83843  0.05624  1.0000
  H   H4401     1.0  0.67334  0.51114  0.37716  1.0000
  S   S547      1.0  0.60319  0.56754  0.34417  1.0000
  C   C2478     1.0  0.77450  0.69720  0.43504  1.0000
  C   C2479     1.0  0.78109  0.69905  0.45454  1.0000
  C   C2480     1.0  0.65528  0.51830  0.47995  1.0000
  H   H4402     1.0  0.67342  0.86832  0.07673  1.0000
  C   C2481     1.0  0.67247  0.57508  0.28699  1.0000
  H   H4403     1.0  0.75721  0.69979  0.43758  1.0000
  C   C2482     1.0  0.76617  0.60336  0.44581  1.0000
  H   H4404     1.0  0.65632  0.63951  0.39809  1.0000
  H   H4405     1.0  0.62743  0.79686  0.08194  1.0000
  H   H4406     1.0  0.59442  0.49871  0.34302  1.0000
  H   H4407     1.0  0.65575  0.86171  0.05141  1.0000
  H   H4408     1.0  0.70516  0.80911  0.02276  1.0000
  H   H4409     1.0  0.71585  0.54650  0.29275  1.0000
  H   H4410     1.0  0.62456  0.50840  0.46749  1.0000
  H   H4411     1.0  0.69534  0.93823  0.00312  1.0000
  H   H4412     1.0  0.72768  0.55151  0.32568  1.0000
  H   H4413     1.0  0.63941  0.53472  0.45344  1.0000
  H   H4414     1.0  0.63704  0.95269  0.19297  1.0000
  H   H4415     1.0  0.69546  0.79689  0.04947  1.0000
  N   N134      1.0  0.77264  0.72307  0.48151  1.0000
  H   H4416     1.0  0.64857  0.80841  0.04707  1.0000
  C   C2483     1.0  0.63039  0.84894  0.03549  1.0000
  H   H4417     1.0  0.65381  0.56596  0.44371  1.0000
  H   H4418     1.0  0.72708  0.51992  0.26959  1.0000
  H   H4419     1.0  0.64309  0.85614  0.02419  1.0000
  H   H4420     1.0  0.71314  0.59722  0.33216  1.0000
  C   C2484     1.0  0.74599  0.75883  0.47989  1.0000
  H   H4421     1.0  0.60825  0.84397  0.07943  1.0000
  H   H4422     1.0  0.78282  0.73193  0.44782  1.0000
  C   C2485     1.0  0.66188  0.51400  0.36694  1.0000
  H   H4423     1.0  0.74223  0.75743  0.46525  1.0000
  C   C2486     1.0  0.67206  0.52041  0.34382  1.0000
  H   H4424     1.0  0.65966  0.81103  0.06709  1.0000
  C   C2487     1.0  0.60746  0.96363  0.18187  1.0000
  H   H4425     1.0  0.60762  0.61816  0.46218  1.0000
  Fe  Fe274     1.0  0.61034  0.59998  0.33203  1.0000
  H   H4426     1.0  0.75587  0.56690  0.48255  1.0000
  C   C2488     1.0  0.66952  0.55940  0.30841  1.0000
  C   C2489     1.0  0.69715  0.56954  0.31871  1.0000
  H   H4427     1.0  0.62760  0.83698  0.02816  1.0000
  H   H4428     1.0  0.69616  0.53326  0.34792  1.0000
  H   H4429     1.0  0.67116  0.83233  0.02053  1.0000
  H   H4430     1.0  0.60005  0.51155  0.23704  1.0000
  C   C2490     1.0  0.63559  0.65241  0.42497  1.0000
  C   C2491     1.0  0.65737  0.64229  0.41335  1.0000
  H   H4431     1.0  0.61828  0.88142  0.00302  1.0000
  C   C2492     1.0  0.59443  0.51268  0.34908  1.0000
  C   C2493     1.0  0.66000  0.86392  0.08922  1.0000
  C   C2494     1.0  0.67309  0.65661  0.40865  1.0000
  H   H4432     1.0  0.65439  0.58964  0.48469  1.0000
  H   H4433     1.0  0.66842  0.50940  0.46979  1.0000
  C   C2495     1.0  0.60334  0.80861  0.10631  1.0000
  C   C2496     1.0  0.74451  0.78220  0.47883  1.0000
  H   H4434     1.0  0.68938  0.51215  0.30527  1.0000
  H   H4435     1.0  0.63906  0.84271  0.09779  1.0000
  H   H4436     1.0  0.75943  0.86067  0.01009  1.0000
  H   H4437     1.0  0.63804  0.65857  0.43790  1.0000
  H   H4438     1.0  0.76272  0.53912  0.46900  1.0000
  C   C2497     1.0  0.76791  0.74599  0.48292  1.0000
  S   S548      1.0  0.59666  0.60650  0.30327  1.0000
  H   H4439     1.0  0.61326  0.88034  0.04127  1.0000
  H   H4440     1.0  0.65970  0.52351  0.33468  1.0000
  C   C2498     1.0  0.61904  0.63213  0.39709  1.0000
  C   C2499     1.0  0.77254  0.52613  0.47826  1.0000
  H   H4441     1.0  0.63930  0.58234  0.28614  1.0000
  H   H4442     1.0  0.68833  0.64905  0.40003  1.0000
  H   H4443     1.0  0.66757  0.67202  0.39871  1.0000
  H   H4444     1.0  0.67556  0.65918  0.42348  1.0000
  H   H4445     1.0  0.60795  0.82692  0.06322  1.0000
  H   H4446     1.0  0.64222  0.99212  0.21412  1.0000
  C   C2500     1.0  0.59836  0.57182  0.42755  1.0000
  C   C2501     1.0  0.65462  0.57789  0.27572  1.0000
  H   H4447     1.0  0.64727  0.87799  0.09037  1.0000
  H   H4448     1.0  0.73225  0.58832  0.31024  1.0000
  S   S549      1.0  0.60118  0.93850  0.09330  1.0000
  H   H4449     1.0  0.59998  0.56568  0.39707  1.0000
  C   C2502     1.0  0.77151  0.50575  0.47260  1.0000
  H   H4450     1.0  0.68512  0.79395  0.02816  1.0000
  H   H4451     1.0  0.59671  0.97901  0.05721  1.0000
  C   C2503     1.0  0.78228  0.57009  0.43483  1.0000
  H   H4452     1.0  0.75547  0.78886  0.46480  1.0000
  Fe  Fe275     1.0  0.60405  0.96139  0.11103  1.0000
  H   H4453     1.0  0.68742  0.56972  0.27647  1.0000
  C   C2504     1.0  0.69886  0.52300  0.29403  1.0000
  S   S550      1.0  0.78240  0.54970  0.42239  1.0000
  N   N135      1.0  0.68873  0.55090  0.31793  1.0000
  C   C2505     1.0  0.71520  0.56458  0.33078  1.0000
  H   H4454     1.0  0.67155  0.55100  0.34971  1.0000
  C   C2506     1.0  0.67441  0.82489  0.03642  1.0000
  C   C2507     1.0  0.75854  0.86765  0.99340  1.0000
  H   H4455     1.0  0.68956  0.53279  0.28226  1.0000
  H   H4456     1.0  0.67490  0.54337  0.44477  1.0000
  H   H4457     1.0  0.59902  0.89456  0.08517  1.0000
  C   C2508     1.0  0.61820  0.83101  0.07164  1.0000
  N   N136      1.0  0.61945  0.63862  0.43347  1.0000
  C   C2509     1.0  0.61090  0.53351  0.26797  1.0000
  H   H4458     1.0  0.63048  0.86783  0.06665  1.0000
  H   H4459     1.0  0.66516  0.85837  0.10449  1.0000
  C   C2510     1.0  0.69099  0.80490  0.03415  1.0000
  C   C2511     1.0  0.62270  0.81110  0.08899  1.0000
  C   C2512     1.0  0.77284  0.72151  0.45943  1.0000
  N   N137      1.0  0.60759  0.98665  0.17260  1.0000
  H   H4460     1.0  0.74677  0.89880  0.00012  1.0000
  H   H4461     1.0  0.61884  0.98335  0.00272  1.0000
  C   C2513     1.0  0.78343  0.60246  0.45435  1.0000
  H   H4462     1.0  0.72773  0.49923  0.29286  1.0000
  H   H4463     1.0  0.59910  0.95748  0.17306  1.0000
  H   H4464     1.0  0.71215  0.49970  0.27453  1.0000
  H   H4465     1.0  0.63714  0.98189  0.15028  1.0000
  C   C2514     1.0  0.74331  0.98230  0.14907  1.0000
  H   H4466     1.0  0.62786  0.58879  0.48497  1.0000
  H   H4467     1.0  0.78114  0.68111  0.43181  1.0000
  H   H4468     1.0  0.73214  0.60334  0.48185  1.0000
  S   S551      1.0  0.78396  0.62364  0.46536  1.0000
  S   S552      1.0  0.59587  0.57907  0.46638  1.0000
  H   H4469     1.0  0.59831  0.49359  0.42578  1.0000
  C   C2515     1.0  0.76378  0.98999  0.14433  1.0000
  H   H4470     1.0  0.59615  0.92922  0.02786  1.0000
  H   H4471     1.0  0.66293  0.98718  0.03049  1.0000
  C   C2516     1.0  0.68925  0.98678  0.00475  1.0000
  C   C2517     1.0  0.79115  0.97566  0.27550  1.0000
  H   H4472     1.0  0.72871  0.72583  0.48487  1.0000
  C   C2518     1.0  0.65005  0.80719  0.99332  1.0000
  H   H4473     1.0  0.65968  0.88865  0.00080  1.0000
  H   H4474     1.0  0.79197  0.97086  0.30869  1.0000
  H   H4475     1.0  0.78898  0.52822  0.47309  1.0000
  H   H4476     1.0  0.79095  0.55511  0.48646  1.0000
  C   C2519     1.0  0.59871  0.62941  0.39295  1.0000
  H   H4477     1.0  0.59616  0.66111  0.41773  1.0000
  H   H4478     1.0  0.59736  0.63735  0.37657  1.0000
  H   H4479     1.0  0.68677  0.98940  0.12777  1.0000
  H   H4480     1.0  0.76997  0.98892  0.11178  1.0000
  H   H4481     1.0  0.74370  0.86550  0.99074  1.0000
  C   C2520     1.0  0.66561  0.99028  0.01305  1.0000
  H   H4482     1.0  0.73500  0.98890  0.13579  1.0000
  C   C2521     1.0  0.72879  0.49438  0.35629  1.0000
  H   H4483     1.0  0.74395  0.49402  0.32404  1.0000
  Fe  Fe276     1.0  0.72601  0.56213  0.67334  1.0000
  H   H4484     1.0  0.72191  0.57198  0.84323  1.0000
  S   S553      1.0  0.75786  0.77911  0.81040  1.0000
  H   H4485     1.0  0.70515  0.64938  0.89717  1.0000
  C   C2522     1.0  0.61495  0.82273  0.98768  1.0000
  S   S554      1.0  0.76847  0.73603  0.77887  1.0000
  H   H4486     1.0  0.65641  0.60869  0.60454  1.0000
  H   H4487     1.0  0.63084  0.87110  0.59292  1.0000
  C   C2523     1.0  0.62484  0.77859  0.63031  1.0000
  C   C2524     1.0  0.62596  0.52737  0.52117  1.0000
  H   H4488     1.0  0.74348  0.68517  0.83962  1.0000
  H   H4489     1.0  0.67676  0.81138  0.56245  1.0000
  Fe  Fe277     1.0  0.77599  0.60100  0.82831  1.0000
  C   C2525     1.0  0.60493  0.91640  0.78237  1.0000
  S   S555      1.0  0.74387  0.61078  0.84687  1.0000
  C   C2526     1.0  0.72498  0.56377  0.81258  1.0000
  C   C2527     1.0  0.75882  0.54027  0.53346  1.0000
  H   H4490     1.0  0.72174  0.72178  0.83532  1.0000
  H   H4491     1.0  0.73521  0.54562  0.57292  1.0000
  C   C2528     1.0  0.62002  0.83332  0.78723  1.0000
  H   H4492     1.0  0.70807  0.63031  0.78868  1.0000
  Fe  Fe278     1.0  0.72148  0.84061  0.94203  1.0000
  S   S556      1.0  0.69574  0.85427  0.92421  1.0000
  Fe  Fe279     1.0  0.69370  0.88402  0.93459  1.0000
  S   S557      1.0  0.69203  0.91413  0.91067  1.0000
  H   H4493     1.0  0.75474  0.50186  0.77884  1.0000
  H   H4494     1.0  0.60892  0.85328  0.75004  1.0000
  S   S558      1.0  0.69291  0.66393  0.75393  1.0000
  Fe  Fe280     1.0  0.68433  0.68838  0.77368  1.0000
  S   S559      1.0  0.70683  0.69480  0.78952  1.0000
  S   S560      1.0  0.65260  0.72817  0.59735  1.0000
  Fe  Fe281     1.0  0.64686  0.72314  0.56783  1.0000
  S   S561      1.0  0.67132  0.72588  0.53819  1.0000
  S   S562      1.0  0.66993  0.87685  0.96374  1.0000
  C   C2529     1.0  0.62175  0.51565  0.50604  1.0000
  C   C2530     1.0  0.64946  0.76286  0.65346  1.0000
  C   C2531     1.0  0.71076  0.67539  0.61395  1.0000
  Fe  Fe282     1.0  0.66819  0.81203  0.68116  1.0000
  S   S563      1.0  0.65019  0.84517  0.68079  1.0000
  S   S564      1.0  0.65841  0.78276  0.67985  1.0000
  Fe  Fe283     1.0  0.70871  0.82199  0.68540  1.0000
  S   S565      1.0  0.69462  0.85613  0.68481  1.0000
  S   S566      1.0  0.74105  0.80527  0.69051  1.0000
  Fe  Fe284     1.0  0.66654  0.84483  0.70637  1.0000
  S   S567      1.0  0.65207  0.85517  0.73733  1.0000
  Fe  Fe285     1.0  0.67964  0.85374  0.65938  1.0000
  S   S568      1.0  0.68166  0.87452  0.62743  1.0000
  S   S569      1.0  0.68172  0.81081  0.70871  1.0000
  S   S570      1.0  0.69641  0.82053  0.65802  1.0000
  C   C2532     1.0  0.77720  0.54406  0.77157  1.0000
  H   H4495     1.0  0.71679  0.69726  0.58341  1.0000
  S   S571      1.0  0.74995  0.77923  0.57643  1.0000
  Fe  Fe286     1.0  0.76926  0.80353  0.57089  1.0000
  S   S572      1.0  0.76891  0.82075  0.59530  1.0000
  S   S573      1.0  0.71063  0.56910  0.70510  1.0000
  Fe  Fe287     1.0  0.68221  0.56243  0.69872  1.0000
  S   S574      1.0  0.65129  0.58451  0.70531  1.0000
  S   S575      1.0  0.65298  0.68074  0.78963  1.0000
  C   C2533     1.0  0.65904  0.87828  0.73889  1.0000
  C   C2534     1.0  0.66625  0.89208  0.72060  1.0000
  C   C2535     1.0  0.60359  0.69760  0.83250  1.0000
  C   C2536     1.0  0.76453  0.52549  0.50216  1.0000
  C   C2537     1.0  0.66396  0.90091  0.75983  1.0000
  C   C2538     1.0  0.65747  0.88295  0.75853  1.0000
  H   H4496     1.0  0.66685  0.88902  0.70540  1.0000
  H   H4497     1.0  0.66302  0.90428  0.77500  1.0000
  H   H4498     1.0  0.65152  0.87251  0.77274  1.0000
  C   C2539     1.0  0.70682  0.86341  0.61554  1.0000
  C   C2540     1.0  0.71021  0.85563  0.59724  1.0000
  C   C2541     1.0  0.72941  0.84259  0.59059  1.0000
  C   C2542     1.0  0.74518  0.83773  0.60218  1.0000
  C   C2543     1.0  0.74202  0.84627  0.61989  1.0000
  C   C2544     1.0  0.72286  0.85900  0.62661  1.0000
  H   H4499     1.0  0.69771  0.85888  0.58890  1.0000
  H   H4500     1.0  0.73186  0.83600  0.57684  1.0000
  H   H4501     1.0  0.75425  0.84248  0.62875  1.0000
  H   H4502     1.0  0.72020  0.86499  0.64074  1.0000
  C   C2545     1.0  0.76917  0.85479  0.66273  1.0000
  C   C2546     1.0  0.75442  0.84180  0.66971  1.0000
  C   C2547     1.0  0.75999  0.82100  0.67999  1.0000
  S   S576      1.0  0.70048  0.82937  0.97247  1.0000
  C   C2548     1.0  0.70985  0.75905  0.54750  1.0000
  C   C2549     1.0  0.69223  0.95533  0.90695  1.0000
  H   H4503     1.0  0.73864  0.84793  0.66740  1.0000
  H   H4504     1.0  0.65968  0.95924  0.96276  1.0000
  H   H4505     1.0  0.75485  0.50069  0.64876  1.0000
  S   S577      1.0  0.67264  0.71438  0.74873  1.0000
  H   H4506     1.0  0.69418  0.59362  0.77798  1.0000
  H   H4507     1.0  0.71835  0.70916  0.52316  1.0000
  H   H4508     1.0  0.77229  0.92574  0.92889  1.0000
  H   H4509     1.0  0.67470  0.99111  0.87214  1.0000
  C   C2550     1.0  0.68520  0.74552  0.53606  1.0000
  C   C2551     1.0  0.69893  0.74306  0.54947  1.0000
  Fe  Fe288     1.0  0.63867  0.69964  0.61284  1.0000
  C   C2552     1.0  0.62705  0.61593  0.62692  1.0000
  H   H4510     1.0  0.74483  0.58219  0.52433  1.0000
  H   H4511     1.0  0.70108  0.72885  0.56132  1.0000
  H   H4512     1.0  0.73648  0.71477  0.81089  1.0000
  H   H4513     1.0  0.60441  0.83271  0.97778  1.0000
  C   C2553     1.0  0.64676  0.78210  0.65942  1.0000
  C   C2554     1.0  0.63357  0.79981  0.65030  1.0000
  C   C2555     1.0  0.62253  0.79802  0.63584  1.0000
  H   H4514     1.0  0.63117  0.81459  0.65514  1.0000
  H   H4515     1.0  0.62036  0.75115  0.68613  1.0000
  C   C2556     1.0  0.66457  0.66567  0.67336  1.0000
  C   C2557     1.0  0.67474  0.67071  0.68665  1.0000
  H   H4516     1.0  0.65935  0.65091  0.67759  1.0000
  H   H4517     1.0  0.67726  0.65988  0.70114  1.0000
  C   C2558     1.0  0.65082  0.61579  0.75850  1.0000
  C   C2559     1.0  0.64255  0.59760  0.76294  1.0000
  C   C2560     1.0  0.64239  0.58814  0.74657  1.0000
  C   C2561     1.0  0.65057  0.59682  0.72574  1.0000
  C   C2562     1.0  0.65826  0.61536  0.72127  1.0000
  C   C2563     1.0  0.65817  0.62496  0.73762  1.0000
  H   H4518     1.0  0.63634  0.57386  0.75007  1.0000
  H   H4519     1.0  0.66462  0.62204  0.70522  1.0000
  S   S578      1.0  0.77823  0.61313  0.52423  1.0000
  C   C2564     1.0  0.63851  0.76106  0.63901  1.0000
  N   N138      1.0  0.61171  0.62729  0.61280  1.0000
  H   H4520     1.0  0.61176  0.52711  0.49563  1.0000
  H   H4521     1.0  0.78662  0.50336  0.66103  1.0000
  C   C2565     1.0  0.68525  0.93764  0.92010  1.0000
  H   H4522     1.0  0.64040  0.96329  0.74309  1.0000
  C   C2566     1.0  0.66883  0.95817  0.94719  1.0000
  C   C2567     1.0  0.67341  0.93903  0.94027  1.0000
  H   H4523     1.0  0.60648  0.91423  0.79887  1.0000
  H   H4524     1.0  0.66778  0.92546  0.95051  1.0000
  C   C2568     1.0  0.72196  0.64739  0.88949  1.0000
  H   H4525     1.0  0.75701  0.53545  0.83021  1.0000
  C   C2569     1.0  0.75356  0.55042  0.74732  1.0000
  C   C2570     1.0  0.75812  0.51744  0.77232  1.0000
  C   C2571     1.0  0.60575  0.54116  0.53056  1.0000
  C   C2572     1.0  0.60230  0.52295  0.58913  1.0000
  H   H4526     1.0  0.74679  0.56033  0.73432  1.0000
  C   C2573     1.0  0.73137  0.53352  0.56671  1.0000
  C   C2574     1.0  0.73309  0.63488  0.83233  1.0000
  C   C2575     1.0  0.71188  0.63957  0.83145  1.0000
  C   C2576     1.0  0.70380  0.65786  0.81801  1.0000
  C   C2577     1.0  0.71674  0.67189  0.80622  1.0000
  C   C2578     1.0  0.73768  0.66769  0.80790  1.0000
  C   C2579     1.0  0.74596  0.64901  0.82065  1.0000
  H   H4527     1.0  0.70188  0.62877  0.84063  1.0000
  H   H4528     1.0  0.68755  0.66118  0.81684  1.0000
  H   H4529     1.0  0.74770  0.67854  0.79879  1.0000
  H   H4530     1.0  0.76234  0.64551  0.82128  1.0000
  H   H4531     1.0  0.61163  0.50463  0.51599  1.0000
  H   H4532     1.0  0.72936  0.87372  0.73648  1.0000
  H   H4533     1.0  0.72029  0.75725  0.55796  1.0000
  S   S579      1.0  0.73283  0.51965  0.74573  1.0000
  C   C2580     1.0  0.69442  0.93819  0.98686  1.0000
  H   H4534     1.0  0.60711  0.88721  0.90968  1.0000
  C   C2581     1.0  0.75071  0.69881  0.83777  1.0000
  C   C2582     1.0  0.73119  0.80023  0.91288  1.0000
  C   C2583     1.0  0.73020  0.78654  0.90053  1.0000
  H   H4535     1.0  0.70577  0.56215  0.75063  1.0000
  H   H4536     1.0  0.71730  0.80642  0.92343  1.0000
  H   H4537     1.0  0.71557  0.78206  0.90170  1.0000
  H   H4538     1.0  0.64480  0.87745  0.84437  1.0000
  C   C2584     1.0  0.75624  0.93243  0.93683  1.0000
  C   C2585     1.0  0.61817  0.85319  0.56139  1.0000
  H   H4539     1.0  0.73540  0.70827  0.86732  1.0000
  H   H4540     1.0  0.72512  0.55448  0.53815  1.0000
  C   C2586     1.0  0.63755  0.93847  0.67972  1.0000
  H   H4541     1.0  0.60640  0.94809  0.69635  1.0000
  C   C2587     1.0  0.66123  0.67964  0.65461  1.0000
  H   H4542     1.0  0.71459  0.53293  0.57302  1.0000
  Fe  Fe289     1.0  0.74784  0.79170  0.54261  1.0000
  H   H4543     1.0  0.71470  0.55208  0.81883  1.0000
  H   H4544     1.0  0.79162  0.69412  0.85632  1.0000
  H   H4545     1.0  0.61067  0.65558  0.58816  1.0000
  H   H4546     1.0  0.77184  0.85908  0.98321  1.0000
  C   C2588     1.0  0.75367  0.85228  0.72007  1.0000
  C   C2589     1.0  0.59853  0.97157  0.81885  1.0000
  H   H4547     1.0  0.60526  0.74446  0.71168  1.0000
  S   S580      1.0  0.62133  0.93479  0.83723  1.0000
  N   N139      1.0  0.72827  0.75402  0.64633  1.0000
  C   C2590     1.0  0.74071  0.73172  0.64892  1.0000
  C   C2591     1.0  0.71221  0.75713  0.66626  1.0000
  C   C2592     1.0  0.71654  0.75716  0.62904  1.0000
  C   C2593     1.0  0.74209  0.77008  0.63997  1.0000
  C   C2594     1.0  0.75804  0.76750  0.65384  1.0000
  C   C2595     1.0  0.75747  0.72595  0.62955  1.0000
  C   C2596     1.0  0.70203  0.77894  0.62410  1.0000
  C   C2597     1.0  0.71790  0.74439  0.68753  1.0000
  C   C2598     1.0  0.70073  0.75016  0.70605  1.0000
  H   H4548     1.0  0.61785  0.72685  0.92773  1.0000
  H   H4549     1.0  0.65353  0.93135  0.68270  1.0000
  C   C2599     1.0  0.69017  0.77931  0.60736  1.0000
  H   H4550     1.0  0.72985  0.72047  0.65344  1.0000
  H   H4551     1.0  0.74902  0.72806  0.66208  1.0000
  H   H4552     1.0  0.70769  0.77406  0.66722  1.0000
  H   H4553     1.0  0.69741  0.75265  0.66608  1.0000
  H   H4554     1.0  0.70675  0.74503  0.63294  1.0000
  H   H4555     1.0  0.72747  0.75514  0.61397  1.0000
  H   H4556     1.0  0.75082  0.77053  0.62345  1.0000
  H   H4557     1.0  0.73245  0.78622  0.63994  1.0000
  H   H4558     1.0  0.67944  0.57155  0.76350  1.0000
  H   H4559     1.0  0.74975  0.77022  0.66966  1.0000
  H   H4560     1.0  0.75020  0.72624  0.61638  1.0000
  H   H4561     1.0  0.74085  0.51786  0.57226  1.0000
  H   H4562     1.0  0.71121  0.79162  0.61786  1.0000
  H   H4563     1.0  0.69041  0.78267  0.63827  1.0000
  H   H4564     1.0  0.71950  0.72734  0.68848  1.0000
  H   H4565     1.0  0.73271  0.74693  0.68967  1.0000
  H   H4566     1.0  0.69884  0.76695  0.70648  1.0000
  H   H4567     1.0  0.68564  0.74717  0.70488  1.0000
  H   H4568     1.0  0.70492  0.74035  0.72094  1.0000
  H   H4569     1.0  0.78692  0.66164  0.69952  1.0000
  N   N140      1.0  0.61019  0.85587  0.90443  1.0000
  H   H4570     1.0  0.62433  0.93922  0.77346  1.0000
  C   C2600     1.0  0.61484  0.87853  0.86652  1.0000
  H   H4571     1.0  0.72934  0.68364  0.51627  1.0000
  H   H4572     1.0  0.74145  0.52883  0.61042  1.0000
  H   H4573     1.0  0.70116  0.77678  0.59240  1.0000
  H   H4574     1.0  0.68047  0.76704  0.61275  1.0000
  H   H4575     1.0  0.67971  0.79483  0.60434  1.0000
  Fe  Fe290     1.0  0.71911  0.53430  0.71653  1.0000
  H   H4576     1.0  0.63394  0.62735  0.63117  1.0000
  H   H4577     1.0  0.65254  0.63788  0.54322  1.0000
  H   H4578     1.0  0.67209  0.76571  0.51015  1.0000
  H   H4579     1.0  0.73233  0.53281  0.84825  1.0000
  H   H4580     1.0  0.71596  0.61846  0.76603  1.0000
  H   H4581     1.0  0.63438  0.63023  0.88327  1.0000
  H   H4582     1.0  0.78131  0.78142  0.62882  1.0000
  H   H4583     1.0  0.63310  0.49706  0.67396  1.0000
  H   H4584     1.0  0.76654  0.69651  0.82777  1.0000
  S   S581      1.0  0.76440  0.81818  0.53826  1.0000
  C   C2601     1.0  0.67245  0.91008  0.72190  1.0000
  H   H4585     1.0  0.64002  0.77426  0.57378  1.0000
  S   S582      1.0  0.64616  0.83420  0.95549  1.0000
  H   H4586     1.0  0.63673  0.59051  0.77906  1.0000
  H   H4587     1.0  0.59681  0.71471  0.82989  1.0000
  H   H4588     1.0  0.59788  0.51783  0.62301  1.0000
  H   H4589     1.0  0.60287  0.75079  0.91531  1.0000
  C   C2602     1.0  0.68575  0.49318  0.65655  1.0000
  C   C2603     1.0  0.59526  0.51005  0.61145  1.0000
  C   C2604     1.0  0.64375  0.85973  0.59956  1.0000
  C   C2605     1.0  0.76829  0.79687  0.89863  1.0000
  H   H4590     1.0  0.73357  0.64811  0.76015  1.0000
  H   H4591     1.0  0.76230  0.92299  0.89725  1.0000
  C   C2606     1.0  0.76368  0.71681  0.91406  1.0000
  H   H4592     1.0  0.74954  0.65794  0.59333  1.0000
  S   S583      1.0  0.63610  0.69276  0.58285  1.0000
  C   C2607     1.0  0.73317  0.93582  0.97182  1.0000
  Fe  Fe291     1.0  0.67460  0.84566  0.95507  1.0000
  H   H4593     1.0  0.71935  0.89500  0.79527  1.0000
  C   C2608     1.0  0.74658  0.87178  0.73055  1.0000
  H   H4594     1.0  0.64924  0.84415  0.63094  1.0000
  H   H4595     1.0  0.74518  0.73178  0.82249  1.0000
  S   S584      1.0  0.72683  0.93867  0.81812  1.0000
  H   H4596     1.0  0.64474  0.94984  0.71300  1.0000
  H   H4597     1.0  0.61766  0.97720  0.96859  1.0000
  Fe  Fe292     1.0  0.78614  0.64067  0.53110  1.0000
  H   H4598     1.0  0.77537  0.92446  0.70734  1.0000
  Fe  Fe293     1.0  0.69757  0.86147  0.97881  1.0000
  H   H4599     1.0  0.75262  0.71808  0.51228  1.0000
  S   S585      1.0  0.62100  0.76286  0.84597  1.0000
  H   H4600     1.0  0.75584  0.65896  0.86302  1.0000
  C   C2609     1.0  0.60244  0.61134  0.60769  1.0000
  C   C2610     1.0  0.75778  0.89468  0.60492  1.0000
  H   H4601     1.0  0.77673  0.61918  0.61538  1.0000
  H   H4602     1.0  0.61040  0.66674  0.62201  1.0000
  C   C2611     1.0  0.69292  0.78000  0.51907  1.0000
  H   H4603     1.0  0.60396  0.82425  0.91535  1.0000
  H   H4604     1.0  0.60957  0.77938  0.74018  1.0000
  S   S586      1.0  0.71807  0.79896  0.53075  1.0000
  H   H4605     1.0  0.60622  0.51275  0.57746  1.0000
  C   C2612     1.0  0.62833  0.95648  0.71089  1.0000
  H   H4606     1.0  0.75317  0.88689  0.62159  1.0000
  C   C2613     1.0  0.79046  0.86631  0.60003  1.0000
  N   N141      1.0  0.76510  0.54466  0.50979  1.0000
  C   C2614     1.0  0.73418  0.56489  0.83114  1.0000
  C   C2615     1.0  0.71428  0.92485  0.97640  1.0000
  H   H4607     1.0  0.61389  0.62699  0.90626  1.0000
  H   H4608     1.0  0.70270  0.90294  0.67430  1.0000
  C   C2616     1.0  0.74026  0.90992  0.72780  1.0000
  H   H4609     1.0  0.67321  0.57785  0.62749  1.0000
  H   H4610     1.0  0.62630  0.79668  0.72265  1.0000
  H   H4611     1.0  0.62904  0.81058  0.81468  1.0000
  S   S587      1.0  0.61008  0.77639  0.61304  1.0000
  H   H4612     1.0  0.61411  0.69440  0.67095  1.0000
  H   H4613     1.0  0.60000  0.69763  0.87260  1.0000
  C   C2617     1.0  0.72026  0.96491  0.84655  1.0000
  H   H4614     1.0  0.74473  0.64758  0.62062  1.0000
  C   C2618     1.0  0.75028  0.80548  0.91185  1.0000
  H   H4615     1.0  0.68576  0.68351  0.58572  1.0000
  H   H4616     1.0  0.64953  0.75663  0.75265  1.0000
  H   H4617     1.0  0.62696  0.92729  0.74221  1.0000
  C   C2619     1.0  0.65287  0.77098  0.75540  1.0000
  H   H4618     1.0  0.64848  0.78953  0.54826  1.0000
  H   H4619     1.0  0.74660  0.89560  0.75944  1.0000
  C   C2620     1.0  0.73719  0.71016  0.49151  1.0000
  H   H4620     1.0  0.69034  0.79437  0.50745  1.0000
  H   H4621     1.0  0.76473  0.87094  0.65487  1.0000
  C   C2621     1.0  0.67665  0.84883  0.56115  1.0000
  H   H4622     1.0  0.63727  0.53776  0.51311  1.0000
  C   C2622     1.0  0.74718  0.91062  0.74788  1.0000
  H   H4623     1.0  0.65948  0.74911  0.66064  1.0000
  C   C2623     1.0  0.77219  0.52420  0.78008  1.0000
  C   C2624     1.0  0.67175  0.91435  0.74144  1.0000
  H   H4624     1.0  0.61109  0.66291  0.91051  1.0000
  H   H4625     1.0  0.76509  0.69458  0.50322  1.0000
  H   H4626     1.0  0.62887  0.97148  0.69914  1.0000
  Fe  Fe294     1.0  0.61932  0.74572  0.60161  1.0000
  H   H4627     1.0  0.69289  0.98843  0.98739  1.0000
  H   H4628     1.0  0.76839  0.75173  0.65522  1.0000
  H   H4629     1.0  0.68358  0.56573  0.83436  1.0000
  H   H4630     1.0  0.63940  0.77768  0.76677  1.0000
  C   C2625     1.0  0.77053  0.57693  0.66128  1.0000
  H   H4631     1.0  0.61507  0.83616  0.81988  1.0000
  H   H4632     1.0  0.76975  0.92718  0.98394  1.0000
  H   H4633     1.0  0.61183  0.81158  0.62929  1.0000
  H   H4634     1.0  0.63192  0.51586  0.53444  1.0000
  C   C2626     1.0  0.74415  0.54294  0.84169  1.0000
  C   C2627     1.0  0.73290  0.92831  0.75829  1.0000
  C   C2628     1.0  0.77350  0.61912  0.60002  1.0000
  C   C2629     1.0  0.78065  0.88286  0.81117  1.0000
  H   H4635     1.0  0.61256  0.86672  0.93134  1.0000
  H   H4636     1.0  0.74216  0.70682  0.54981  1.0000
  N   N142      1.0  0.63087  0.69469  0.87839  1.0000
  C   C2630     1.0  0.63706  0.67103  0.88447  1.0000
  C   C2631     1.0  0.65007  0.70431  0.86853  1.0000
  C   C2632     1.0  0.61545  0.70142  0.86399  1.0000
  C   C2633     1.0  0.62195  0.69253  0.84362  1.0000
  C   C2634     1.0  0.61894  0.65903  0.89494  1.0000
  C   C2635     1.0  0.66899  0.69130  0.85558  1.0000
  C   C2636     1.0  0.68615  0.70399  0.84537  1.0000
  C   C2637     1.0  0.65079  0.78492  0.56472  1.0000
  C   C2638     1.0  0.62708  0.63522  0.89849  1.0000
  H   H4637     1.0  0.64811  0.66677  0.89544  1.0000
  H   H4638     1.0  0.64587  0.66409  0.87066  1.0000
  H   H4639     1.0  0.64582  0.72002  0.85833  1.0000
  H   H4640     1.0  0.65657  0.70739  0.88091  1.0000
  H   H4641     1.0  0.61218  0.71885  0.85878  1.0000
  H   H4642     1.0  0.62724  0.67522  0.84666  1.0000
  H   H4643     1.0  0.63466  0.69986  0.83266  1.0000
  H   H4644     1.0  0.60716  0.66286  0.88493  1.0000
  H   H4645     1.0  0.67596  0.67696  0.86602  1.0000
  H   H4646     1.0  0.66457  0.68637  0.84304  1.0000
  H   H4647     1.0  0.68107  0.71718  0.83274  1.0000
  H   H4648     1.0  0.69024  0.71030  0.85725  1.0000
  H   H4649     1.0  0.70041  0.69371  0.83830  1.0000
  C   C2639     1.0  0.75027  0.53480  0.61875  1.0000
  H   H4650     1.0  0.66701  0.77615  0.56513  1.0000
  C   C2640     1.0  0.68694  0.85177  0.53741  1.0000
  C   C2641     1.0  0.61502  0.74037  0.78968  1.0000
  H   H4651     1.0  0.63876  0.63040  0.90875  1.0000
  H   H4652     1.0  0.67781  0.92077  0.70765  1.0000
  N   N143      1.0  0.69662  0.78246  0.77704  1.0000
  C   C2642     1.0  0.70302  0.80333  0.77326  1.0000
  C   C2643     1.0  0.71506  0.76711  0.76784  1.0000
  C   C2644     1.0  0.67822  0.78573  0.76686  1.0000
  C   C2645     1.0  0.68994  0.77368  0.80018  1.0000
  C   C2646     1.0  0.70547  0.77242  0.81417  1.0000
  C   C2647     1.0  0.68668  0.82048  0.78366  1.0000
  C   C2648     1.0  0.67281  0.76555  0.76412  1.0000
  C   C2649     1.0  0.72313  0.77322  0.74372  1.0000
  C   C2650     1.0  0.73856  0.75493  0.73515  1.0000
  C   C2651     1.0  0.69616  0.76524  0.83740  1.0000
  C   C2652     1.0  0.69511  0.84061  0.77942  1.0000
  H   H4653     1.0  0.61879  0.60740  0.64202  1.0000
  H   H4654     1.0  0.70625  0.81019  0.75611  1.0000
  H   H4655     1.0  0.71812  0.80119  0.77820  1.0000
  H   H4656     1.0  0.72865  0.76541  0.77510  1.0000
  H   H4657     1.0  0.71158  0.75098  0.77185  1.0000
  H   H4658     1.0  0.68049  0.79635  0.75123  1.0000
  H   H4659     1.0  0.66387  0.79422  0.77603  1.0000
  H   H4660     1.0  0.67453  0.78284  0.80683  1.0000
  H   H4661     1.0  0.68729  0.75741  0.80259  1.0000
  H   H4662     1.0  0.70954  0.78786  0.81250  1.0000
  H   H4663     1.0  0.72007  0.76103  0.80991  1.0000
  H   H4664     1.0  0.67225  0.82458  0.77719  1.0000
  H   H4665     1.0  0.68248  0.81516  0.80093  1.0000
  H   H4666     1.0  0.67046  0.75423  0.77929  1.0000
  H   H4667     1.0  0.68544  0.75755  0.75294  1.0000
  H   H4668     1.0  0.71028  0.77802  0.73498  1.0000
  H   H4669     1.0  0.73134  0.78657  0.74001  1.0000
  H   H4670     1.0  0.74313  0.75950  0.71780  1.0000
  H   H4671     1.0  0.75287  0.75098  0.74171  1.0000
  H   H4672     1.0  0.73150  0.74076  0.73917  1.0000
  H   H4673     1.0  0.68241  0.77719  0.84274  1.0000
  H   H4674     1.0  0.69119  0.75003  0.84015  1.0000
  H   H4675     1.0  0.70806  0.76321  0.84696  1.0000
  H   H4676     1.0  0.71012  0.83728  0.78478  1.0000
  H   H4677     1.0  0.69750  0.84782  0.76238  1.0000
  H   H4678     1.0  0.68365  0.85213  0.78809  1.0000
  C   C2653     1.0  0.61643  0.87103  0.91385  1.0000
  N   N144      1.0  0.59946  0.71437  0.69358  1.0000
  C   C2654     1.0  0.60624  0.73336  0.91741  1.0000
  H   H4679     1.0  0.68980  0.54371  0.76647  1.0000
  S   S588      1.0  0.74855  0.58073  0.65050  1.0000
  C   C2655     1.0  0.70918  0.85541  0.53367  1.0000
  H   H4680     1.0  0.64019  0.74598  0.63512  1.0000
  H   H4681     1.0  0.62255  0.89271  0.83338  1.0000
  S   S589      1.0  0.69687  0.55864  0.66565  1.0000
  C   C2656     1.0  0.63833  0.73807  0.71023  1.0000
  S   S590      1.0  0.67900  0.92525  0.80391  1.0000
  C   C2657     1.0  0.62208  0.94153  0.70024  1.0000
  C   C2658     1.0  0.59959  0.95004  0.82689  1.0000
  S   S591      1.0  0.64933  0.67261  0.63772  1.0000
  H   H4682     1.0  0.68777  0.83790  0.53090  1.0000
  C   C2659     1.0  0.77010  0.70367  0.63501  1.0000
  H   H4683     1.0  0.74823  0.78455  0.49318  1.0000
  N   N145      1.0  0.71211  0.87210  0.85990  1.0000
  C   C2660     1.0  0.69099  0.88621  0.86504  1.0000
  C   C2661     1.0  0.71049  0.84917  0.86811  1.0000
  C   C2662     1.0  0.72661  0.87729  0.87090  1.0000
  C   C2663     1.0  0.72126  0.87614  0.83665  1.0000
  C   C2664     1.0  0.70919  0.87126  0.82230  1.0000
  C   C2665     1.0  0.69027  0.91026  0.85902  1.0000
  C   C2666     1.0  0.74787  0.86173  0.87196  1.0000
  C   C2667     1.0  0.68962  0.84311  0.86825  1.0000
  C   C2668     1.0  0.69099  0.81934  0.87457  1.0000
  C   C2669     1.0  0.71896  0.87799  0.79911  1.0000
  C   C2670     1.0  0.66825  0.92245  0.86617  1.0000
  C   C2671     1.0  0.76086  0.86937  0.88309  1.0000
  H   H4684     1.0  0.68470  0.88236  0.88228  1.0000
  H   H4685     1.0  0.67943  0.88343  0.85741  1.0000
  H   H4686     1.0  0.72369  0.83886  0.85942  1.0000
  H   H4687     1.0  0.71229  0.84408  0.88475  1.0000
  H   H4688     1.0  0.71869  0.87858  0.88737  1.0000
  H   H4689     1.0  0.73052  0.89300  0.86313  1.0000
  H   H4690     1.0  0.72338  0.89272  0.83098  1.0000
  H   H4691     1.0  0.73722  0.86643  0.83344  1.0000
  H   H4692     1.0  0.69262  0.87955  0.82485  1.0000
  H   H4693     1.0  0.71001  0.85405  0.82520  1.0000
  H   H4694     1.0  0.70084  0.91497  0.86640  1.0000
  H   H4695     1.0  0.69475  0.91540  0.84182  1.0000
  H   H4696     1.0  0.75708  0.86027  0.85607  1.0000
  H   H4697     1.0  0.74569  0.84580  0.88086  1.0000
  H   H4698     1.0  0.67681  0.85022  0.87996  1.0000
  H   H4699     1.0  0.68495  0.84861  0.85284  1.0000
  H   H4700     1.0  0.69214  0.81389  0.89136  1.0000
  H   H4701     1.0  0.67666  0.81538  0.87265  1.0000
  H   H4702     1.0  0.70473  0.81089  0.86469  1.0000
  C   C2672     1.0  0.74913  0.53019  0.75558  1.0000
  H   H4703     1.0  0.65729  0.92034  0.85740  1.0000
  H   H4704     1.0  0.66253  0.91716  0.88323  1.0000
  H   H4705     1.0  0.66849  0.93941  0.86347  1.0000
  H   H4706     1.0  0.76430  0.88499  0.87442  1.0000
  H   H4707     1.0  0.75231  0.87060  0.89937  1.0000
  H   H4708     1.0  0.77117  0.72059  0.88062  1.0000
  H   H4709     1.0  0.70113  0.95428  0.89133  1.0000
  S   S592      1.0  0.75216  0.82296  0.92657  1.0000
  H   H4710     1.0  0.71972  0.56536  0.60164  1.0000
  C   C2673     1.0  0.62205  0.64114  0.59346  1.0000
  H   H4711     1.0  0.75468  0.81863  0.72790  1.0000
  H   H4712     1.0  0.60436  0.79822  0.76880  1.0000
  C   C2674     1.0  0.60962  0.93775  0.76993  1.0000
  C   C2675     1.0  0.64670  0.64447  0.55770  1.0000
  C   C2676     1.0  0.73769  0.71797  0.82594  1.0000
  C   C2677     1.0  0.75719  0.90151  0.96571  1.0000
  N   N146      1.0  0.71749  0.65479  0.60660  1.0000
  H   H4713     1.0  0.63422  0.64720  0.59741  1.0000
  C   C2678     1.0  0.72882  0.59914  0.79352  1.0000
  Fe  Fe295     1.0  0.77032  0.76527  0.83986  1.0000
  H   H4714     1.0  0.73997  0.53596  0.63447  1.0000
  H   H4715     1.0  0.61851  0.54252  0.59822  1.0000
  C   C2679     1.0  0.75954  0.69070  0.89429  1.0000
  H   H4716     1.0  0.71620  0.85760  0.51662  1.0000
  H   H4717     1.0  0.75852  0.82896  0.74862  1.0000
  H   H4718     1.0  0.66504  0.60028  0.63993  1.0000
  H   H4719     1.0  0.66028  0.64419  0.56430  1.0000
  C   C2680     1.0  0.73866  0.63323  0.77091  1.0000
  H   H4720     1.0  0.63843  0.66101  0.55338  1.0000
  C   C2681     1.0  0.62478  0.97268  0.74057  1.0000
  C   C2682     1.0  0.72759  0.97556  0.85810  1.0000
  Fe  Fe296     1.0  0.67579  0.94660  0.77288  1.0000
  C   C2683     1.0  0.78156  0.89022  0.59775  1.0000
  H   H4721     1.0  0.74823  0.52294  0.50571  1.0000
  H   H4722     1.0  0.65467  0.78236  0.74019  1.0000
  C   C2684     1.0  0.75933  0.89101  0.98869  1.0000
  C   C2685     1.0  0.68257  0.76382  0.52060  1.0000
  C   C2686     1.0  0.72046  0.69389  0.59923  1.0000
  H   H4723     1.0  0.76255  0.79994  0.64319  1.0000
  H   H4724     1.0  0.72007  0.72672  0.59731  1.0000
  C   C2687     1.0  0.77483  0.70120  0.76248  1.0000
  H   H4725     1.0  0.69348  0.68041  0.61672  1.0000
  H   H4726     1.0  0.64146  0.58794  0.61268  1.0000
  N   N147      1.0  0.71368  0.58430  0.80134  1.0000
  C   C2688     1.0  0.70517  0.63925  0.62160  1.0000
  H   H4727     1.0  0.73854  0.92924  0.77212  1.0000
  C   C2689     1.0  0.71345  0.65743  0.58493  1.0000
  C   C2690     1.0  0.69095  0.66772  0.58163  1.0000
  H   H4728     1.0  0.69996  0.59879  0.82831  1.0000
  C   C2691     1.0  0.75001  0.62489  0.60073  1.0000
  C   C2692     1.0  0.70912  0.63282  0.64436  1.0000
  C   C2693     1.0  0.69624  0.61660  0.65778  1.0000
  C   C2694     1.0  0.69012  0.67065  0.55850  1.0000
  C   C2695     1.0  0.77208  0.78369  0.64459  1.0000
  Fe  Fe297     1.0  0.78486  0.79550  0.79995  1.0000
  H   H4729     1.0  0.62861  0.73450  0.88843  1.0000
  H   H4730     1.0  0.68814  0.64577  0.62293  1.0000
  H   H4731     1.0  0.70791  0.62467  0.61537  1.0000
  H   H4732     1.0  0.72412  0.66682  0.57317  1.0000
  H   H4733     1.0  0.61745  0.89165  0.87219  1.0000
  Fe  Fe298     1.0  0.64973  0.94656  0.81693  1.0000
  H   H4734     1.0  0.71713  0.64194  0.58024  1.0000
  H   H4735     1.0  0.62332  0.65525  0.67664  1.0000
  H   H4736     1.0  0.67971  0.65767  0.59120  1.0000
  H   H4737     1.0  0.75448  0.56722  0.69308  1.0000
  S   S593      1.0  0.68909  0.52778  0.71271  1.0000
  H   H4738     1.0  0.74777  0.62414  0.58517  1.0000
  H   H4739     1.0  0.74277  0.61274  0.61282  1.0000
  C   C2696     1.0  0.63577  0.74285  0.81328  1.0000
  H   H4740     1.0  0.70459  0.64656  0.65203  1.0000
  H   H4741     1.0  0.67927  0.62294  0.65839  1.0000
  H   H4742     1.0  0.70090  0.60214  0.65120  1.0000
  H   H4743     1.0  0.69904  0.61241  0.67406  1.0000
  H   H4744     1.0  0.67403  0.67757  0.55594  1.0000
  H   H4745     1.0  0.72366  0.64402  0.87373  1.0000
  H   H4746     1.0  0.69538  0.65539  0.55325  1.0000
  H   H4747     1.0  0.75490  0.73163  0.56309  1.0000
  H   H4748     1.0  0.78367  0.63627  0.73034  1.0000
  C   C2697     1.0  0.64929  0.83910  0.59104  1.0000
  N   N148      1.0  0.76192  0.63238  0.69860  1.0000
  C   C2698     1.0  0.77709  0.63045  0.67805  1.0000
  C   C2699     1.0  0.77168  0.61703  0.71596  1.0000
  C   C2700     1.0  0.74252  0.62506  0.69844  1.0000
  C   C2701     1.0  0.75566  0.65467  0.70236  1.0000
  C   C2702     1.0  0.77225  0.66881  0.69380  1.0000
  C   C2703     1.0  0.76870  0.64229  0.65786  1.0000
  C   C2704     1.0  0.72386  0.62913  0.71707  1.0000
  H   H4749     1.0  0.78141  0.69947  0.62080  1.0000
  H   H4750     1.0  0.70031  0.68163  0.54868  1.0000
  C   C2705     1.0  0.76392  0.69010  0.70040  1.0000
  H   H4751     1.0  0.61974  0.63051  0.56583  1.0000
  C   C2706     1.0  0.71153  0.61155  0.72431  1.0000
  H   H4752     1.0  0.72855  0.95218  0.96301  1.0000
  Fe  Fe299     1.0  0.60407  0.71265  0.58807  1.0000
  H   H4753     1.0  0.76003  0.61405  0.73070  1.0000
  H   H4754     1.0  0.77566  0.70029  0.69361  1.0000
  H   H4755     1.0  0.74650  0.60805  0.69760  1.0000
  H   H4756     1.0  0.73608  0.63318  0.68416  1.0000
  H   H4757     1.0  0.74190  0.66343  0.69521  1.0000
  H   H4758     1.0  0.75022  0.65448  0.71950  1.0000
  H   H4759     1.0  0.77983  0.51362  0.79222  1.0000
  C   C2707     1.0  0.60273  0.69401  0.68628  1.0000
  H   H4760     1.0  0.75981  0.63244  0.65387  1.0000
  H   H4761     1.0  0.75799  0.65744  0.66005  1.0000
  H   H4762     1.0  0.71307  0.64415  0.71214  1.0000
  H   H4763     1.0  0.72876  0.63094  0.73087  1.0000
  H   H4764     1.0  0.71129  0.92203  0.96202  1.0000
  C   C2708     1.0  0.65940  0.58883  0.63439  1.0000
  H   H4765     1.0  0.62229  0.84860  0.62825  1.0000
  S   S594      1.0  0.77654  0.76972  0.52978  1.0000
  H   H4766     1.0  0.73891  0.91080  0.93140  1.0000
  H   H4767     1.0  0.78423  0.87745  0.70521  1.0000
  H   H4768     1.0  0.74925  0.69815  0.69476  1.0000
  H   H4769     1.0  0.76070  0.68798  0.71780  1.0000
  H   H4770     1.0  0.63326  0.87016  0.62925  1.0000
  H   H4771     1.0  0.77752  0.60123  0.71179  1.0000
  C   C2709     1.0  0.76924  0.89753  0.79442  1.0000
  H   H4772     1.0  0.70369  0.61132  0.71174  1.0000
  H   H4773     1.0  0.72195  0.59610  0.72848  1.0000
  H   H4774     1.0  0.69946  0.61427  0.73852  1.0000
  H   H4775     1.0  0.70919  0.86962  0.53932  1.0000
  H   H4776     1.0  0.72335  0.90922  0.73256  1.0000
  C   C2710     1.0  0.61848  0.75524  0.82384  1.0000
  H   H4777     1.0  0.74434  0.89606  0.96249  1.0000
  H   H4778     1.0  0.69489  0.98721  0.90420  1.0000
  H   H4779     1.0  0.74377  0.59126  0.78455  1.0000
  H   H4780     1.0  0.64024  0.87324  0.55786  1.0000
  H   H4781     1.0  0.61602  0.90331  0.77569  1.0000
  C   C2711     1.0  0.62689  0.82783  0.80832  1.0000
  H   H4782     1.0  0.77057  0.84972  0.71292  1.0000
  H   H4783     1.0  0.78165  0.76912  0.71823  1.0000
  C   C2712     1.0  0.61251  0.93926  0.74598  1.0000
  H   H4784     1.0  0.60180  0.71908  0.50253  1.0000
  H   H4785     1.0  0.61999  0.81629  0.75287  1.0000
  H   H4786     1.0  0.76890  0.74759  0.49869  1.0000
  H   H4787     1.0  0.73272  0.60324  0.80692  1.0000
  H   H4788     1.0  0.67791  0.86573  0.52831  1.0000
  H   H4789     1.0  0.60387  0.79350  0.71496  1.0000
  H   H4790     1.0  0.63470  0.51795  0.59211  1.0000
  C   C2713     1.0  0.63958  0.87323  0.90781  1.0000
  C   C2714     1.0  0.60328  0.87228  0.55166  1.0000
  C   C2715     1.0  0.63701  0.81990  0.90993  1.0000
  C   C2716     1.0  0.63968  0.79812  0.92434  1.0000
  C   C2717     1.0  0.64286  0.88901  0.91900  1.0000
  C   C2718     1.0  0.78941  0.84721  0.66658  1.0000
  H   H4791     1.0  0.63746  0.85265  0.87936  1.0000
  H   H4792     1.0  0.71676  0.92532  0.76374  1.0000
  H   H4793     1.0  0.60463  0.73289  0.66179  1.0000
  C   C2719     1.0  0.75743  0.71124  0.49791  1.0000
  H   H4794     1.0  0.64450  0.87902  0.89070  1.0000
  H   H4795     1.0  0.65000  0.85815  0.91259  1.0000
  S   S595      1.0  0.64532  0.96606  0.78548  1.0000
  H   H4796     1.0  0.63911  0.81731  0.89377  1.0000
  H   H4797     1.0  0.64967  0.82731  0.91045  1.0000
  H   H4798     1.0  0.65573  0.78907  0.91974  1.0000
  H   H4799     1.0  0.63725  0.79947  0.94097  1.0000
  H   H4800     1.0  0.62832  0.78926  0.92309  1.0000
  H   H4801     1.0  0.65962  0.88987  0.91533  1.0000
  H   H4802     1.0  0.63372  0.90497  0.91384  1.0000
  H   H4803     1.0  0.63809  0.88401  0.93631  1.0000
  H   H4804     1.0  0.65741  0.86732  0.59595  1.0000
  N   N149      1.0  0.75392  0.92522  0.96037  1.0000
  C   C2720     1.0  0.76387  0.71582  0.56288  1.0000
  H   H4805     1.0  0.68711  0.60951  0.80697  1.0000
  S   S596      1.0  0.72120  0.87118  0.95003  1.0000
  C   C2721     1.0  0.75037  0.56327  0.49990  1.0000
  N   N150      1.0  0.75228  0.89206  0.71694  1.0000
  H   H4806     1.0  0.70951  0.87527  0.78909  1.0000
  H   H4807     1.0  0.74076  0.92543  0.71683  1.0000
  C   C2722     1.0  0.67707  0.97548  0.93441  1.0000
  H   H4808     1.0  0.60265  0.73410  0.88642  1.0000
  H   H4809     1.0  0.62187  0.92569  0.71047  1.0000
  H   H4810     1.0  0.63278  0.92771  0.67247  1.0000
  S   S597      1.0  0.75997  0.66463  0.54423  1.0000
  H   H4811     1.0  0.61772  0.83972  0.55484  1.0000
  H   H4812     1.0  0.63057  0.69638  0.91024  1.0000
  H   H4813     1.0  0.75908  0.71635  0.85575  1.0000
  C   C2723     1.0  0.76758  0.55735  0.75533  1.0000
  H   H4814     1.0  0.64817  0.58363  0.84873  1.0000
  C   C2724     1.0  0.62043  0.70280  0.89836  1.0000
  H   H4815     1.0  0.68949  0.55553  0.79836  1.0000
  H   H4816     1.0  0.73197  0.58760  0.59692  1.0000
  C   C2725     1.0  0.66810  0.69869  0.64919  1.0000
  H   H4817     1.0  0.75036  0.88895  0.59501  1.0000
  H   H4818     1.0  0.77897  0.70265  0.64720  1.0000
  C   C2726     1.0  0.60990  0.79448  0.72854  1.0000
  H   H4819     1.0  0.72482  0.93766  0.93087  1.0000
  C   C2727     1.0  0.74675  0.89626  0.69570  1.0000
  H   H4820     1.0  0.61593  0.97521  0.75635  1.0000
  Fe  Fe300     1.0  0.66034  0.65858  0.76754  1.0000
  H   H4821     1.0  0.71736  0.88402  0.70577  1.0000
  C   C2728     1.0  0.75672  0.70183  0.55533  1.0000
  H   H4822     1.0  0.78112  0.77734  0.87557  1.0000
  C   C2729     1.0  0.74667  0.93242  0.90268  1.0000
  C   C2730     1.0  0.64075  0.85712  0.55583  1.0000
  H   H4823     1.0  0.72344  0.57421  0.62344  1.0000
  H   H4824     1.0  0.75463  0.94977  0.93219  1.0000
  H   H4825     1.0  0.72791  0.88675  0.66701  1.0000
  H   H4826     1.0  0.71475  0.59579  0.50657  1.0000
  C   C2731     1.0  0.76867  0.68161  0.55442  1.0000
  C   C2732     1.0  0.61483  0.72714  0.89600  1.0000
  H   H4827     1.0  0.66458  0.63896  0.73414  1.0000
  H   H4828     1.0  0.77572  0.88963  0.82554  1.0000
  Fe  Fe301     1.0  0.67854  0.68936  0.73022  1.0000
  C   C2733     1.0  0.68227  0.68940  0.68079  1.0000
  H   H4829     1.0  0.75704  0.96522  0.96461  1.0000
  H   H4830     1.0  0.66169  0.82820  0.59894  1.0000
  H   H4831     1.0  0.76193  0.65177  0.88827  1.0000
  C   C2734     1.0  0.72223  0.70027  0.51034  1.0000
  C   C2735     1.0  0.72337  0.89807  0.69589  1.0000
  H   H4832     1.0  0.73513  0.86877  0.79538  1.0000
  C   C2736     1.0  0.72123  0.62060  0.77950  1.0000
  S   S598      1.0  0.65304  0.62624  0.77917  1.0000
  H   H4833     1.0  0.75083  0.54421  0.85473  1.0000
  C   C2737     1.0  0.62816  0.87820  0.84443  1.0000
  H   H4834     1.0  0.66956  0.58065  0.81377  1.0000
  H   H4835     1.0  0.76813  0.52497  0.54023  1.0000
  H   H4836     1.0  0.63534  0.83179  0.59714  1.0000
  H   H4837     1.0  0.70379  0.96468  0.84950  1.0000
  C   C2738     1.0  0.67748  0.58172  0.82596  1.0000
  C   C2739     1.0  0.75166  0.70255  0.85924  1.0000
  H   H4838     1.0  0.60894  0.54939  0.54146  1.0000
  C   C2740     1.0  0.63667  0.85529  0.62346  1.0000
  C   C2741     1.0  0.74802  0.77887  0.88647  1.0000
  S   S599      1.0  0.61439  0.74291  0.57052  1.0000
  H   H4839     1.0  0.78063  0.85928  0.59383  1.0000
  H   H4840     1.0  0.66541  0.70963  0.63492  1.0000
  C   C2742     1.0  0.73550  0.53913  0.54272  1.0000
  H   H4841     1.0  0.74271  0.69714  0.90001  1.0000
  S   S600      1.0  0.68088  0.93658  0.74198  1.0000
  C   C2743     1.0  0.69496  0.59442  0.81572  1.0000
  H   H4842     1.0  0.78009  0.65444  0.62476  1.0000
  Fe  Fe302     1.0  0.70595  0.52447  0.67979  1.0000
  C   C2744     1.0  0.71969  0.90085  0.67373  1.0000
  C   C2745     1.0  0.68866  0.97398  0.91424  1.0000
  H   H4843     1.0  0.64739  0.72545  0.78857  1.0000
  H   H4844     1.0  0.78048  0.77320  0.74397  1.0000
  H   H4845     1.0  0.65367  0.60880  0.83396  1.0000
  Fe  Fe303     1.0  0.64172  0.70500  0.76293  1.0000
  S   S601      1.0  0.69583  0.69537  0.69673  1.0000
  C   C2746     1.0  0.67914  0.70330  0.66197  1.0000
  C   C2747     1.0  0.77556  0.89021  0.71383  1.0000
  S   S602      1.0  0.60049  0.80719  0.87459  1.0000
  H   H4846     1.0  0.72522  0.91494  0.66326  1.0000
  C   C2748     1.0  0.73446  0.95388  0.83186  1.0000
  H   H4847     1.0  0.76855  0.73689  0.62393  1.0000
  H   H4848     1.0  0.75269  0.62410  0.76220  1.0000
  C   C2749     1.0  0.74066  0.64714  0.60572  1.0000
  H   H4849     1.0  0.60847  0.87600  0.53430  1.0000
  H   H4850     1.0  0.78499  0.56356  0.70862  1.0000
  H   H4851     1.0  0.68496  0.71777  0.65746  1.0000
  C   C2750     1.0  0.70746  0.58090  0.78248  1.0000
  H   H4852     1.0  0.72057  0.58201  0.76853  1.0000
  H   H4853     1.0  0.71488  0.67351  0.62942  1.0000
  H   H4854     1.0  0.76453  0.70429  0.92844  1.0000
  H   H4855     1.0  0.72577  0.62574  0.64465  1.0000
  H   H4856     1.0  0.71406  0.91216  0.70205  1.0000
  H   H4857     1.0  0.59923  0.55328  0.51794  1.0000
  S   S603      1.0  0.77815  0.60555  0.79373  1.0000
  C   C2751     1.0  0.63399  0.73527  0.79639  1.0000
  S   S604      1.0  0.73664  0.52770  0.68495  1.0000
  N   N151      1.0  0.64061  0.50401  0.49307  1.0000
  H   H4858     1.0  0.66473  0.50233  0.52357  1.0000
  C   C2752     1.0  0.78040  0.70993  0.77663  1.0000
  H   H4859     1.0  0.60897  0.69293  0.81698  1.0000
  H   H4860     1.0  0.68824  0.83776  0.57013  1.0000
  C   C2753     1.0  0.74790  0.58420  0.50702  1.0000
  H   H4861     1.0  0.63751  0.72694  0.72556  1.0000
  C   C2754     1.0  0.71219  0.71405  0.60782  1.0000
  H   H4862     1.0  0.73269  0.83362  0.74292  1.0000
  H   H4863     1.0  0.65969  0.82214  0.54459  1.0000
  H   H4864     1.0  0.65049  0.73873  0.81839  1.0000
  H   H4865     1.0  0.65334  0.73316  0.69954  1.0000
  S   S605      1.0  0.74616  0.76311  0.86994  1.0000
  S   S606      1.0  0.64634  0.68212  0.74204  1.0000
  C   C2755     1.0  0.59948  0.76061  0.81710  1.0000
  H   H4866     1.0  0.78224  0.61365  0.67666  1.0000
  C   C2756     1.0  0.75197  0.55746  0.60619  1.0000
  H   H4867     1.0  0.73086  0.63375  0.89910  1.0000
  C   C2757     1.0  0.75576  0.95392  0.82858  1.0000
  H   H4868     1.0  0.71684  0.98349  0.86988  1.0000
  H   H4869     1.0  0.76331  0.91356  0.74415  1.0000
  H   H4870     1.0  0.74724  0.72545  0.91451  1.0000
  H   H4871     1.0  0.71556  0.54650  0.78522  1.0000
  S   S607      1.0  0.66650  0.96806  0.82422  1.0000
  H   H4872     1.0  0.71904  0.84153  0.54198  1.0000
  Fe  Fe304     1.0  0.69553  0.94879  0.80829  1.0000
  H   H4873     1.0  0.62682  0.86454  0.83866  1.0000
  N   N152      1.0  0.61439  0.96045  0.73158  1.0000
  S   S608      1.0  0.69451  0.96858  0.77601  1.0000
  H   H4874     1.0  0.62955  0.81121  0.57602  1.0000
  C   C2758     1.0  0.70161  0.55941  0.78430  1.0000
  H   H4875     1.0  0.62535  0.67309  0.70507  1.0000
  H   H4876     1.0  0.67464  0.86443  0.56508  1.0000
  C   C2759     1.0  0.61977  0.73894  0.70075  1.0000
  C   C2760     1.0  0.78130  0.52865  0.63369  1.0000
  H   H4877     1.0  0.78754  0.85977  0.61722  1.0000
  C   C2761     1.0  0.60045  0.65697  0.63437  1.0000
  H   H4878     1.0  0.76680  0.94560  0.81721  1.0000
  H   H4879     1.0  0.75638  0.88414  0.68673  1.0000
  H   H4880     1.0  0.69514  0.71932  0.60841  1.0000
  H   H4881     1.0  0.75073  0.91139  0.68606  1.0000
  C   C2762     1.0  0.62015  0.71736  0.69581  1.0000
  H   H4882     1.0  0.63781  0.75379  0.71310  1.0000
  H   H4883     1.0  0.76284  0.71020  0.75384  1.0000
  H   H4884     1.0  0.63209  0.71576  0.68110  1.0000
  C   C2763     1.0  0.76901  0.57041  0.68298  1.0000
  C   C2764     1.0  0.75347  0.66488  0.87764  1.0000
  C   C2765     1.0  0.66047  0.82002  0.56139  1.0000
  H   H4885     1.0  0.61229  0.67889  0.51883  1.0000
  H   H4886     1.0  0.62657  0.70468  0.70799  1.0000
  H   H4887     1.0  0.74693  0.94942  0.89696  1.0000
  H   H4888     1.0  0.77192  0.57238  0.74808  1.0000
  H   H4889     1.0  0.63212  0.82438  0.77644  1.0000
  H   H4890     1.0  0.60548  0.69731  0.90558  1.0000
  C   C2766     1.0  0.78481  0.68091  0.75928  1.0000
  C   C2767     1.0  0.66074  0.59283  0.84183  1.0000
  H   H4891     1.0  0.71679  0.90939  0.98730  1.0000
  H   H4892     1.0  0.64188  0.83281  0.80626  1.0000
  Fe  Fe305     1.0  0.78014  0.75218  0.79774  1.0000
  H   H4893     1.0  0.72045  0.68037  0.87759  1.0000
  H   H4894     1.0  0.78162  0.63044  0.58753  1.0000
  C   C2768     1.0  0.78254  0.70926  0.57024  1.0000
  C   C2769     1.0  0.77251  0.95506  0.96009  1.0000
  H   H4895     1.0  0.61552  0.84515  0.87553  1.0000
  H   H4896     1.0  0.65021  0.57953  0.64812  1.0000
  C   C2770     1.0  0.62017  0.85700  0.88151  1.0000
  C   C2771     1.0  0.64618  0.60017  0.61787  1.0000
  C   C2772     1.0  0.73042  0.57198  0.60713  1.0000
  C   C2773     1.0  0.64639  0.80420  0.57452  1.0000
  H   H4897     1.0  0.73766  0.69029  0.59778  1.0000
  C   C2774     1.0  0.70653  0.77769  0.53249  1.0000
  H   H4898     1.0  0.73263  0.94372  0.74712  1.0000
  H   H4899     1.0  0.74292  0.63744  0.78396  1.0000
  H   H4900     1.0  0.61964  0.85037  0.78089  1.0000
  C   C2775     1.0  0.76291  0.96481  0.83974  1.0000
  C   C2776     1.0  0.60354  0.81404  0.75822  1.0000
  H   H4901     1.0  0.76275  0.55213  0.54007  1.0000
  H   H4902     1.0  0.77939  0.96488  0.83688  1.0000
  H   H4903     1.0  0.73823  0.55661  0.80114  1.0000
  N   N153      1.0  0.65624  0.84123  0.56748  1.0000
  H   H4904     1.0  0.75333  0.86750  0.74494  1.0000
  H   H4905     1.0  0.66301  0.50949  0.67893  1.0000
  H   H4906     1.0  0.63785  0.95375  0.66842  1.0000
  C   C2777     1.0  0.74032  0.92750  0.92664  1.0000
  C   C2778     1.0  0.74898  0.97547  0.85472  1.0000
  H   H4907     1.0  0.73515  0.92858  0.89572  1.0000
  H   H4908     1.0  0.64121  0.61515  0.57749  1.0000
  H   H4909     1.0  0.71536  0.71144  0.62380  1.0000
  C   C2779     1.0  0.74960  0.83220  0.73595  1.0000
  C   C2780     1.0  0.77197  0.70739  0.89434  1.0000
  C   C2781     1.0  0.61509  0.83343  0.91662  1.0000
  S   S609      1.0  0.61276  0.72967  0.76932  1.0000
  C   C2782     1.0  0.63206  0.63129  0.57370  1.0000
  H   H4910     1.0  0.61439  0.60104  0.59807  1.0000
  H   H4911     1.0  0.75180  0.91190  0.60350  1.0000
  H   H4912     1.0  0.77343  0.51100  0.51080  1.0000
  H   H4913     1.0  0.78510  0.66630  0.83747  1.0000
  H   H4914     1.0  0.59925  0.81145  0.79877  1.0000
  H   H4915     1.0  0.72352  0.99113  0.78393  1.0000
  C   C2783     1.0  0.78067  0.81298  0.68255  1.0000
  H   H4916     1.0  0.78063  0.67440  0.74811  1.0000
  C   C2784     1.0  0.59647  0.81305  0.73824  1.0000
  Fe  Fe306     1.0  0.78016  0.75949  0.56339  1.0000
  H   H4917     1.0  0.66757  0.59422  0.85473  1.0000
  H   H4918     1.0  0.77321  0.72822  0.91384  1.0000
  C   C2785     1.0  0.63653  0.82035  0.98047  1.0000
  H   H4919     1.0  0.64963  0.79851  0.59061  1.0000
  H   H4920     1.0  0.78304  0.78194  0.65505  1.0000
  H   H4921     1.0  0.74672  0.57418  0.82558  1.0000
  N   N154      1.0  0.76266  0.68426  0.87349  1.0000
  N   N155      1.0  0.77075  0.51979  0.62135  1.0000
  H   H4922     1.0  0.73467  0.55950  0.50227  1.0000
  C   C2786     1.0  0.59780  0.75334  0.79983  1.0000
  C   C2787     1.0  0.69365  0.55925  0.76503  1.0000
  H   H4923     1.0  0.73455  0.93767  0.98742  1.0000
  H   H4924     1.0  0.74481  0.85431  0.70765  1.0000
  C   C2788     1.0  0.76713  0.78390  0.88570  1.0000
  C   C2789     1.0  0.72977  0.66748  0.88747  1.0000
  H   H4925     1.0  0.64595  0.85781  0.53862  1.0000
  C   C2790     1.0  0.59765  0.68707  0.54897  1.0000
  H   H4926     1.0  0.77979  0.60313  0.59649  1.0000
  H   H4927     1.0  0.75953  0.69224  0.64070  1.0000
  H   H4928     1.0  0.77349  0.89088  0.78000  1.0000
  H   H4929     1.0  0.61064  0.97902  0.81981  1.0000
  H   H4930     1.0  0.75889  0.55729  0.58936  1.0000
  C   C2791     1.0  0.59941  0.67738  0.53215  1.0000
  C   C2792     1.0  0.78398  0.51851  0.59979  1.0000
  H   H4931     1.0  0.77582  0.85795  0.88414  1.0000
  H   H4932     1.0  0.77318  0.91340  0.79057  1.0000
  H   H4933     1.0  0.76943  0.53761  0.64479  1.0000
  H   H4934     1.0  0.60918  0.69593  0.54858  1.0000
  H   H4935     1.0  0.59395  0.53145  0.53946  1.0000
  H   H4936     1.0  0.78531  0.71316  0.51958  1.0000
  H   H4937     1.0  0.62720  0.53939  0.57130  1.0000
  H   H4938     1.0  0.78318  0.80018  0.89852  1.0000
  C   C2793     1.0  0.62188  0.53120  0.58766  1.0000
  H   H4939     1.0  0.66676  0.80493  0.98762  1.0000
  H   H4940     1.0  0.75215  0.89937  0.80039  1.0000
  H   H4941     1.0  0.77617  0.67193  0.67641  1.0000
  H   H4942     1.0  0.73093  0.52696  0.53726  1.0000
  H   H4943     1.0  0.77479  0.51560  0.58956  1.0000
  H   H4944     1.0  0.76192  0.56447  0.61222  1.0000
  H   H4945     1.0  0.78514  0.89879  0.58127  1.0000
  H   H4946     1.0  0.78799  0.89667  0.60788  1.0000
  S   S610      1.0  0.77960  0.82949  0.78376  1.0000
  C   C2794     1.0  0.61011  0.67337  0.70148  1.0000
  C   C2795     1.0  0.78732  0.67510  0.56181  1.0000
  H   H4947     1.0  0.72652  0.67084  0.90345  1.0000
  H   H4948     1.0  0.61261  0.83303  0.93375  1.0000
  C   C2796     1.0  0.77129  0.93136  0.96656  1.0000
  H   H4949     1.0  0.78047  0.88541  0.72924  1.0000
  S   S611      1.0  0.60579  0.71744  0.61946  1.0000
  H   H4950     1.0  0.61200  0.84998  0.57857  1.0000
  H   H4951     1.0  0.69193  0.95463  0.97779  1.0000
  H   H4952     1.0  0.60158  0.69097  0.73536  1.0000
  C   C2797     1.0  0.78422  0.91016  0.70129  1.0000
  H   H4953     1.0  0.76399  0.67671  0.90660  1.0000
  H   H4954     1.0  0.78522  0.79671  0.68979  1.0000
  H   H4955     1.0  0.77156  0.89453  0.95530  1.0000
  C   C2798     1.0  0.78630  0.56825  0.69178  1.0000
  H   H4956     1.0  0.77552  0.86756  0.81493  1.0000
  H   H4957     1.0  0.78356  0.91280  0.68445  1.0000
  H   H4958     1.0  0.61898  0.63964  0.70282  1.0000
  H   H4959     1.0  0.70747  0.70056  0.50569  1.0000
  C   C2799     1.0  0.61252  0.65409  0.69216  1.0000
  C   C2800     1.0  0.59825  0.82804  0.78998  1.0000
  H   H4960     1.0  0.78768  0.86978  0.55945  1.0000
  H   H4961     1.0  0.60000  0.93882  0.88748  1.0000
  C   C2801     1.0  0.72990  0.60077  0.49920  1.0000
  H   H4962     1.0  0.72940  0.61595  0.50335  1.0000
  C   C2802     1.0  0.78963  0.58045  0.64827  1.0000
  H   H4963     1.0  0.73395  0.75350  0.49359  1.0000
  H   H4964     1.0  0.68076  0.93148  0.98763  1.0000
  S   S612      1.0  0.75950  0.98786  0.86891  1.0000
  Fe  Fe307     1.0  0.66414  0.98599  0.79160  1.0000
  H   H4965     1.0  0.59827  0.88199  0.86506  1.0000
  H   H4966     1.0  0.60251  0.88622  0.55814  1.0000
  H   H4967     1.0  0.59959  0.93328  0.74337  1.0000
  S   S613      1.0  0.79176  0.72664  0.57931  1.0000
  H   H4968     1.0  0.59683  0.95022  0.77568  1.0000
  H   H4969     1.0  0.76238  0.59061  0.50030  1.0000
  H   H4970     1.0  0.59714  0.65251  0.69026  1.0000
  C   C2803     1.0  0.78978  0.62298  0.72193  1.0000
  C   C2804     1.0  0.76560  0.49877  0.63343  1.0000
  C   C2805     1.0  0.79121  0.77015  0.72903  1.0000
  C   C2806     1.0  0.78654  0.64650  0.63909  1.0000
  H   H4971     1.0  0.77811  0.95960  0.94285  1.0000
  H   H4972     1.0  0.59824  0.67135  0.71622  1.0000
  H   H4973     1.0  0.59906  0.71733  0.73743  1.0000
  H   H4974     1.0  0.60908  0.64871  0.64712  1.0000
  S   S614      1.0  0.70773  0.50095  0.65996  1.0000
  H   H4975     1.0  0.64241  0.98739  0.98350  1.0000
  C   C2807     1.0  0.66554  0.49946  0.66782  1.0000
  H   H4976     1.0  0.78231  0.95727  0.98790  1.0000
  H   H4977     1.0  0.79115  0.84902  0.74068  1.0000
  H   H4978     1.0  0.78679  0.92232  0.95989  1.0000
  C   C2808     1.0  0.78595  0.67934  0.86465  1.0000
  H   H4979     1.0  0.78971  0.59897  0.75080  1.0000
  H   H4980     1.0  0.60139  0.89265  0.74768  1.0000
  H   H4981     1.0  0.59807  0.82753  0.72604  1.0000
  H   H4982     1.0  0.73967  0.49605  0.62029  1.0000
  H   H4983     1.0  0.79173  0.63539  0.67762  1.0000
  C   C2809     1.0  0.78672  0.54956  0.50368  1.0000
  H   H4984     1.0  0.78708  0.56293  0.51054  1.0000
  H   H4985     1.0  0.60660  0.49470  0.61289  1.0000
  H   H4986     1.0  0.63331  0.61006  0.49354  1.0000
  H   H4987     1.0  0.78873  0.70010  0.89396  1.0000
  H   H4988     1.0  0.78831  0.53393  0.59182  1.0000
  H   H4989     1.0  0.79108  0.58472  0.63143  1.0000
  C   C2810     1.0  0.78798  0.95977  0.97059  1.0000
  S   S615      1.0  0.79038  0.73676  0.82808  1.0000
  H   H4990     1.0  0.59347  0.60065  0.57306  1.0000
  H   H4991     1.0  0.59526  0.98632  0.71396  1.0000
  H   H4992     1.0  0.66280  0.52375  0.48991  1.0000
  C   C2811     1.0  0.59407  0.64103  0.62515  1.0000
  H   H4993     1.0  0.59680  0.60033  0.62238  1.0000
  H   H4994     1.0  0.78956  0.97647  0.96471  1.0000
  H   H4995     1.0  0.79033  0.54040  0.62299  1.0000
  C   C2812     1.0  0.59334  0.97267  0.72727  1.0000
  C   C2813     1.0  0.59322  0.73114  0.49129  1.0000
  H   H4996     1.0  0.80507  0.30590  0.13707  1.0000
  Fe  Fe308     1.0  0.85731  0.05122  0.18026  1.0000
  Fe  Fe309     1.0  0.93470  0.18296  0.09548  1.0000
  S   S616      1.0  0.83888  0.02403  0.06196  1.0000
  Fe  Fe310     1.0  0.87290  0.30832  0.17334  1.0000
  S   S617      1.0  0.88984  0.33070  0.17891  1.0000
  S   S618      1.0  0.88203  0.27367  0.17341  1.0000
  Fe  Fe311     1.0  0.83504  0.34253  0.16469  1.0000
  S   S619      1.0  0.84847  0.36814  0.16910  1.0000
  H   H4997     1.0  0.84281  0.47676  0.00624  1.0000
  Fe  Fe312     1.0  0.87868  0.35281  0.15081  1.0000
  S   S620      1.0  0.89863  0.36925  0.12210  1.0000
  Fe  Fe313     1.0  0.85826  0.34414  0.19672  1.0000
  S   S621      1.0  0.85263  0.35123  0.22884  1.0000
  S   S622      1.0  0.86435  0.32922  0.14393  1.0000
  S   S623      1.0  0.84245  0.31971  0.19362  1.0000
  H   H4998     1.0  0.89811  0.10373  0.28062  1.0000
  S   S624      1.0  0.97564  0.44365  0.07376  1.0000
  S   S625      1.0  0.94075  0.43999  0.13130  1.0000
  H   H4999     1.0  0.95244  0.00184  0.34123  1.0000
  H   H5000     1.0  0.85151  0.44903  0.00651  1.0000
  C   C2814     1.0  0.84755  0.37316  0.09532  1.0000
  H   H5001     1.0  0.84895  0.30128  0.10926  1.0000
  S   S626      1.0  0.93376  0.07614  0.40284  1.0000
  S   S627      1.0  0.88134  0.10924  0.38843  1.0000
  H   H5002     1.0  0.95193  0.03525  0.10832  1.0000
  H   H5003     1.0  0.84418  0.16005  0.33355  1.0000
  S   S628      1.0  0.94174  0.01573  0.41358  1.0000
  Fe  Fe314     1.0  0.80435  0.27053  0.32301  1.0000
  S   S629      1.0  0.83925  0.26341  0.32065  1.0000
  Fe  Fe315     1.0  0.82937  0.05756  0.04585  1.0000
  Fe  Fe316     1.0  0.90278  0.05365  0.17023  1.0000
  S   S630      1.0  0.92370  0.07519  0.16906  1.0000
  S   S631      1.0  0.87977  0.05822  0.14966  1.0000
  S   S632      1.0  0.91362  0.01913  0.17135  1.0000
  H   H5004     1.0  0.93047  0.28886  0.02147  1.0000
  Fe  Fe317     1.0  0.94331  0.19022  0.24086  1.0000
  S   S633      1.0  0.91254  0.18377  0.24001  1.0000
  S   S634      1.0  0.95142  0.22193  0.22483  1.0000
  Fe  Fe318     1.0  0.95590  0.14750  0.26785  1.0000
  S   S635      1.0  0.92616  0.13771  0.26900  1.0000
  Fe  Fe319     1.0  0.93090  0.15218  0.23473  1.0000
  H   H5005     1.0  0.91280  0.14655  0.38541  1.0000
  Fe  Fe320     1.0  0.91054  0.17018  0.27416  1.0000
  S   S636      1.0  0.87912  0.17532  0.29573  1.0000
  C   C2815     1.0  0.89830  0.15880  0.38428  1.0000
  S   S637      1.0  0.93988  0.17897  0.27591  1.0000
  S   S638      1.0  0.92357  0.15751  0.08802  1.0000
  S   S639      1.0  0.92260  0.19737  0.12412  1.0000
  Fe  Fe321     1.0  0.92192  0.17876  0.05663  1.0000
  S   S640      1.0  0.89176  0.18327  0.04567  1.0000
  C   C2816     1.0  0.92332  0.15280  0.18762  1.0000
  C   C2817     1.0  0.92599  0.17337  0.18456  1.0000
  C   C2818     1.0  0.92480  0.18713  0.16522  1.0000
  C   C2819     1.0  0.92238  0.17992  0.14838  1.0000
  C   C2820     1.0  0.91982  0.14576  0.17111  1.0000
  H   H5006     1.0  0.92906  0.17849  0.19719  1.0000
  H   H5007     1.0  0.92637  0.20323  0.16309  1.0000
  C   C2821     1.0  0.93655  0.08488  0.14365  1.0000
  C   C2822     1.0  0.93801  0.07518  0.12705  1.0000
  C   C2823     1.0  0.94867  0.08304  0.10682  1.0000
  C   C2824     1.0  0.95523  0.11093  0.11969  1.0000
  C   C2825     1.0  0.94548  0.10250  0.14003  1.0000
  H   H5008     1.0  0.93108  0.06157  0.12991  1.0000
  H   H5009     1.0  0.96165  0.12488  0.11682  1.0000
  H   H5010     1.0  0.94470  0.10977  0.15291  1.0000
  H   H5011     1.0  0.88752  0.04541  0.24719  1.0000
  H   H5012     1.0  0.88904  0.02849  0.29401  1.0000
  C   C2826     1.0  0.85063  0.23995  0.31159  1.0000
  C   C2827     1.0  0.83802  0.22789  0.30839  1.0000
  C   C2828     1.0  0.84702  0.20843  0.30263  1.0000
  C   C2829     1.0  0.86864  0.20108  0.29967  1.0000
  C   C2830     1.0  0.88139  0.21361  0.30173  1.0000
  C   C2831     1.0  0.87234  0.23281  0.30825  1.0000
  H   H5013     1.0  0.82124  0.23313  0.31110  1.0000
  H   H5014     1.0  0.83715  0.19913  0.30046  1.0000
  H   H5015     1.0  0.89809  0.20802  0.29919  1.0000
  H   H5016     1.0  0.88207  0.24187  0.31117  1.0000
  C   C2832     1.0  0.97513  0.14155  0.15127  1.0000
  H   H5017     1.0  0.94663  0.34988  0.17808  1.0000
  S   S641      1.0  0.93055  0.20542  0.06517  1.0000
  C   C2833     1.0  0.83259  0.30236  0.01607  1.0000
  Fe  Fe322     1.0  0.92682  0.04622  0.42450  1.0000
  C   C2834     1.0  0.86840  0.07546  0.38257  1.0000
  C   C2835     1.0  0.97345  0.12649  0.37453  1.0000
  H   H5018     1.0  0.87275  0.06698  0.39729  1.0000
  C   C2836     1.0  0.80936  0.34731  0.33800  1.0000
  H   H5019     1.0  0.88163  0.17912  0.19310  1.0000
  H   H5020     1.0  0.89682  0.08891  0.09325  1.0000
  H   H5021     1.0  0.94281  0.99704  0.36851  1.0000
  H   H5022     1.0  0.83717  0.37498  0.06658  1.0000
  H   H5023     1.0  0.84309  0.20984  0.17987  1.0000
  C   C2837     1.0  0.85977  0.06565  0.37155  1.0000
  C   C2838     1.0  0.90221  0.25988  0.18668  1.0000
  C   C2839     1.0  0.91311  0.27033  0.19459  1.0000
  C   C2840     1.0  0.92892  0.25875  0.20558  1.0000
  C   C2841     1.0  0.93333  0.23672  0.20920  1.0000
  C   C2842     1.0  0.92288  0.22650  0.20065  1.0000
  C   C2843     1.0  0.90744  0.23799  0.18934  1.0000
  H   H5024     1.0  0.90941  0.28726  0.19212  1.0000
  H   H5025     1.0  0.93735  0.26677  0.21174  1.0000
  H   H5026     1.0  0.92711  0.20973  0.20241  1.0000
  H   H5027     1.0  0.89957  0.22990  0.18262  1.0000
  C   C2844     1.0  0.90948  0.38943  0.12481  1.0000
  C   C2845     1.0  0.90507  0.39610  0.14385  1.0000
  C   C2846     1.0  0.91453  0.41186  0.14562  1.0000
  C   C2847     1.0  0.92821  0.42115  0.12834  1.0000
  C   C2848     1.0  0.93230  0.41470  0.10923  1.0000
  C   C2849     1.0  0.92307  0.39878  0.10752  1.0000
  H   H5028     1.0  0.89458  0.38895  0.15726  1.0000
  H   H5029     1.0  0.91131  0.41679  0.16046  1.0000
  H   H5030     1.0  0.94269  0.42182  0.09582  1.0000
  H   H5031     1.0  0.92660  0.39356  0.09283  1.0000
  H   H5032     1.0  0.90900  0.04358  0.25950  1.0000
  S   S642      1.0  0.83419  0.08467  0.05654  1.0000
  H   H5033     1.0  0.95013  0.07553  0.09393  1.0000
  C   C2850     1.0  0.82735  0.34763  0.24196  1.0000
  H   H5034     1.0  0.91389  0.08758  0.31551  1.0000
  C   C2851     1.0  0.81270  0.05264  0.16352  1.0000
  C   C2852     1.0  0.90100  0.00472  0.38918  1.0000
  Fe  Fe323     1.0  0.93832  0.08498  0.43132  1.0000
  H   H5035     1.0  0.95353  0.10224  0.36011  1.0000
  H   H5036     1.0  0.94507  0.10383  0.02765  1.0000
  C   C2853     1.0  0.85440  0.01934  0.08069  1.0000
  H   H5037     1.0  0.80519  0.15237  0.18387  1.0000
  H   H5038     1.0  0.97189  0.22181  0.07518  1.0000
  C   C2854     1.0  0.87883  0.00965  0.11139  1.0000
  C   C2855     1.0  0.86440  0.02878  0.10896  1.0000
  C   C2856     1.0  0.85231  0.03372  0.09342  1.0000
  C   C2857     1.0  0.80048  0.34500  0.07708  1.0000
  H   H5039     1.0  0.87862  0.06732  0.07854  1.0000
  H   H5040     1.0  0.86263  0.03975  0.11893  1.0000
  H   H5041     1.0  0.84105  0.04837  0.09164  1.0000
  C   C2858     1.0  0.86315  0.14295  0.03206  1.0000
  C   C2859     1.0  0.86689  0.15931  0.03947  1.0000
  C   C2860     1.0  0.88737  0.16226  0.03692  1.0000
  H   H5042     1.0  0.84735  0.14066  0.03435  1.0000
  H   H5043     1.0  0.85389  0.16969  0.04725  1.0000
  C   C2861     1.0  0.80123  0.37393  0.43680  1.0000
  H   H5044     1.0  0.80529  0.33174  0.34593  1.0000
  N   N156      1.0  0.84640  0.21170  0.21061  1.0000
  C   C2862     1.0  0.84002  0.23541  0.20720  1.0000
  C   C2863     1.0  0.86391  0.20515  0.22267  1.0000
  C   C2864     1.0  0.85879  0.21155  0.24444  1.0000
  C   C2865     1.0  0.83949  0.29521  0.99722  1.0000
  H   H5045     1.0  0.79298  0.16834  0.38668  1.0000
  C   C2866     1.0  0.86917  0.22952  0.24409  1.0000
  H   H5046     1.0  0.86738  0.21485  0.18017  1.0000
  H   H5047     1.0  0.83502  0.24073  0.22240  1.0000
  H   H5048     1.0  0.85379  0.24265  0.19848  1.0000
  H   H5049     1.0  0.87816  0.21091  0.21289  1.0000
  H   H5050     1.0  0.86902  0.18770  0.22598  1.0000
  H   H5051     1.0  0.81828  0.21062  0.23483  1.0000
  H   H5052     1.0  0.86465  0.19777  0.25616  1.0000
  H   H5053     1.0  0.84181  0.21591  0.25063  1.0000
  H   H5054     1.0  0.98720  0.15129  0.37918  1.0000
  H   H5055     1.0  0.94912  0.16257  0.38985  1.0000
  S   S643      1.0  0.84359  0.06803  0.01187  1.0000
  H   H5056     1.0  0.79371  0.11366  0.41381  1.0000
  H   H5057     1.0  0.86363  0.23455  0.25942  1.0000
  H   H5058     1.0  0.88640  0.22438  0.24153  1.0000
  N   N157      1.0  0.89699  0.43888  0.04302  1.0000
  C   C2867     1.0  0.87836  0.43993  0.03391  1.0000
  C   C2868     1.0  0.90304  0.41712  0.05599  1.0000
  C   C2869     1.0  0.89058  0.45463  0.05730  1.0000
  C   C2870     1.0  0.91519  0.44502  0.02613  1.0000
  C   C2871     1.0  0.92583  0.43008  0.01065  1.0000
  C   C2872     1.0  0.86848  0.46198  0.02242  1.0000
  C   C2873     1.0  0.84107  0.20182  0.36649  1.0000
  C   C2874     1.0  0.90105  0.39805  0.04790  1.0000
  C   C2875     1.0  0.91176  0.37733  0.05999  1.0000
  H   H5059     1.0  0.92049  0.00189  0.31189  1.0000
  S   S644      1.0  0.79642  0.23258  0.03117  1.0000
  H   H5060     1.0  0.89213  0.16747  0.43499  1.0000
  H   H5061     1.0  0.86579  0.43401  0.04670  1.0000
  H   H5062     1.0  0.88232  0.42940  0.02250  1.0000
  H   H5063     1.0  0.91934  0.41468  0.05828  1.0000
  H   H5064     1.0  0.89289  0.41564  0.07202  1.0000
  H   H5065     1.0  0.87464  0.45379  0.06704  1.0000
  Fe  Fe324     1.0  0.81071  0.08444  0.00857  1.0000
  H   H5066     1.0  0.91058  0.46111  0.01690  1.0000
  H   H5067     1.0  0.92786  0.44600  0.03337  1.0000
  H   H5068     1.0  0.93137  0.06569  0.02147  1.0000
  H   H5069     1.0  0.93477  0.41537  0.01885  1.0000
  S   S645      1.0  0.96722  0.09706  0.42989  1.0000
  H   H5070     1.0  0.98667  0.15680  0.34337  1.0000
  C   C2876     1.0  0.94835  0.99767  0.25399  1.0000
  H   H5071     1.0  0.80767  0.18442  0.40774  1.0000
  H   H5072     1.0  0.88431  0.39743  0.05016  1.0000
  H   H5073     1.0  0.90788  0.39873  0.03106  1.0000
  H   H5074     1.0  0.90375  0.37466  0.07676  1.0000
  H   H5075     1.0  0.91114  0.36414  0.05318  1.0000
  H   H5076     1.0  0.92845  0.37736  0.05889  1.0000
  H   H5077     1.0  0.85732  0.04975  0.37793  1.0000
  C   C2877     1.0  0.86983  0.10763  0.08167  1.0000
  H   H5078     1.0  0.96660  0.29497  0.02675  1.0000
  H   H5079     1.0  0.83931  0.05138  0.26257  1.0000
  H   H5080     1.0  0.88277  0.09646  0.18842  1.0000
  H   H5081     1.0  0.91137  0.29441  0.99438  1.0000
  H   H5082     1.0  0.86394  0.47383  0.03249  1.0000
  H   H5083     1.0  0.89749  0.48538  0.07546  1.0000
  C   C2878     1.0  0.80704  0.15431  0.14032  1.0000
  N   N158      1.0  0.86446  0.23888  0.10216  1.0000
  C   C2879     1.0  0.87438  0.24880  0.11401  1.0000
  C   C2880     1.0  0.84111  0.24378  0.10989  1.0000
  C   C2881     1.0  0.87298  0.21546  0.10622  1.0000
  C   C2882     1.0  0.86942  0.24725  0.07880  1.0000
  C   C2883     1.0  0.86153  0.27122  0.07164  1.0000
  C   C2884     1.0  0.89721  0.25131  0.10424  1.0000
  C   C2885     1.0  0.86289  0.20217  0.09714  1.0000
  C   C2886     1.0  0.83319  0.23306  0.13288  1.0000
  H   H5084     1.0  0.87152  0.02176  0.40472  1.0000
  C   C2887     1.0  0.86999  0.27870  0.04826  1.0000
  H   H5085     1.0  0.96465  0.25724  0.13870  1.0000
  C   C2888     1.0  0.86685  0.17899  0.10795  1.0000
  H   H5086     1.0  0.87414  0.23951  0.13034  1.0000
  H   H5087     1.0  0.86518  0.26471  0.11598  1.0000
  H   H5088     1.0  0.83539  0.26103  0.10887  1.0000
  H   H5089     1.0  0.83276  0.23998  0.09945  1.0000
  H   H5090     1.0  0.87212  0.20897  0.12330  1.0000
  H   H5091     1.0  0.88999  0.21208  0.09933  1.0000
  H   H5092     1.0  0.88650  0.24311  0.07248  1.0000
  H   H5093     1.0  0.86247  0.23926  0.07045  1.0000
  H   H5094     1.0  0.86636  0.28037  0.08052  1.0000
  H   H5095     1.0  0.84420  0.27502  0.07417  1.0000
  H   H5096     1.0  0.90704  0.23674  0.09944  1.0000
  H   H5097     1.0  0.89760  0.26420  0.09017  1.0000
  H   H5098     1.0  0.86965  0.20335  0.08012  1.0000
  H   H5099     1.0  0.84577  0.20739  0.09886  1.0000
  H   H5100     1.0  0.88885  0.02907  0.36502  1.0000
  H   H5101     1.0  0.83983  0.23811  0.14386  1.0000
  C   C2889     1.0  0.89278  0.33130  0.04943  1.0000
  H   H5102     1.0  0.96239  0.07996  0.02103  1.0000
  S   S646      1.0  0.85200  0.35718  0.00271  1.0000
  H   H5103     1.0  0.86473  0.27048  0.03867  1.0000
  H   H5104     1.0  0.86407  0.29587  0.04363  1.0000
  S   S647      1.0  0.96883  0.11197  0.07771  1.0000
  H   H5105     1.0  0.82903  0.04826  0.15639  1.0000
  H   H5106     1.0  0.86298  0.16952  0.09858  1.0000
  H   H5107     1.0  0.88344  0.17327  0.10926  1.0000
  H   H5108     1.0  0.82525  0.28257  0.13716  1.0000
  H   H5109     1.0  0.80396  0.23094  0.15527  1.0000
  C   C2890     1.0  0.83652  0.32143  0.01738  1.0000
  C   C2891     1.0  0.92385  0.01133  0.23035  1.0000
  H   H5110     1.0  0.86369  0.12196  0.22316  1.0000
  C   C2892     1.0  0.79707  0.18549  0.22597  1.0000
  H   H5111     1.0  0.83041  0.13680  0.36909  1.0000
  H   H5112     1.0  0.93254  0.03034  0.31860  1.0000
  H   H5113     1.0  0.87271  0.36018  0.05645  1.0000
  H   H5114     1.0  0.88082  0.18386  0.40175  1.0000
  H   H5115     1.0  0.85530  0.10186  0.20045  1.0000
  H   H5116     1.0  0.96944  0.14307  0.16795  1.0000
  H   H5117     1.0  0.80677  0.24238  0.20615  1.0000
  H   H5118     1.0  0.80883  0.17201  0.35274  1.0000
  C   C2893     1.0  0.82930  0.33292  0.10700  1.0000
  H   H5119     1.0  0.79833  0.15685  0.34046  1.0000
  H   H5120     1.0  0.81524  0.35444  0.21368  1.0000
  H   H5121     1.0  0.90113  0.02732  0.48084  1.0000
  H   H5122     1.0  0.89464  0.02519  0.41146  1.0000
  C   C2894     1.0  0.94181  0.00929  0.35400  1.0000
  S   S648      1.0  0.80428  0.34912  0.15466  1.0000
  C   C2895     1.0  0.96606  0.99364  0.18429  1.0000
  H   H5123     1.0  0.95420  0.06817  0.47838  1.0000
  H   H5124     1.0  0.87963  0.46762  0.00809  1.0000
  H   H5125     1.0  0.85102  0.11111  0.12584  1.0000
  H   H5126     1.0  0.81778  0.36913  0.43861  1.0000
  H   H5127     1.0  0.81839  0.12397  0.35740  1.0000
  C   C2896     1.0  0.83918  0.04395  0.24961  1.0000
  C   C2897     1.0  0.97753  0.37195  0.07677  1.0000
  H   H5128     1.0  0.89779  0.27178  0.12467  1.0000
  H   H5129     1.0  0.94639  0.09682  0.00309  1.0000
  H   H5130     1.0  0.91430  0.08928  0.02871  1.0000
  C   C2898     1.0  0.82221  0.30001  0.13415  1.0000
  H   H5131     1.0  0.81093  0.15587  0.12291  1.0000
  C   C2899     1.0  0.80177  0.99504  0.26798  1.0000
  H   H5132     1.0  0.84243  0.20987  0.34976  1.0000
  H   H5133     1.0  0.80132  0.40642  0.18784  1.0000
  H   H5134     1.0  0.92904  0.02525  0.12387  1.0000
  H   H5135     1.0  0.95141  0.00776  0.11223  1.0000
  C   C2900     1.0  0.88044  0.18891  0.36045  1.0000
  C   C2901     1.0  0.92287  0.19215  0.33183  1.0000
  H   H5136     1.0  0.85687  0.17147  0.20310  1.0000
  H   H5137     1.0  0.88144  0.14927  0.42709  1.0000
  H   H5138     1.0  0.80648  0.40249  0.41506  1.0000
  H   H5139     1.0  0.90503  0.03222  0.32389  1.0000
  C   C2902     1.0  0.89461  0.04772  0.04083  1.0000
  H   H5140     1.0  0.83113  0.05610  0.23801  1.0000
  H   H5141     1.0  0.95420  0.03654  0.18526  1.0000
  C   C2903     1.0  0.84786  0.33325  0.00011  1.0000
  C   C2904     1.0  0.79617  0.15229  0.39647  1.0000
  C   C2905     1.0  0.88092  0.99547  0.09856  1.0000
  H   H5142     1.0  0.79987  0.10965  0.17887  1.0000
  H   H5143     1.0  0.81268  0.33995  0.11277  1.0000
  H   H5144     1.0  0.93220  0.08073  0.06093  1.0000
  H   H5145     1.0  0.86227  0.34593  0.04360  1.0000
  H   H5146     1.0  0.90947  0.14612  0.42384  1.0000
  C   C2906     1.0  0.92928  0.07829  0.03026  1.0000
  H   H5147     1.0  0.79730  0.15951  0.99882  1.0000
  C   C2907     1.0  0.97231  0.25868  0.99453  1.0000
  H   H5148     1.0  0.88533  0.07560  0.22442  1.0000
  H   H5149     1.0  0.83448  0.34054  0.27278  1.0000
  H   H5150     1.0  0.89176  0.01327  0.27456  1.0000
  Fe  Fe325     1.0  0.90042  0.06928  0.45885  1.0000
  H   H5151     1.0  0.79913  0.32304  0.19730  1.0000
  S   S649      1.0  0.87628  0.10883  0.01203  1.0000
  H   H5152     1.0  0.90878  0.17992  0.39822  1.0000
  C   C2908     1.0  0.88443  0.02863  0.27922  1.0000
  Fe  Fe326     1.0  0.95709  0.14684  0.07346  1.0000
  S   S650      1.0  0.82328  0.09326  0.28586  1.0000
  H   H5153     1.0  0.81060  0.35547  0.34998  1.0000
  C   C2909     1.0  0.90705  0.25703  0.11962  1.0000
  C   C2910     1.0  0.91955  0.07107  0.31334  1.0000
  Fe  Fe327     1.0  0.81358  0.25881  0.02610  1.0000
  H   H5154     1.0  0.81755  0.37321  0.08977  1.0000
  H   H5155     1.0  0.94773  0.02695  0.23141  1.0000
  S   S651      1.0  0.95493  0.16650  0.04138  1.0000
  C   C2911     1.0  0.87101  0.09626  0.37469  1.0000
  Fe  Fe328     1.0  0.95899  0.45740  0.10200  1.0000
  C   C2912     1.0  0.87190  0.12874  0.28721  1.0000
  H   H5156     1.0  0.85461  0.13232  0.28922  1.0000
  H   H5157     1.0  0.83077  0.32698  0.03185  1.0000
  H   H5158     1.0  0.94661  0.25123  0.16303  1.0000
  H   H5159     1.0  0.94484  0.05678  0.05329  1.0000
  Fe  Fe329     1.0  0.88846  0.01529  0.20006  1.0000
  H   H5160     1.0  0.87833  0.14123  0.27473  1.0000
  S   S652      1.0  0.82569  0.07104  0.18864  1.0000
  C   C2913     1.0  0.83210  0.30864  0.11147  1.0000
  H   H5161     1.0  0.92571  0.01494  0.09082  1.0000
  H   H5162     1.0  0.87597  0.12895  0.30216  1.0000
  H   H5163     1.0  0.92885  0.27773  0.05929  1.0000
  H   H5164     1.0  0.83745  0.21566  0.13508  1.0000
  H   H5165     1.0  0.85883  0.10907  0.26250  1.0000
  C   C2914     1.0  0.85052  0.12502  0.13217  1.0000
  C   C2915     1.0  0.91390  0.99657  0.34673  1.0000
  C   C2916     1.0  0.84854  0.46128  0.01594  1.0000
  H   H5166     1.0  0.87722  0.10872  0.14686  1.0000
  N   N159      1.0  0.99008  0.03817  0.48836  1.0000
  H   H5167     1.0  0.81298  0.03096  0.26876  1.0000
  H   H5168     1.0  0.93262  0.16753  0.35777  1.0000
  H   H5169     1.0  0.80623  0.00468  0.17699  1.0000
  C   C2917     1.0  0.81925  0.26985  0.19027  1.0000
  C   C2918     1.0  0.87987  0.12981  0.02154  1.0000
  H   H5170     1.0  0.90895  0.03499  0.37390  1.0000
  H   H5171     1.0  0.86072  0.08576  0.23859  1.0000
  H   H5172     1.0  0.83802  0.01649  0.22791  1.0000
  C   C2919     1.0  0.79737  0.04676  0.15678  1.0000
  C   C2920     1.0  0.91809  0.03289  0.33093  1.0000
  H   H5173     1.0  0.97080  0.33028  0.00970  1.0000
  H   H5174     1.0  0.97762  0.39662  0.09163  1.0000
  S   S653      1.0  0.89951  0.38141  0.99157  1.0000
  H   H5175     1.0  0.91232  0.01456  0.45219  1.0000
  C   C2921     1.0  0.94838  0.25941  0.03626  1.0000
  H   H5176     1.0  0.87643  0.18540  0.15636  1.0000
  H   H5177     1.0  0.82027  0.11149  0.39987  1.0000
  H   H5178     1.0  0.89666  0.99949  0.34781  1.0000
  H   H5179     1.0  0.84666  0.13948  0.12029  1.0000
  C   C2922     1.0  0.91336  0.05600  0.33402  1.0000
  H   H5180     1.0  0.80245  0.35375  0.00371  1.0000
  H   H5181     1.0  0.89635  0.06089  0.33984  1.0000
  C   C2923     1.0  0.88725  0.01381  0.40792  1.0000
  H   H5182     1.0  0.79975  0.05354  0.09273  1.0000
  H   H5183     1.0  0.86541  0.24317  0.23140  1.0000
  C   C2924     1.0  0.83068  0.15701  0.32898  1.0000
  C   C2925     1.0  0.90019  0.13332  0.01838  1.0000
  Fe  Fe330     1.0  0.88822  0.02293  0.15382  1.0000
  H   H5184     1.0  0.85688  0.17673  0.12394  1.0000
  C   C2926     1.0  0.91005  0.08649  0.24536  1.0000
  C   C2927     1.0  0.92248  0.07677  0.22603  1.0000
  C   C2928     1.0  0.94603  0.07408  0.22395  1.0000
  H   H5185     1.0  0.91344  0.10251  0.24199  1.0000
  H   H5186     1.0  0.91751  0.07804  0.25900  1.0000
  H   H5187     1.0  0.91844  0.08725  0.21134  1.0000
  H   H5188     1.0  0.91915  0.06120  0.22687  1.0000
  H   H5189     1.0  0.95021  0.08952  0.22235  1.0000
  H   H5190     1.0  0.95126  0.06294  0.23784  1.0000
  H   H5191     1.0  0.95437  0.06771  0.20966  1.0000
  N   N160      1.0  0.88705  0.29671  0.26163  1.0000
  C   C2929     1.0  0.89796  0.30438  0.23936  1.0000
  C   C2930     1.0  0.86553  0.29331  0.26214  1.0000
  C   C2931     1.0  0.88422  0.31378  0.27372  1.0000
  C   C2932     1.0  0.89992  0.27701  0.27224  1.0000
  C   C2933     1.0  0.90456  0.25760  0.26217  1.0000
  C   C2934     1.0  0.92065  0.30747  0.23639  1.0000
  C   C2935     1.0  0.87109  0.31026  0.29654  1.0000
  C   C2936     1.0  0.86230  0.28641  0.24304  1.0000
  C   C2937     1.0  0.84033  0.28198  0.24689  1.0000
  C   C2938     1.0  0.92156  0.24035  0.27097  1.0000
  C   C2939     1.0  0.92907  0.31721  0.21358  1.0000
  C   C2940     1.0  0.86861  0.32908  0.30652  1.0000
  H   H5192     1.0  0.88855  0.31953  0.23241  1.0000
  H   H5193     1.0  0.89899  0.29349  0.22904  1.0000
  H   H5194     1.0  0.86032  0.28186  0.27664  1.0000
  H   H5195     1.0  0.85381  0.30813  0.26306  1.0000
  H   H5196     1.0  0.87670  0.32919  0.26500  1.0000
  H   H5197     1.0  0.89954  0.31589  0.27518  1.0000
  H   H5198     1.0  0.91490  0.28012  0.27365  1.0000
  H   H5199     1.0  0.89182  0.27192  0.28864  1.0000
  H   H5200     1.0  0.90993  0.26149  0.24501  1.0000
  H   H5201     1.0  0.89020  0.25109  0.26561  1.0000
  H   H5202     1.0  0.92164  0.31814  0.24611  1.0000
  H   H5203     1.0  0.93121  0.29208  0.24049  1.0000
  H   H5204     1.0  0.87884  0.29624  0.30667  1.0000
  H   H5205     1.0  0.85518  0.30811  0.29702  1.0000
  H   H5206     1.0  0.86392  0.29926  0.22893  1.0000
  H   H5207     1.0  0.87389  0.27222  0.23948  1.0000
  H   H5208     1.0  0.83832  0.27731  0.23292  1.0000
  H   H5209     1.0  0.83777  0.26908  0.26080  1.0000
  H   H5210     1.0  0.82832  0.29635  0.24954  1.0000
  H   H5211     1.0  0.92255  0.22575  0.26554  1.0000
  H   H5212     1.0  0.93698  0.24512  0.26517  1.0000
  H   H5213     1.0  0.91805  0.23693  0.28840  1.0000
  H   H5214     1.0  0.94532  0.31914  0.21186  1.0000
  H   H5215     1.0  0.92924  0.30696  0.20288  1.0000
  H   H5216     1.0  0.91929  0.33295  0.20884  1.0000
  H   H5217     1.0  0.86023  0.32571  0.32312  1.0000
  H   H5218     1.0  0.88413  0.33207  0.30634  1.0000
  H   H5219     1.0  0.85948  0.34340  0.29794  1.0000
  H   H5220     1.0  0.82292  0.18569  0.20020  1.0000
  C   C2941     1.0  0.94183  0.02395  0.10986  1.0000
  H   H5221     1.0  0.87380  0.09558  0.29456  1.0000
  C   C2942     1.0  0.95189  0.02707  0.35539  1.0000
  H   H5222     1.0  0.98748  0.12861  0.40006  1.0000
  H   H5223     1.0  0.87041  0.12213  0.08647  1.0000
  H   H5224     1.0  0.81660  0.01832  0.20266  1.0000
  S   S654      1.0  0.95301  0.47527  0.02621  1.0000
  Fe  Fe331     1.0  0.81976  0.08193  0.32073  1.0000
  C   C2943     1.0  0.85522  0.20560  0.18949  1.0000
  C   C2944     1.0  0.79822  0.12688  0.17292  1.0000
  H   H5225     1.0  0.91306  0.12398  0.00940  1.0000
  H   H5226     1.0  0.96892  0.18052  0.15565  1.0000
  H   H5227     1.0  0.88731  0.27576  0.04475  1.0000
  C   C2945     1.0  0.93948  0.27366  0.01711  1.0000
  C   C2946     1.0  0.90402  0.14905  0.02650  1.0000
  H   H5228     1.0  0.85135  0.17749  0.16625  1.0000
  C   C2947     1.0  0.94140  0.43996  0.99234  1.0000
  H   H5229     1.0  0.84967  0.40344  0.07396  1.0000
  H   H5230     1.0  0.84143  0.21312  0.37591  1.0000
  Fe  Fe332     1.0  0.89959  0.08898  0.41310  1.0000
  H   H5231     1.0  0.90183  0.04589  0.09957  1.0000
  H   H5232     1.0  0.98676  0.41907  0.14548  1.0000
  H   H5233     1.0  0.94722  0.20588  0.30867  1.0000
  S   S655      1.0  0.97062  0.99986  0.26167  1.0000
  C   C2948     1.0  0.85656  0.09716  0.34455  1.0000
  H   H5234     1.0  0.85553  0.03824  0.24199  1.0000
  H   H5235     1.0  0.91835  0.25629  0.05662  1.0000
  H   H5236     1.0  0.82848  0.40447  0.09671  1.0000
  C   C2949     1.0  0.82850  0.20110  0.22332  1.0000
  H   H5237     1.0  0.88548  0.14982  0.38913  1.0000
  H   H5238     1.0  0.81781  0.11968  0.07682  1.0000
  C   C2950     1.0  0.81742  0.15123  0.07890  1.0000
  S   S656      1.0  0.96871  0.17011  0.08432  1.0000
  H   H5239     1.0  0.85507  0.40126  0.09947  1.0000
  H   H5240     1.0  0.79958  0.38263  0.18117  1.0000
  H   H5241     1.0  0.95799  0.36457  0.11904  1.0000
  H   H5242     1.0  0.98015  0.35667  0.15588  1.0000
  Fe  Fe333     1.0  0.80407  0.12388  0.29336  1.0000
  C   C2951     1.0  0.81207  0.34929  0.23058  1.0000
  H   H5243     1.0  0.96555  0.24428  0.99800  1.0000
  H   H5244     1.0  0.83774  0.33617  0.11749  1.0000
  C   C2952     1.0  0.80384  0.11433  0.39780  1.0000
  H   H5245     1.0  0.79399  0.22575  0.29156  1.0000
  H   H5246     1.0  0.97044  0.33814  0.14706  1.0000
  H   H5247     1.0  0.91251  0.06891  0.30099  1.0000
  H   H5248     1.0  0.79476  0.32666  0.05721  1.0000
  H   H5249     1.0  0.81608  0.27628  0.20473  1.0000
  H   H5250     1.0  0.82888  0.30477  0.14533  1.0000
  H   H5251     1.0  0.88535  0.03416  0.01936  1.0000
  C   C2953     1.0  0.79552  0.39787  0.42999  1.0000
  N   N161      1.0  0.89912  0.17108  0.36200  1.0000
  H   H5252     1.0  0.92448  0.03282  0.05014  1.0000
  C   C2954     1.0  0.97376  0.01837  0.36016  1.0000
  H   H5253     1.0  0.82528  0.16786  0.42421  1.0000
  H   H5254     1.0  0.80206  0.03808  0.14432  1.0000
  C   C2955     1.0  0.82796  0.02546  0.25839  1.0000
  C   C2956     1.0  0.91734  0.99871  0.44961  1.0000
  H   H5255     1.0  0.94770  0.20569  0.33545  1.0000
  H   H5256     1.0  0.85907  0.09879  0.09407  1.0000
  C   C2957     1.0  0.97156  0.10763  0.44973  1.0000
  C   C2958     1.0  0.80603  0.17189  0.07744  1.0000
  C   C2959     1.0  0.89644  0.02950  0.03022  1.0000
  C   C2960     1.0  0.80945  0.23884  0.13884  1.0000
  H   H5257     1.0  0.90800  0.24413  0.13372  1.0000
  H   H5258     1.0  0.79928  0.36610  0.42487  1.0000
  C   C2961     1.0  0.95477  0.24580  0.14826  1.0000
  C   C2962     1.0  0.82362  0.01741  0.24047  1.0000
  H   H5259     1.0  0.91595  0.99597  0.39370  1.0000
  N   N162      1.0  0.99042  0.36764  0.11151  1.0000
  H   H5260     1.0  0.90709  0.46700  0.09734  1.0000
  C   C2963     1.0  0.82288  0.34150  0.26387  1.0000
  H   H5261     1.0  0.93211  0.11571  0.32512  1.0000
  H   H5262     1.0  0.96243  0.36768  0.08558  1.0000
  H   H5263     1.0  0.80747  0.17998  0.01902  1.0000
  H   H5264     1.0  0.90078  0.33970  0.03420  1.0000
  S   S657      1.0  0.90483  0.10105  0.43944  1.0000
  H   H5265     1.0  0.98584  0.06146  0.46007  1.0000
  H   H5266     1.0  0.83616  0.45788  0.03005  1.0000
  H   H5267     1.0  0.81788  0.11983  0.12214  1.0000
  H   H5268     1.0  0.82434  0.29318  0.02976  1.0000
  S   S658      1.0  0.81719  0.19127  0.08106  1.0000
  C   C2964     1.0  0.90504  0.45243  0.07276  1.0000
  H   H5269     1.0  0.94245  0.03550  0.36797  1.0000
  C   C2965     1.0  0.97817  0.13914  0.38863  1.0000
  C   C2966     1.0  0.81410  0.19641  0.21098  1.0000
  C   C2967     1.0  0.90443  0.02231  0.36919  1.0000
  C   C2968     1.0  0.86556  0.18200  0.19023  1.0000
  N   N163      1.0  0.79811  0.13576  0.38407  1.0000
  H   H5270     1.0  0.95674  0.18157  0.32535  1.0000
  H   H5271     1.0  0.81829  0.12631  0.19425  1.0000
  H   H5272     1.0  0.91979  0.15147  0.02402  1.0000
  C   C2969     1.0  0.97631  0.29660  0.01067  1.0000
  H   H5273     1.0  0.81704  0.19683  0.27468  1.0000
  H   H5274     1.0  0.81353  0.01661  0.10995  1.0000
  C   C2970     1.0  0.85877  0.18260  0.36903  1.0000
  H   H5275     1.0  0.80253  0.23356  0.12820  1.0000
  H   H5276     1.0  0.91745  0.12986  0.17358  1.0000
  C   C2971     1.0  0.99126  0.40209  0.14480  1.0000
  H   H5277     1.0  0.80414  0.16959  0.23391  1.0000
  H   H5278     1.0  0.96165  0.14504  0.14348  1.0000
  S   S659      1.0  0.81255  0.15500  0.27631  1.0000
  H   H5279     1.0  0.98030  0.03132  0.36192  1.0000
  H   H5280     1.0  0.95590  0.99880  0.47745  1.0000
  H   H5281     1.0  0.85236  0.10542  0.32969  1.0000
  H   H5282     1.0  0.79774  0.37578  0.31725  1.0000
  H   H5283     1.0  0.79399  0.35426  0.04539  1.0000
  H   H5284     1.0  0.92130  0.45344  0.06442  1.0000
  H   H5285     1.0  0.97263  0.08002  0.36891  1.0000
  C   C2972     1.0  0.98067  0.12373  0.48082  1.0000
  S   S660      1.0  0.93428  0.05384  0.45195  1.0000
  C   C2973     1.0  0.98891  0.24507  0.07558  1.0000
  H   H5286     1.0  0.91176  0.20753  0.33005  1.0000
  Fe  Fe334     1.0  0.80501  0.22318  0.06306  1.0000
  H   H5287     1.0  0.85684  0.17140  0.36035  1.0000
  S   S661      1.0  0.82466  0.24743  0.05650  1.0000
  H   H5288     1.0  0.82385  0.24062  0.18086  1.0000
  H   H5289     1.0  0.96385  0.13762  0.36359  1.0000
  H   H5290     1.0  0.92763  0.26552  0.01544  1.0000
  S   S662      1.0  0.80310  0.11335  0.32782  1.0000
  C   C2974     1.0  0.96046  0.12050  0.48246  1.0000
  Fe  Fe335     1.0  0.84611  0.09659  0.02234  1.0000
  H   H5291     1.0  0.81754  0.16309  0.14348  1.0000
  C   C2975     1.0  0.93273  0.26130  0.05682  1.0000
  H   H5292     1.0  0.88616  0.14750  0.35550  1.0000
  C   C2976     1.0  0.91979  0.15922  0.15127  1.0000
  C   C2977     1.0  0.95699  0.10110  0.10313  1.0000
  H   H5293     1.0  0.83446  0.18568  0.23318  1.0000
  S   S663      1.0  0.87956  0.04950  0.20042  1.0000
  H   H5294     1.0  0.92331  0.12977  0.35874  1.0000
  H   H5295     1.0  0.91770  0.15360  0.13833  1.0000
  C   C2978     1.0  0.89705  0.46960  0.08575  1.0000
  H   H5296     1.0  0.90527  0.43725  0.08409  1.0000
  H   H5297     1.0  0.82476  0.34469  0.32721  1.0000
  H   H5298     1.0  0.82910  0.32338  0.06792  1.0000
  C   C2979     1.0  0.98415  0.23037  0.06672  1.0000
  H   H5299     1.0  0.88772  0.06725  0.28213  1.0000
  H   H5300     1.0  0.87510  0.15892  0.17035  1.0000
  C   C2980     1.0  0.89174  0.04645  0.26174  1.0000
  Fe  Fe336     1.0  0.96393  0.19095  0.05331  1.0000
  H   H5301     1.0  0.88546  0.00091  0.42198  1.0000
  C   C2981     1.0  0.86712  0.17566  0.16949  1.0000
  H   H5302     1.0  0.97891  0.12002  0.33503  1.0000
  C   C2982     1.0  0.94053  0.01338  0.23810  1.0000
  H   H5303     1.0  0.94358  0.37684  0.16416  1.0000
  N   N164      1.0  0.88671  0.08722  0.25128  1.0000
  C   C2983     1.0  0.88195  0.06811  0.26782  1.0000
  C   C2984     1.0  0.88099  0.10715  0.28153  1.0000
  H   H5304     1.0  0.88393  0.12312  0.12037  1.0000
  H   H5305     1.0  0.86349  0.11238  0.06709  1.0000
  H   H5306     1.0  0.91822  0.02339  0.21781  1.0000
  H   H5307     1.0  0.99022  0.28362  0.01006  1.0000
  C   C2985     1.0  0.87610  0.10662  0.26036  1.0000
  H   H5308     1.0  0.88055  0.12092  0.24910  1.0000
  C   C2986     1.0  0.94685  0.36024  0.16231  1.0000
  H   H5309     1.0  0.91817  0.19158  0.36458  1.0000
  C   C2987     1.0  0.91930  0.13978  0.34387  1.0000
  H   H5310     1.0  0.90607  0.11479  0.34012  1.0000
  S   S664      1.0  0.89222  0.05848  0.43341  1.0000
  C   C2988     1.0  0.87596  0.10951  0.21654  1.0000
  C   C2989     1.0  0.89552  0.17186  0.40123  1.0000
  S   S665      1.0  0.92418  0.13618  0.21222  1.0000
  H   H5311     1.0  0.93264  0.14737  0.33496  1.0000
  H   H5312     1.0  0.82663  0.16929  0.31537  1.0000
  C   C2990     1.0  0.87708  0.08841  0.23290  1.0000
  H   H5313     1.0  0.86474  0.06926  0.27292  1.0000
  H   H5314     1.0  0.92160  0.06067  0.09402  1.0000
  C   C2991     1.0  0.81171  0.15715  0.34709  1.0000
  H   H5315     1.0  0.88971  0.47100  0.04785  1.0000
  C   C2992     1.0  0.91674  0.12545  0.33064  1.0000
  H   H5316     1.0  0.91044  0.13485  0.31660  1.0000
  H   H5317     1.0  0.89821  0.06140  0.02834  1.0000
  H   H5318     1.0  0.82453  0.07275  0.40759  1.0000
  C   C2993     1.0  0.83411  0.12497  0.15303  1.0000
  H   H5319     1.0  0.85673  0.17522  0.38597  1.0000
  C   C2994     1.0  0.89897  0.15639  0.34832  1.0000
  C   C2995     1.0  0.87252  0.12342  0.13553  1.0000
  C   C2996     1.0  0.95595  0.11225  0.46708  1.0000
  H   H5320     1.0  0.96283  0.11603  0.38489  1.0000
  H   H5321     1.0  0.92312  0.25944  0.11185  1.0000
  H   H5322     1.0  0.81266  0.10062  0.14548  1.0000
  C   C2997     1.0  0.97823  0.00802  0.18928  1.0000
  S   S666      1.0  0.81477  0.11410  0.01588  1.0000
  H   H5323     1.0  0.88699  0.08221  0.05332  1.0000
  C   C2998     1.0  0.94500  0.19657  0.32503  1.0000
  H   H5324     1.0  0.96700  0.38098  0.04715  1.0000
  H   H5325     1.0  0.95375  0.03830  0.34008  1.0000
  C   C2999     1.0  0.86490  0.10711  0.35570  1.0000
  H   H5326     1.0  0.86686  0.12318  0.34940  1.0000
  H   H5327     1.0  0.88081  0.46908  0.09457  1.0000
  H   H5328     1.0  0.87330  0.13717  0.14150  1.0000
  C   C3000     1.0  0.92999  0.06856  0.05351  1.0000
  H   H5329     1.0  0.83319  0.14751  0.08166  1.0000
  S   S667      1.0  0.98653  0.46940  0.10397  1.0000
  H   H5330     1.0  0.96301  0.26298  0.03761  1.0000
  H   H5331     1.0  0.83364  0.27449  0.17967  1.0000
  S   S668      1.0  0.96212  0.15943  0.23286  1.0000
  H   H5332     1.0  0.79536  0.10211  0.11012  1.0000
  H   H5333     1.0  0.90224  0.10410  0.06683  1.0000
  S   S669      1.0  0.86375  0.01630  0.18278  1.0000
  C   C3001     1.0  0.96901  0.09236  0.35514  1.0000
  H   H5334     1.0  0.98429  0.01109  0.34716  1.0000
  Fe  Fe337     1.0  0.96337  0.47516  0.05530  1.0000
  C   C3002     1.0  0.82463  0.33994  0.07018  1.0000
  C   C3003     1.0  0.81531  0.15115  0.40592  1.0000
  H   H5335     1.0  0.89524  0.16541  0.33294  1.0000
  C   C3004     1.0  0.80787  0.11754  0.13816  1.0000
  H   H5336     1.0  0.81194  0.03059  0.23350  1.0000
  C   C3005     1.0  0.94691  0.09043  0.01995  1.0000
  C   C3006     1.0  0.93296  0.02836  0.09003  1.0000
  C   C3007     1.0  0.90896  0.04145  0.05719  1.0000
  N   N165      1.0  0.91169  0.05881  0.06639  1.0000
  N   N166      1.0  0.91975  0.01558  0.35026  1.0000
  H   H5337     1.0  0.94042  0.10961  0.46859  1.0000
  H   H5338     1.0  0.93953  0.25084  0.07016  1.0000
  C   C3008     1.0  0.89175  0.09400  0.07798  1.0000
  C   C3009     1.0  0.80876  0.13550  0.07604  1.0000
  C   C3010     1.0  0.82165  0.24590  0.19572  1.0000
  C   C3011     1.0  0.96801  0.22375  0.15328  1.0000
  H   H5339     1.0  0.82945  0.15289  0.39345  1.0000
  H   H5340     1.0  0.93436  0.35777  0.15567  1.0000
  C   C3012     1.0  0.83410  0.36656  0.08330  1.0000
  C   C3013     1.0  0.79600  0.17537  0.28813  1.0000
  C   C3014     1.0  0.91631  0.04926  0.08809  1.0000
  C   C3015     1.0  0.87098  0.34428  0.05602  1.0000
  H   H5341     1.0  0.92126  0.05825  0.34557  1.0000
  H   H5342     1.0  0.82846  0.34986  0.05425  1.0000
  S   S670      1.0  0.84551  0.06289  0.33776  1.0000
  Fe  Fe338     1.0  0.80250  0.10008  0.04938  1.0000
  S   S671      1.0  0.97797  0.12310  0.28598  1.0000
  S   S672      1.0  0.79379  0.28710  0.09296  1.0000
  C   C3016     1.0  0.81307  0.00227  0.20743  1.0000
  C   C3017     1.0  0.89458  0.15775  0.42308  1.0000
  C   C3018     1.0  0.85410  0.07634  0.35237  1.0000
  H   H5343     1.0  0.97806  0.22440  0.16380  1.0000
  S   S673      1.0  0.94442  0.48802  0.08351  1.0000
  H   H5344     1.0  0.89167  0.31574  0.04728  1.0000
  H   H5345     1.0  0.86876  0.33251  0.08970  1.0000
  H   H5346     1.0  0.83725  0.10884  0.16284  1.0000
  H   H5347     1.0  0.94630  0.02836  0.07649  1.0000
  H   H5348     1.0  0.81299  0.09370  0.37445  1.0000
  H   H5349     1.0  0.89104  0.11486  0.21214  1.0000
  H   H5350     1.0  0.86720  0.03040  0.28215  1.0000
  H   H5351     1.0  0.87800  0.05188  0.04880  1.0000
  C   C3019     1.0  0.89165  0.07508  0.06868  1.0000
  H   H5352     1.0  0.81876  0.13604  0.41713  1.0000
  C   C3020     1.0  0.80206  0.19469  0.28453  1.0000
  C   C3021     1.0  0.84498  0.39708  0.09102  1.0000
  H   H5353     1.0  0.86443  0.36654  0.09074  1.0000
  H   H5354     1.0  0.90234  0.32887  0.06141  1.0000
  H   H5355     1.0  0.97313  0.00641  0.37505  1.0000
  H   H5356     1.0  0.90168  0.02957  0.06987  1.0000
  H   H5357     1.0  0.94286  0.24558  0.13964  1.0000
  H   H5358     1.0  0.93683  0.06824  0.30808  1.0000
  H   H5359     1.0  0.98027  0.24782  0.09086  1.0000
  H   H5360     1.0  0.86107  0.31693  0.07651  1.0000
  H   H5361     1.0  0.84264  0.36790  0.11255  1.0000
  C   C3022     1.0  0.91870  0.18010  0.35497  1.0000
  H   H5362     1.0  0.82577  0.19685  0.37178  1.0000
  C   C3023     1.0  0.80682  0.06428  0.17934  1.0000
  C   C3024     1.0  0.91463  0.99372  0.23876  1.0000
  H   H5363     1.0  0.96870  0.18476  0.12881  1.0000
  C   C3025     1.0  0.81120  0.16872  0.41807  1.0000
  C   C3026     1.0  0.98762  0.38098  0.09013  1.0000
  N   N167      1.0  0.83694  0.34324  0.08457  1.0000
  N   N168      1.0  0.81140  0.13135  0.15106  1.0000
  C   C3027     1.0  0.96725  0.08130  0.33857  1.0000
  H   H5364     1.0  0.88066  0.19685  0.34375  1.0000
  H   H5365     1.0  0.95731  0.21288  0.16178  1.0000
  S   S674      1.0  0.89489  0.00287  0.12990  1.0000
  H   H5366     1.0  0.92107  0.18323  0.32083  1.0000
  H   H5367     1.0  0.88116  0.20141  0.36829  1.0000
  C   C3028     1.0  0.87021  0.10755  0.19662  1.0000
  H   H5368     1.0  0.91435  0.42611  0.00390  1.0000
  C   C3029     1.0  0.97946  0.17983  0.14012  1.0000
  S   S675      1.0  0.79636  0.07172  0.04187  1.0000
  C   C3030     1.0  0.96821  0.35485  0.14814  1.0000
  H   H5369     1.0  0.94806  0.13924  0.41047  1.0000
  H   H5370     1.0  0.80406  0.25615  0.13746  1.0000
  H   H5371     1.0  0.86840  0.12311  0.18576  1.0000
  C   C3031     1.0  0.85963  0.33348  0.07767  1.0000
  H   H5372     1.0  0.83780  0.13557  0.16135  1.0000
  H   H5373     1.0  0.95172  0.24274  0.03471  1.0000
  C   C3032     1.0  0.98413  0.31709  0.00655  1.0000
  C   C3033     1.0  0.80235  0.09495  0.38979  1.0000
  C   C3034     1.0  0.86855  0.00016  0.08349  1.0000
  H   H5374     1.0  0.98164  0.06929  0.33506  1.0000
  H   H5375     1.0  0.96188  0.15851  0.41155  1.0000
  H   H5376     1.0  0.79362  0.19726  0.13157  1.0000
  C   C3035     1.0  0.99001  0.15644  0.13960  1.0000
  S   S676      1.0  0.83316  0.27198  0.99543  1.0000
  C   C3036     1.0  0.97112  0.03107  0.17915  1.0000
  H   H5377     1.0  0.96729  0.99727  0.16695  1.0000
  C   C3037     1.0  0.95800  0.15055  0.40080  1.0000
  H   H5378     1.0  0.96248  0.38544  0.12773  1.0000
  C   C3038     1.0  0.80393  0.33524  0.27415  1.0000
  H   H5379     1.0  0.98326  0.12502  0.15083  1.0000
  H   H5380     1.0  0.83521  0.14179  0.32375  1.0000
  H   H5381     1.0  0.97392  0.03320  0.16178  1.0000
  H   H5382     1.0  0.82501  0.30361  0.10089  1.0000
  H   H5383     1.0  0.97199  0.03040  0.46999  1.0000
  H   H5384     1.0  0.79822  0.40482  0.44214  1.0000
  H   H5385     1.0  0.98823  0.39270  0.04726  1.0000
  C   C3039     1.0  0.80844  0.07447  0.40519  1.0000
  H   H5386     1.0  0.96490  0.09273  0.32380  1.0000
  H   H5387     1.0  0.79343  0.02346  0.08249  1.0000
  H   H5388     1.0  0.97147  0.21988  0.12138  1.0000
  C   C3040     1.0  0.81535  0.13766  0.36481  1.0000
  C   C3041     1.0  0.96921  0.36893  0.12594  1.0000
  H   H5389     1.0  0.95367  0.07341  0.34454  1.0000
  C   C3042     1.0  0.97345  0.38802  0.05680  1.0000
  H   H5390     1.0  0.89247  0.01545  0.04210  1.0000
  H   H5391     1.0  0.91253  0.02541  0.02101  1.0000
  H   H5392     1.0  0.98200  0.25567  0.00645  1.0000
  H   H5393     1.0  0.97747  0.39488  0.15284  1.0000
  H   H5394     1.0  0.83756  0.01319  0.26836  1.0000
  H   H5395     1.0  0.96199  0.40226  0.06081  1.0000
  C   C3043     1.0  0.80340  0.13576  0.18981  1.0000
  C   C3044     1.0  0.98566  0.10636  0.34638  1.0000
  H   H5396     1.0  0.98222  0.19020  0.17971  1.0000
  H   H5397     1.0  0.79528  0.33386  0.09165  1.0000
  H   H5398     1.0  0.94937  0.99969  0.19102  1.0000
  Fe  Fe339     1.0  0.79505  0.26747  0.07007  1.0000
  H   H5399     1.0  0.80643  0.21093  0.20148  1.0000
  H   H5400     1.0  0.97526  0.00720  0.20646  1.0000
  H   H5401     1.0  0.97992  0.04108  0.18298  1.0000
  H   H5402     1.0  0.95356  0.44408  0.99818  1.0000
  C   C3045     1.0  0.98171  0.21703  0.13294  1.0000
  H   H5403     1.0  0.98793  0.33722  0.10781  1.0000
  H   H5404     1.0  0.98802  0.35768  0.07178  1.0000
  C   C3046     1.0  0.79785  0.01241  0.11497  1.0000
  H   H5405     1.0  0.95005  0.31101  0.99608  1.0000
  S   S677      1.0  0.99122  0.48876  0.05278  1.0000
  H   H5406     1.0  0.80116  0.32923  0.29083  1.0000
  H   H5407     1.0  0.79475  0.36124  0.07995  1.0000
  H   H5408     1.0  0.80804  0.06088  0.39875  1.0000
  H   H5409     1.0  0.80595  0.27701  0.18213  1.0000
  N   N169      1.0  0.95492  0.27775  0.99655  1.0000
  H   H5410     1.0  0.79766  0.46323  0.37039  1.0000
  H   H5411     1.0  0.80022  0.40653  0.16124  1.0000
  H   H5412     1.0  0.98498  0.40901  0.11391  1.0000
  H   H5413     1.0  0.83493  0.99833  0.13024  1.0000
  H   H5414     1.0  0.79734  0.07409  0.42057  1.0000
  H   H5415     1.0  0.79786  0.16698  0.43160  1.0000
  C   C3047     1.0  0.79436  0.40004  0.17806  1.0000
  C   C3048     1.0  0.79859  0.00103  0.19379  1.0000
  N   N170      1.0  0.99232  0.11371  0.36265  1.0000
  H   H5416     1.0  0.98924  0.08803  0.38989  1.0000
  C   C3049     1.0  0.96319  0.29728  0.99454  1.0000
  N   N171      1.0  0.81578  0.99695  0.24644  1.0000
  C   C3050     1.0  0.80260  0.99758  0.23104  1.0000
  C   C3051     1.0  0.98342  0.02235  0.48032  1.0000
  C   C3052     1.0  0.93172  0.99480  0.43142  1.0000
  S   S678      1.0  0.98835  0.21009  0.03433  1.0000
  H   H5417     1.0  0.81024  0.99492  0.28016  1.0000
  H   H5418     1.0  0.89299  0.99330  0.38656  1.0000
  C   C3053     1.0  0.99148  0.11153  0.44785  1.0000
  H   H5419     1.0  0.99203  0.22865  0.12666  1.0000
  H   H5420     1.0  0.99252  0.32108  0.99005  1.0000
  H   H5421     1.0  0.79304  0.35212  0.31321  1.0000
  C   C3054     1.0  0.79298  0.36061  0.32539  1.0000
  H   H5422     1.0  0.79380  0.04396  0.00161  1.0000
  H   H5423     1.0  0.93569  0.48785  0.98953  1.0000
  Fe  Fe340     1.0  0.89426  0.41093  0.96723  1.0000
  S   S679      1.0  0.87005  0.40165  0.95592  1.0000
  Fe  Fe341     1.0  0.92388  0.36838  0.96603  1.0000
  S   S680      1.0  0.90210  0.35557  0.95452  1.0000
  S   S681      1.0  0.95673  0.35279  0.96956  1.0000
  Fe  Fe342     1.0  0.89724  0.38739  0.93321  1.0000
  S   S682      1.0  0.89819  0.39402  0.89835  1.0000
  H   H5424     1.0  0.80333  0.48686  0.60879  1.0000
  H   H5425     1.0  0.98777  0.00629  0.64393  1.0000
  S   S683      1.0  0.92079  0.39894  0.94325  1.0000
  C   C3055     1.0  0.79948  0.35907  0.98748  1.0000
  C   C3056     1.0  0.93535  0.12623  0.61054  1.0000
  C   C3057     1.0  0.83923  0.49102  0.78848  1.0000
  H   H5426     1.0  0.85676  0.46617  0.80911  1.0000
  H   H5427     1.0  0.98570  0.99505  0.50672  1.0000
  H   H5428     1.0  0.94519  0.15390  0.59031  1.0000
  C   C3058     1.0  0.85081  0.30704  0.97975  1.0000
  H   H5429     1.0  0.85612  0.30157  0.96510  1.0000
  C   C3059     1.0  0.92288  0.29806  0.97961  1.0000
  C   C3060     1.0  0.85330  0.48529  0.76768  1.0000
  H   H5430     1.0  0.94265  0.08876  0.54351  1.0000
  H   H5431     1.0  0.96007  0.01144  0.50792  1.0000
  H   H5432     1.0  0.83008  0.48900  0.57559  1.0000
  H   H5433     1.0  0.95086  0.09770  0.58539  1.0000
  S   S684      1.0  0.95338  0.03577  0.60215  1.0000
  Fe  Fe343     1.0  0.98952  0.44133  0.79385  1.0000
  H   H5434     1.0  0.90415  0.14554  0.61746  1.0000
  C   C3061     1.0  0.88668  0.46754  0.90484  1.0000
  C   C3062     1.0  0.92849  0.47159  0.92625  1.0000
  C   C3063     1.0  0.89694  0.48228  0.95999  1.0000
  H   H5435     1.0  0.94421  0.04533  0.49400  1.0000
  H   H5436     1.0  0.98637  0.45272  0.95223  1.0000
  H   H5437     1.0  0.85066  0.46974  0.76706  1.0000
  H   H5438     1.0  0.86859  0.44765  0.92990  1.0000
  H   H5439     1.0  0.96229  0.31240  0.91646  1.0000
  H   H5440     1.0  0.96702  0.17045  0.56250  1.0000
  H   H5441     1.0  0.87928  0.45039  0.70506  1.0000
  H   H5442     1.0  0.92405  0.15290  0.62633  1.0000
  C   C3064     1.0  0.91264  0.29891  0.96146  1.0000
  H   H5443     1.0  0.88446  0.48672  0.97272  1.0000
  H   H5444     1.0  0.92902  0.11266  0.60998  1.0000
  H   H5445     1.0  0.90198  0.46496  0.89387  1.0000
  H   H5446     1.0  0.92729  0.14496  0.58120  1.0000
  C   C3065     1.0  0.96316  0.14296  0.55197  1.0000
  H   H5447     1.0  0.94912  0.42861  0.98186  1.0000
  H   H5448     1.0  0.97020  0.10829  0.53808  1.0000
  H   H5449     1.0  0.80423  0.49134  0.57118  1.0000
  S   S685      1.0  0.96997  0.00612  0.55449  1.0000
  C   C3066     1.0  0.97208  0.04948  0.50256  1.0000
  H   H5450     1.0  0.94176  0.08581  0.50877  1.0000
  H   H5451     1.0  0.97456  0.46447  0.90219  1.0000
  H   H5452     1.0  0.99171  0.11291  0.57049  1.0000
  S   S686      1.0  0.95672  0.45458  0.80905  1.0000
  H   H5453     1.0  0.97922  0.25710  0.96110  1.0000
  H   H5454     1.0  0.95491  0.32261  0.86539  1.0000
  C   C3067     1.0  0.97038  0.33948  0.94920  1.0000
  H   H5455     1.0  0.85172  0.46710  0.73070  1.0000
  H   H5456     1.0  0.96876  0.34080  0.88312  1.0000
  H   H5457     1.0  0.79390  0.26000  0.98829  1.0000
  H   H5458     1.0  0.91730  0.35169  0.88724  1.0000
  H   H5459     1.0  0.89574  0.46834  0.70339  1.0000
  H   H5460     1.0  0.79825  0.15371  0.93518  1.0000
  C   C3068     1.0  0.95665  0.08110  0.55044  1.0000
  C   C3069     1.0  0.86945  0.47990  0.89256  1.0000
  H   H5461     1.0  0.92584  0.31395  0.97824  1.0000
  C   C3070     1.0  0.97414  0.00476  0.49717  1.0000
  C   C3071     1.0  0.97766  0.42635  0.93024  1.0000
  H   H5462     1.0  0.87600  0.45936  0.73954  1.0000
  C   C3072     1.0  0.87926  0.46667  0.70608  1.0000
  C   C3073     1.0  0.98370  0.34666  0.83587  1.0000
  H   H5463     1.0  0.94892  0.12027  0.61839  1.0000
  H   H5464     1.0  0.97715  0.37649  0.88661  1.0000
  C   C3074     1.0  0.90240  0.46148  0.95719  1.0000
  C   C3075     1.0  0.97063  0.31936  0.92381  1.0000
  C   C3076     1.0  0.98638  0.46478  0.93732  1.0000
  S   S687      1.0  0.96285  0.45401  0.86552  1.0000
  C   C3077     1.0  0.90406  0.02571  0.49624  1.0000
  H   H5465     1.0  0.93304  0.32875  0.90061  1.0000
  C   C3078     1.0  0.95957  0.16692  0.55126  1.0000
  H   H5466     1.0  0.98846  0.03482  0.56670  1.0000
  C   C3079     1.0  0.99051  0.37875  0.87327  1.0000
  C   C3080     1.0  0.94219  0.49084  0.74203  1.0000
  C   C3081     1.0  0.93776  0.48918  0.72323  1.0000
  H   H5467     1.0  0.95310  0.47841  0.74974  1.0000
  H   H5468     1.0  0.97372  0.48065  0.97417  1.0000
  C   C3082     1.0  0.93566  0.07198  0.50860  1.0000
  H   H5469     1.0  0.94253  0.17348  0.55515  1.0000
  C   C3083     1.0  0.89967  0.04054  0.52671  1.0000
  C   C3084     1.0  0.91104  0.02158  0.53651  1.0000
  C   C3085     1.0  0.91480  0.00665  0.50619  1.0000
  C   C3086     1.0  0.91834  0.13945  0.62440  1.0000
  H   H5470     1.0  0.89382  0.05370  0.53459  1.0000
  H   H5471     1.0  0.93626  0.41759  0.82991  1.0000
  H   H5472     1.0  0.92033  0.99346  0.49835  1.0000
  H   H5473     1.0  0.87171  0.47784  0.69355  1.0000
  H   H5474     1.0  0.98868  0.39432  0.92444  1.0000
  H   H5475     1.0  0.95377  0.28651  0.96339  1.0000
  H   H5476     1.0  0.93215  0.06276  0.52488  1.0000
  H   H5477     1.0  0.98742  0.39493  0.86372  1.0000
  H   H5478     1.0  0.92309  0.30343  0.94609  1.0000
  C   C3087     1.0  0.89656  0.04267  0.50636  1.0000
  H   H5479     1.0  0.96746  0.43353  0.94340  1.0000
  H   H5480     1.0  0.87841  0.43771  0.90582  1.0000
  H   H5481     1.0  0.80047  0.27234  0.96092  1.0000
  H   H5482     1.0  0.98709  0.30730  0.82604  1.0000
  H   H5483     1.0  0.91808  0.32597  0.88308  1.0000
  H   H5484     1.0  0.96820  0.03909  0.51816  1.0000
  C   C3088     1.0  0.91850  0.45608  0.94049  1.0000
  H   H5485     1.0  0.91379  0.02000  0.55207  1.0000
  H   H5486     1.0  0.96028  0.39287  0.85290  1.0000
  H   H5487     1.0  0.95032  0.36442  0.87882  1.0000
  S   S688      1.0  0.88842  0.44300  0.97459  1.0000
  C   C3089     1.0  0.99129  0.46526  0.89918  1.0000
  C   C3090     1.0  0.99093  0.04347  0.57710  1.0000
  H   H5488     1.0  0.96497  0.19580  0.52901  1.0000
  H   H5489     1.0  0.89582  0.43614  0.92261  1.0000
  H   H5490     1.0  0.94000  0.46754  0.91274  1.0000
  C   C3091     1.0  0.85505  0.32608  0.98122  1.0000
  N   N172      1.0  0.95916  0.12849  0.57330  1.0000
  C   C3092     1.0  0.84042  0.47201  0.80673  1.0000
  H   H5491     1.0  0.96973  0.46955  0.93556  1.0000
  H   H5492     1.0  0.80712  0.13539  0.95742  1.0000
  H   H5493     1.0  0.96960  0.43178  0.91678  1.0000
  H   H5494     1.0  0.93638  0.11474  0.56660  1.0000
  H   H5495     1.0  0.94946  0.37267  0.82180  1.0000
  C   C3093     1.0  0.95963  0.33101  0.93918  1.0000
  C   C3094     1.0  0.96817  0.17865  0.52931  1.0000
  H   H5496     1.0  0.96855  0.05871  0.62368  1.0000
  H   H5497     1.0  0.94288  0.33299  0.94357  1.0000
  C   C3095     1.0  0.88201  0.44597  0.91645  1.0000
  H   H5498     1.0  0.85737  0.99483  0.54865  1.0000
  H   H5499     1.0  0.93303  0.38063  0.84552  1.0000
  H   H5500     1.0  0.99063  0.31683  0.85841  1.0000
  Fe  Fe344     1.0  0.97233  0.46288  0.83063  1.0000
  S   S689      1.0  0.98622  0.13450  0.49986  1.0000
  C   C3096     1.0  0.86750  0.47070  0.72778  1.0000
  H   H5501     1.0  0.86344  0.33540  0.96766  1.0000
  S   S690      1.0  0.79411  0.08833  0.98159  1.0000
  H   H5502     1.0  0.96368  0.39866  0.94175  1.0000
  H   H5503     1.0  0.89783  0.31074  0.96227  1.0000
  C   C3097     1.0  0.91755  0.40898  0.88622  1.0000
  C   C3098     1.0  0.91382  0.42706  0.87064  1.0000
  C   C3099     1.0  0.92809  0.44071  0.86358  1.0000
  C   C3100     1.0  0.94582  0.43637  0.87240  1.0000
  C   C3101     1.0  0.94990  0.41786  0.88720  1.0000
  C   C3102     1.0  0.93610  0.40394  0.89363  1.0000
  H   H5504     1.0  0.89954  0.43095  0.86473  1.0000
  H   H5505     1.0  0.92493  0.45499  0.85203  1.0000
  H   H5506     1.0  0.96383  0.41416  0.89362  1.0000
  H   H5507     1.0  0.93963  0.38938  0.90470  1.0000
  H   H5508     1.0  0.84020  0.00731  0.51738  1.0000
  H   H5509     1.0  0.93946  0.34584  0.85291  1.0000
  N   N173      1.0  0.97565  0.36039  0.85208  1.0000
  H   H5510     1.0  0.84795  0.48703  0.85988  1.0000
  C   C3103     1.0  0.97891  0.12047  0.58195  1.0000
  C   C3104     1.0  0.94358  0.28136  0.97881  1.0000
  H   H5511     1.0  0.92573  0.40665  0.81395  1.0000
  C   C3105     1.0  0.96586  0.38211  0.84160  1.0000
  H   H5512     1.0  0.92298  0.44016  0.93814  1.0000
  C   C3106     1.0  0.96037  0.35152  0.87096  1.0000
  C   C3107     1.0  0.94596  0.33860  0.86720  1.0000
  H   H5513     1.0  0.80603  0.32835  0.98042  1.0000
  H   H5514     1.0  0.87113  0.47132  0.87987  1.0000
  C   C3108     1.0  0.94648  0.38371  0.83249  1.0000
  C   C3109     1.0  0.93993  0.40579  0.81987  1.0000
  C   C3110     1.0  0.92752  0.33611  0.88571  1.0000
  H   H5515     1.0  0.94830  0.12426  0.49572  1.0000
  H   H5516     1.0  0.97078  0.34354  0.83049  1.0000
  H   H5517     1.0  0.91399  0.12957  0.64020  1.0000
  H   H5518     1.0  0.95258  0.40966  0.80618  1.0000
  H   H5519     1.0  0.92094  0.07781  0.50258  1.0000
  C   C3111     1.0  0.91850  0.00462  0.52620  1.0000
  C   C3112     1.0  0.95223  0.10976  0.57053  1.0000
  Fe  Fe345     1.0  0.87725  0.37101  0.97836  1.0000
  H   H5520     1.0  0.98536  0.17311  0.52494  1.0000
  H   H5521     1.0  0.95179  0.07053  0.56559  1.0000
  H   H5522     1.0  0.82230  0.48767  0.75223  1.0000
  H   H5523     1.0  0.90888  0.28342  0.96245  1.0000
  H   H5524     1.0  0.97939  0.13785  0.54342  1.0000
  C   C3113     1.0  0.97946  0.40251  0.93728  1.0000
  C   C3114     1.0  0.98769  0.13704  0.58770  1.0000
  C   C3115     1.0  0.95148  0.05832  0.49435  1.0000
  H   H5525     1.0  0.95284  0.14174  0.54188  1.0000
  S   S691      1.0  0.88431  0.06664  0.49279  1.0000
  H   H5526     1.0  0.93986  0.26626  0.97809  1.0000
  H   H5527     1.0  0.94532  0.47544  0.71650  1.0000
  C   C3116     1.0  0.94155  0.13945  0.58817  1.0000
  H   H5528     1.0  0.88781  0.47573  0.91673  1.0000
  H   H5529     1.0  0.83470  0.45912  0.80366  1.0000
  C   C3117     1.0  0.96678  0.09776  0.55356  1.0000
  H   H5530     1.0  0.96069  0.17607  0.51746  1.0000
  C   C3118     1.0  0.97634  0.04582  0.59578  1.0000
  H   H5531     1.0  0.89258  0.49257  0.85709  1.0000
  Fe  Fe346     1.0  0.95853  0.00722  0.58861  1.0000
  C   C3119     1.0  0.98731  0.25914  0.97273  1.0000
  H   H5532     1.0  0.96800  0.07145  0.53976  1.0000
  H   H5533     1.0  0.97267  0.30158  0.97856  1.0000
  H   H5534     1.0  0.98688  0.39639  0.95122  1.0000
  H   H5535     1.0  0.85958  0.02188  0.51663  1.0000
  H   H5536     1.0  0.85404  0.47797  0.90298  1.0000
  H   H5537     1.0  0.86576  0.00263  0.50041  1.0000
  H   H5538     1.0  0.83042  0.47658  0.82140  1.0000
  H   H5539     1.0  0.81418  0.36266  0.97667  1.0000
  Fe  Fe347     1.0  0.96209  0.48565  0.78840  1.0000
  H   H5540     1.0  0.97661  0.06305  0.50575  1.0000
  H   H5541     1.0  0.97780  0.38914  0.82882  1.0000
  H   H5542     1.0  0.97670  0.10764  0.59600  1.0000
  H   H5543     1.0  0.93319  0.45436  0.98300  1.0000
  H   H5544     1.0  0.97581  0.14592  0.59870  1.0000
  H   H5545     1.0  0.86990  0.48260  0.76923  1.0000
  H   H5546     1.0  0.98183  0.08983  0.55830  1.0000
  C   C3120     1.0  0.97967  0.05705  0.60915  1.0000
  C   C3121     1.0  0.85717  0.00629  0.51593  1.0000
  C   C3122     1.0  0.99236  0.31690  0.91767  1.0000
  C   C3123     1.0  0.99224  0.33640  0.94361  1.0000
  C   C3124     1.0  0.79312  0.14350  0.95054  1.0000
  H   H5547     1.0  0.99285  0.27418  0.96673  1.0000
  C   C3125     1.0  0.92311  0.49233  0.92927  1.0000
  C   C3126     1.0  0.99236  0.48369  0.94222  1.0000
  C   C3127     1.0  0.99243  0.48864  0.88981  1.0000
  S   S692      1.0  0.88712  0.55380  0.99578  1.0000
  H   H5548     1.0  0.98899  0.95338  0.43170  1.0000
  C   C3128     1.0  0.80018  0.58532  0.45304  1.0000
  H   H5549     1.0  0.94907  0.82251  0.35745  1.0000
  H   H5550     1.0  0.95317  0.53386  0.14992  1.0000
  H   H5551     1.0  0.98989  0.94225  0.18086  1.0000
  H   H5552     1.0  0.97391  0.84276  0.29492  1.0000
  H   H5553     1.0  0.82138  0.96406  0.10408  1.0000
  S   S693      1.0  0.97140  0.53118  0.08801  1.0000
  H   H5554     1.0  0.98731  0.93795  0.39359  1.0000
  S   S694      1.0  0.97112  0.94571  0.30511  1.0000
  C   C3129     1.0  0.89511  0.78713  0.47240  1.0000
  H   H5555     1.0  0.99020  0.79108  0.35061  1.0000
  H   H5556     1.0  0.97535  0.60246  0.06313  1.0000
  C   C3130     1.0  0.94902  0.55522  0.00657  1.0000
  H   H5557     1.0  0.98150  0.57049  0.08677  1.0000
  C   C3131     1.0  0.99260  0.94004  0.24363  1.0000
  C   C3132     1.0  0.96807  0.99002  0.48668  1.0000
  C   C3133     1.0  0.81634  0.97431  0.06264  1.0000
  C   C3134     1.0  0.96090  0.60063  0.03819  1.0000
  H   H5558     1.0  0.85489  0.93823  0.26253  1.0000
  H   H5559     1.0  0.84473  0.95252  0.15392  1.0000
  H   H5560     1.0  0.90525  0.77386  0.46537  1.0000
  H   H5561     1.0  0.97005  0.54605  0.12725  1.0000
  C   C3135     1.0  0.83414  0.98155  0.13255  1.0000
  H   H5562     1.0  0.87919  0.78952  0.46927  1.0000
  N   N174      1.0  0.79982  0.98893  0.11853  1.0000
  H   H5563     1.0  0.80267  0.96088  0.27364  1.0000
  H   H5564     1.0  0.97623  0.59378  0.02928  1.0000
  H   H5565     1.0  0.90416  0.80937  0.44380  1.0000
  H   H5566     1.0  0.98369  0.50687  0.16026  1.0000
  H   H5567     1.0  0.97900  0.86911  0.28745  1.0000
  H   H5568     1.0  0.94167  0.98532  0.32357  1.0000
  Fe  Fe348     1.0  0.94553  0.86669  0.47551  1.0000
  S   S695      1.0  0.92281  0.85044  0.46988  1.0000
  S   S696      1.0  0.97834  0.85062  0.47866  1.0000
  Fe  Fe349     1.0  0.91460  0.90856  0.47446  1.0000
  S   S697      1.0  0.88940  0.89574  0.46856  1.0000
  C   C3136     1.0  0.91460  0.56129  0.07384  1.0000
  C   C3137     1.0  0.99040  0.83592  0.45904  1.0000
  Fe  Fe350     1.0  0.91558  0.87995  0.44603  1.0000
  S   S698      1.0  0.91585  0.87885  0.41286  1.0000
  S   S699      1.0  0.94012  0.89503  0.45011  1.0000
  C   C3138     1.0  0.94330  0.96402  0.17606  1.0000
  C   C3139     1.0  0.94907  0.58282  0.05091  1.0000
  C   C3140     1.0  0.90950  0.98221  0.46435  1.0000
  H   H5569     1.0  0.82513  0.98972  0.09124  1.0000
  H   H5570     1.0  0.91289  0.83025  0.40877  1.0000
  H   H5571     1.0  0.98127  0.94913  0.25488  1.0000
  S   S700      1.0  0.90679  0.94132  0.48058  1.0000
  H   H5572     1.0  0.91606  0.60294  0.03877  1.0000
  C   C3141     1.0  0.92709  0.49822  0.00013  1.0000
  H   H5573     1.0  0.93095  0.75782  0.48744  1.0000
  C   C3142     1.0  0.97743  0.85530  0.32055  1.0000
  C   C3143     1.0  0.95242  0.96117  0.19591  1.0000
  H   H5574     1.0  0.90889  0.57088  0.01688  1.0000
  H   H5575     1.0  0.92145  0.54879  0.04561  1.0000
  C   C3144     1.0  0.95602  0.56465  0.02186  1.0000
  C   C3145     1.0  0.91585  0.96166  0.46085  1.0000
  H   H5576     1.0  0.94237  0.54254  0.05856  1.0000
  C   C3146     1.0  0.98874  0.76558  0.46301  1.0000
  C   C3147     1.0  0.98057  0.85203  0.36427  1.0000
  C   C3148     1.0  0.98846  0.95965  0.17643  1.0000
  C   C3149     1.0  0.98788  0.92762  0.45781  1.0000
  H   H5577     1.0  0.86063  0.97209  0.14793  1.0000
  H   H5578     1.0  0.96043  0.86173  0.32452  1.0000
  H   H5579     1.0  0.91241  0.84842  0.38410  1.0000
  H   H5580     1.0  0.94248  0.98017  0.16647  1.0000
  H   H5581     1.0  0.94864  0.97132  0.41320  1.0000
  S   S701      1.0  0.95848  0.95541  0.36362  1.0000
  H   H5582     1.0  0.94066  0.56800  0.99569  1.0000
  H   H5583     1.0  0.79758  0.98232  0.23395  1.0000
  H   H5584     1.0  0.82777  0.99072  0.20390  1.0000
  H   H5585     1.0  0.85598  0.98423  0.26047  1.0000
  C   C3150     1.0  0.92968  0.95775  0.44222  1.0000
  C   C3151     1.0  0.93784  0.97431  0.42757  1.0000
  H   H5586     1.0  0.93424  0.94196  0.43925  1.0000
  C   C3152     1.0  0.92546  0.90108  0.39746  1.0000
  C   C3153     1.0  0.93802  0.90054  0.37743  1.0000
  C   C3154     1.0  0.94815  0.91732  0.36656  1.0000
  C   C3155     1.0  0.94516  0.93478  0.37563  1.0000
  C   C3156     1.0  0.93162  0.93579  0.39503  1.0000
  C   C3157     1.0  0.92190  0.91894  0.40599  1.0000
  H   H5587     1.0  0.94030  0.88694  0.37069  1.0000
  H   H5588     1.0  0.95843  0.91661  0.35141  1.0000
  H   H5589     1.0  0.92884  0.94952  0.40176  1.0000
  H   H5590     1.0  0.91174  0.91972  0.42120  1.0000
  H   H5591     1.0  0.92026  0.80480  0.46283  1.0000
  C   C3158     1.0  0.98478  0.51568  0.14377  1.0000
  C   C3159     1.0  0.81110  0.97892  0.13654  1.0000
  Fe  Fe351     1.0  0.97921  0.95344  0.33222  1.0000
  H   H5592     1.0  0.95556  0.72390  0.48361  1.0000
  S   S702      1.0  0.89408  0.99072  0.22885  1.0000
  N   N175      1.0  0.97648  0.83332  0.35852  1.0000
  H   H5593     1.0  0.97626  0.52981  0.00332  1.0000
  C   C3160     1.0  0.96518  0.61289  0.05248  1.0000
  H   H5594     1.0  0.87011  0.98896  0.07381  1.0000
  C   C3161     1.0  0.98832  0.81356  0.37021  1.0000
  H   H5595     1.0  0.99013  0.97124  0.39839  1.0000
  H   H5596     1.0  0.98189  0.98265  0.47607  1.0000
  S   S703      1.0  0.99260  0.62678  0.99726  1.0000
  H   H5597     1.0  0.98378  0.96423  0.16089  1.0000
  H   H5598     1.0  0.93880  0.54394  0.01503  1.0000
  H   H5599     1.0  0.84654  0.83120  0.47327  1.0000
  H   H5600     1.0  0.88589  0.61639  0.01862  1.0000
  H   H5601     1.0  0.97339  0.62563  0.04276  1.0000
  H   H5602     1.0  0.98344  0.90556  0.41970  1.0000
  N   N176      1.0  0.93898  0.57363  0.03855  1.0000
  C   C3162     1.0  0.98291  0.85332  0.29753  1.0000
  C   C3163     1.0  0.81277  0.98047  0.09935  1.0000
  C   C3164     1.0  0.92130  0.95932  0.18193  1.0000
  H   H5603     1.0  0.80630  0.72076  0.47255  1.0000
  C   C3165     1.0  0.89156  0.60243  0.01116  1.0000
  C   C3166     1.0  0.92444  0.98946  0.32554  1.0000
  H   H5604     1.0  0.96771  0.55216  0.02949  1.0000
  H   H5605     1.0  0.94520  0.96776  0.27446  1.0000
  H   H5606     1.0  0.92378  0.56187  0.08524  1.0000
  H   H5607     1.0  0.96466  0.57685  0.01162  1.0000
  H   H5608     1.0  0.97588  0.77945  0.43476  1.0000
  H   H5609     1.0  0.82496  0.98731  0.05511  1.0000
  C   C3167     1.0  0.90400  0.58433  0.02484  1.0000
  H   H5610     1.0  0.83567  0.97560  0.16567  1.0000
  C   C3168     1.0  0.98844  0.82152  0.43006  1.0000
  H   H5611     1.0  0.93709  0.58955  0.06350  1.0000
  H   H5612     1.0  0.84380  0.97544  0.11855  1.0000
  C   C3169     1.0  0.97879  0.83306  0.44582  1.0000
  H   H5613     1.0  0.97915  0.81917  0.42026  1.0000
  H   H5614     1.0  0.96239  0.83989  0.44753  1.0000
  H   H5615     1.0  0.81374  0.58466  0.45918  1.0000
  C   C3170     1.0  0.97121  0.77025  0.45085  1.0000
  H   H5616     1.0  0.89111  0.54395  0.07408  1.0000
  H   H5617     1.0  0.89114  0.54871  0.09930  1.0000
  H   H5618     1.0  0.99121  0.78097  0.46411  1.0000
  H   H5619     1.0  0.89322  0.57966  0.03988  1.0000
  H   H5620     1.0  0.96030  0.57026  0.05905  1.0000
  H   H5621     1.0  0.95696  0.77969  0.45904  1.0000
  H   H5622     1.0  0.94473  0.84968  0.35714  1.0000
  H   H5623     1.0  0.83727  0.96931  0.27810  1.0000
  C   C3171     1.0  0.97817  0.96569  0.21331  1.0000
  H   H5624     1.0  0.91140  0.52894  0.08830  1.0000
  C   C3172     1.0  0.95322  0.83404  0.36427  1.0000
  H   H5625     1.0  0.95459  0.93190  0.47117  1.0000
  N   N177      1.0  0.97182  0.97008  0.19238  1.0000
  H   H5626     1.0  0.98471  0.81358  0.38725  1.0000
  C   C3173     1.0  0.90134  0.52950  0.00656  1.0000
  C   C3174     1.0  0.90436  0.52524  0.02720  1.0000
  H   H5627     1.0  0.92318  0.50567  0.04923  1.0000
  H   H5628     1.0  0.98310  0.75701  0.47907  1.0000
  H   H5629     1.0  0.81100  0.96174  0.14121  1.0000
  H   H5630     1.0  0.95546  0.94393  0.20221  1.0000
  H   H5631     1.0  0.89561  0.53584  0.03753  1.0000
  C   C3175     1.0  0.92972  0.55576  0.05349  1.0000
  H   H5632     1.0  0.95195  0.61211  0.02699  1.0000
  H   H5633     1.0  0.89424  0.82082  0.46671  1.0000
  H   H5634     1.0  0.87038  0.84975  0.48126  1.0000
  H   H5635     1.0  0.91509  0.96447  0.26143  1.0000
  H   H5636     1.0  0.97022  0.93418  0.48818  1.0000
  C   C3176     1.0  0.83379  0.97834  0.24486  1.0000
  C   C3177     1.0  0.84701  0.97198  0.26207  1.0000
  H   H5637     1.0  0.91579  0.82044  0.38529  1.0000
  C   C3178     1.0  0.96931  0.53672  0.14356  1.0000
  H   H5638     1.0  0.94961  0.80877  0.48122  1.0000
  C   C3179     1.0  0.86294  0.95153  0.25986  1.0000
  C   C3180     1.0  0.91968  0.83241  0.39168  1.0000
  Fe  Fe352     1.0  0.97352  0.49884  0.08283  1.0000
  C   C3181     1.0  0.94334  0.83019  0.38813  1.0000
  H   H5639     1.0  0.91043  0.97051  0.19138  1.0000
  H   H5640     1.0  0.95035  0.62022  0.06188  1.0000
  H   H5641     1.0  0.90405  0.57683  0.07061  1.0000
  H   H5642     1.0  0.82815  0.96420  0.24454  1.0000
  C   C3182     1.0  0.96766  0.54318  0.99318  1.0000
  H   H5643     1.0  0.93582  0.73019  0.46796  1.0000
  C   C3183     1.0  0.80105  0.97912  0.08272  1.0000
  H   H5644     1.0  0.80297  0.98567  0.15066  1.0000
  H   H5645     1.0  0.92181  0.95655  0.33722  1.0000
  C   C3184     1.0  0.92214  0.97817  0.25494  1.0000
  H   H5646     1.0  0.97974  0.50658  0.13486  1.0000
  H   H5647     1.0  0.97126  0.86685  0.35664  1.0000
  S   S704      1.0  0.98978  0.98296  0.31351  1.0000
  H   H5648     1.0  0.84503  0.98135  0.22966  1.0000
  H   H5649     1.0  0.96808  0.79149  0.37225  1.0000
  H   H5650     1.0  0.87296  0.94790  0.27165  1.0000
  H   H5651     1.0  0.93065  0.59959  0.01354  1.0000
  H   H5652     1.0  0.87320  0.95310  0.24397  1.0000
  C   C3185     1.0  0.91992  0.50819  0.03379  1.0000
  C   C3186     1.0  0.92292  0.59091  0.02880  1.0000
  H   H5653     1.0  0.87783  0.59742  0.00911  1.0000
  H   H5654     1.0  0.94610  0.84173  0.39586  1.0000
  C   C3187     1.0  0.90400  0.80673  0.46082  1.0000
  C   C3188     1.0  0.91703  0.97000  0.32464  1.0000
  C   C3189     1.0  0.79969  0.56932  0.44311  1.0000
  H   H5655     1.0  0.99174  0.97276  0.21208  1.0000
  H   H5656     1.0  0.79511  0.98500  0.19739  1.0000
  H   H5657     1.0  0.96745  0.75540  0.44978  1.0000
  C   C3190     1.0  0.93906  0.98009  0.26247  1.0000
  H   H5658     1.0  0.97217  0.93700  0.43140  1.0000
  C   C3191     1.0  0.90127  0.54466  0.08447  1.0000
  H   H5659     1.0  0.92137  0.94298  0.19106  1.0000
  H   H5660     1.0  0.89976  0.97328  0.32648  1.0000
  H   H5661     1.0  0.97280  0.54594  0.15340  1.0000
  C   C3192     1.0  0.91194  0.51537  0.99352  1.0000
  H   H5662     1.0  0.96531  0.97353  0.22447  1.0000
  H   H5663     1.0  0.79846  0.69536  0.45154  1.0000
  H   H5664     1.0  0.80760  0.97276  0.05132  1.0000
  H   H5665     1.0  0.81289  0.55632  0.44174  1.0000
  H   H5666     1.0  0.97738  0.82209  0.33072  1.0000
  C   C3193     1.0  0.84431  0.96966  0.15123  1.0000
  H   H5667     1.0  0.98835  0.91043  0.46206  1.0000
  H   H5668     1.0  0.97507  0.85173  0.38138  1.0000
  H   H5669     1.0  0.91540  0.96115  0.16742  1.0000
  C   C3194     1.0  0.98480  0.79257  0.36730  1.0000
  Fe  Fe353     1.0  0.98455  0.97368  0.28582  1.0000
  C   C3195     1.0  0.98376  0.94222  0.22418  1.0000
  H   H5670     1.0  0.93989  0.96815  0.20808  1.0000
  H   H5671     1.0  0.96965  0.93510  0.22960  1.0000
  H   H5672     1.0  0.92411  0.96542  0.30925  1.0000
  H   H5673     1.0  0.94975  0.81415  0.39626  1.0000
  C   C3196     1.0  0.98366  0.83382  0.33521  1.0000
  H   H5674     1.0  0.91765  0.98263  0.35934  1.0000
  H   H5675     1.0  0.79837  0.69659  0.48559  1.0000
  H   H5676     1.0  0.89203  0.98068  0.10040  1.0000
  C   C3197     1.0  0.93177  0.49511  0.01990  1.0000
  H   H5677     1.0  0.95329  0.95298  0.16596  1.0000
  C   C3198     1.0  0.98786  0.93663  0.43419  1.0000
  H   H5678     1.0  0.82772  0.95937  0.06612  1.0000
  H   H5679     1.0  0.90137  0.60678  0.99535  1.0000
  C   C3199     1.0  0.93858  0.72578  0.48427  1.0000
  H   H5680     1.0  0.89854  0.98537  0.47855  1.0000
  C   C3200     1.0  0.96829  0.93799  0.47163  1.0000
  C   C3201     1.0  0.79449  0.71375  0.48552  1.0000
  H   H5681     1.0  0.99199  0.77419  0.39736  1.0000
  H   H5682     1.0  0.82935  0.54412  0.48656  1.0000
  H   H5683     1.0  0.98596  0.86688  0.32195  1.0000
  H   H5684     1.0  0.89846  0.74348  0.48520  1.0000
  H   H5685     1.0  0.96511  0.95539  0.46637  1.0000
  S   S705      1.0  0.93471  0.57183  0.90484  1.0000
  S   S706      1.0  0.88087  0.61054  0.89800  1.0000
  H   H5686     1.0  0.90984  0.57234  0.50964  1.0000
  H   H5687     1.0  0.86714  0.57997  0.79854  1.0000
  H   H5688     1.0  0.81490  0.75084  0.74531  1.0000
  S   S707      1.0  0.97391  0.58270  0.93272  1.0000
  Fe  Fe354     1.0  0.81482  0.75655  0.81576  1.0000
  S   S708      1.0  0.84803  0.74225  0.81836  1.0000
  H   H5689     1.0  0.89477  0.55860  0.56788  1.0000
  H   H5690     1.0  0.84905  0.82761  0.54722  1.0000
  C   C3202     1.0  0.91504  0.58802  0.76883  1.0000
  Fe  Fe355     1.0  0.91710  0.66489  0.75747  1.0000
  S   S709      1.0  0.93741  0.67861  0.76981  1.0000
  S   S710      1.0  0.88284  0.66661  0.77068  1.0000
  Fe  Fe356     1.0  0.95273  0.65157  0.72212  1.0000
  S   S711      1.0  0.82825  0.60004  0.50357  1.0000
  C   C3203     1.0  0.80707  0.57793  0.65707  1.0000
  Fe  Fe357     1.0  0.96118  0.64940  0.76463  1.0000
  Fe  Fe358     1.0  0.94933  0.69188  0.73584  1.0000
  S   S712      1.0  0.95256  0.72598  0.72555  1.0000
  S   S713      1.0  0.94006  0.63484  0.75431  1.0000
  S   S714      1.0  0.92711  0.68007  0.72402  1.0000
  S   S715      1.0  0.92703  0.67569  0.58401  1.0000
  S   S716      1.0  0.93590  0.71037  0.62053  1.0000
  S   S717      1.0  0.88283  0.70066  0.55418  1.0000
  H   H5691     1.0  0.87085  0.61810  0.54833  1.0000
  S   S718      1.0  0.97381  0.95460  0.56952  1.0000
  S   S719      1.0  0.95494  0.93505  0.63121  1.0000
  N   N178      1.0  0.89319  0.59438  0.78105  1.0000
  H   H5692     1.0  0.83891  0.82910  0.84127  1.0000
  Fe  Fe359     1.0  0.86629  0.84868  0.69652  1.0000
  S   S720      1.0  0.84807  0.82615  0.69359  1.0000
  S   S721      1.0  0.86490  0.85211  0.72930  1.0000
  Fe  Fe360     1.0  0.88272  0.85956  0.64937  1.0000
  S   S722      1.0  0.86549  0.83810  0.64300  1.0000
  S   S723      1.0  0.90064  0.87646  0.61962  1.0000
  Fe  Fe361     1.0  0.83879  0.85127  0.66658  1.0000
  C   C3204     1.0  0.92627  0.74289  0.49654  1.0000
  Fe  Fe362     1.0  0.87685  0.81540  0.67053  1.0000
  S   S724      1.0  0.88951  0.78157  0.66775  1.0000
  S   S725      1.0  0.85516  0.87464  0.67092  1.0000
  S   S726      1.0  0.89596  0.83598  0.67553  1.0000
  H   H5693     1.0  0.82029  0.82192  0.79376  1.0000
  S   S727      1.0  0.80474  0.56364  0.55709  1.0000
  H   H5694     1.0  0.82174  0.58082  0.64702  1.0000
  C   C3205     1.0  0.80963  0.87643  0.53071  1.0000
  Fe  Fe363     1.0  0.89698  0.57398  0.64627  1.0000
  S   S728      1.0  0.91192  0.60110  0.64299  1.0000
  S   S729      1.0  0.86691  0.57625  0.63664  1.0000
  C   C3206     1.0  0.90870  0.50757  0.87144  1.0000
  S   S730      1.0  0.80619  0.76994  0.78424  1.0000
  H   H5695     1.0  0.86143  0.54400  0.80123  1.0000
  H   H5696     1.0  0.90910  0.78500  0.49903  1.0000
  H   H5697     1.0  0.87564  0.62510  0.72460  1.0000
  C   C3207     1.0  0.83447  0.81881  0.52661  1.0000
  C   C3208     1.0  0.82541  0.55454  0.57062  1.0000
  C   C3209     1.0  0.84363  0.54165  0.56208  1.0000
  C   C3210     1.0  0.86011  0.53387  0.57287  1.0000
  C   C3211     1.0  0.85850  0.53902  0.59223  1.0000
  C   C3212     1.0  0.84008  0.55160  0.60106  1.0000
  C   C3213     1.0  0.82350  0.55937  0.59023  1.0000
  H   H5698     1.0  0.84501  0.53763  0.54711  1.0000
  C   C3214     1.0  0.81799  0.86908  0.56702  1.0000
  H   H5699     1.0  0.83883  0.55571  0.61597  1.0000
  H   H5700     1.0  0.80933  0.56923  0.59694  1.0000
  Fe  Fe364     1.0  0.79345  0.79515  0.52836  1.0000
  H   H5701     1.0  0.79659  0.53385  0.66698  1.0000
  C   C3215     1.0  0.85754  0.57995  0.85694  1.0000
  C   C3216     1.0  0.93788  0.92071  0.62804  1.0000
  C   C3217     1.0  0.93768  0.91846  0.60797  1.0000
  C   C3218     1.0  0.92600  0.90499  0.60555  1.0000
  C   C3219     1.0  0.91428  0.89388  0.62318  1.0000
  C   C3220     1.0  0.91390  0.89656  0.64326  1.0000
  C   C3221     1.0  0.92569  0.91001  0.64569  1.0000
  H   H5702     1.0  0.94700  0.92663  0.59431  1.0000
  H   H5703     1.0  0.92627  0.90298  0.59000  1.0000
  H   H5704     1.0  0.90470  0.88813  0.65691  1.0000
  H   H5705     1.0  0.92563  0.91189  0.66123  1.0000
  C   C3222     1.0  0.87763  0.68332  0.54097  1.0000
  C   C3223     1.0  0.89294  0.67450  0.52551  1.0000
  H   H5706     1.0  0.85646  0.74365  0.53974  1.0000
  C   C3224     1.0  0.94962  0.60467  0.58504  1.0000
  C   C3225     1.0  0.93571  0.59730  0.60344  1.0000
  C   C3226     1.0  0.93105  0.60711  0.62064  1.0000
  C   C3227     1.0  0.94111  0.62312  0.61995  1.0000
  C   C3228     1.0  0.95496  0.63030  0.60180  1.0000
  H   H5707     1.0  0.92810  0.58470  0.60403  1.0000
  H   H5708     1.0  0.93753  0.63049  0.63328  1.0000
  H   H5709     1.0  0.96231  0.64312  0.60110  1.0000
  C   C3229     1.0  0.95785  0.65696  0.67223  1.0000
  C   C3230     1.0  0.94509  0.68973  0.63990  1.0000
  C   C3231     1.0  0.94797  0.69424  0.65802  1.0000
  C   C3232     1.0  0.95480  0.67791  0.67395  1.0000
  H   H5710     1.0  0.94479  0.71039  0.65972  1.0000
  H   H5711     1.0  0.95752  0.68156  0.68765  1.0000
  C   C3233     1.0  0.93642  0.74164  0.70812  1.0000
  C   C3234     1.0  0.92899  0.73266  0.69555  1.0000
  C   C3235     1.0  0.91503  0.74514  0.68283  1.0000
  C   C3236     1.0  0.90811  0.76667  0.68283  1.0000
  C   C3237     1.0  0.91614  0.77585  0.69479  1.0000
  C   C3238     1.0  0.93055  0.76339  0.70711  1.0000
  H   H5712     1.0  0.93422  0.71616  0.69538  1.0000
  H   H5713     1.0  0.90959  0.73802  0.67300  1.0000
  H   H5714     1.0  0.91124  0.79250  0.69454  1.0000
  H   H5715     1.0  0.93693  0.77045  0.71617  1.0000
  H   H5716     1.0  0.95273  0.59783  0.57134  1.0000
  H   H5717     1.0  0.82451  0.76207  0.52517  1.0000
  C   C3239     1.0  0.88281  0.58093  0.53474  1.0000
  H   H5718     1.0  0.84732  0.65707  0.71693  1.0000
  C   C3240     1.0  0.83971  0.83647  0.76580  1.0000
  C   C3241     1.0  0.84099  0.84660  0.74469  1.0000
  C   C3242     1.0  0.82342  0.85122  0.73565  1.0000
  H   H5719     1.0  0.85339  0.83247  0.77265  1.0000
  C   C3243     1.0  0.86144  0.83963  0.51477  1.0000
  C   C3244     1.0  0.93415  0.60537  0.83737  1.0000
  C   C3245     1.0  0.84805  0.69950  0.61998  1.0000
  Fe  Fe365     1.0  0.90191  0.58692  0.91798  1.0000
  C   C3246     1.0  0.85721  0.72078  0.80574  1.0000
  C   C3247     1.0  0.87731  0.70882  0.80650  1.0000
  C   C3248     1.0  0.88500  0.69183  0.79620  1.0000
  C   C3249     1.0  0.87271  0.68682  0.78498  1.0000
  C   C3250     1.0  0.85239  0.69842  0.78471  1.0000
  C   C3251     1.0  0.84468  0.71549  0.79494  1.0000
  H   H5720     1.0  0.88681  0.71248  0.81532  1.0000
  H   H5721     1.0  0.90017  0.68223  0.79756  1.0000
  H   H5722     1.0  0.84279  0.69443  0.77624  1.0000
  H   H5723     1.0  0.82909  0.72456  0.79436  1.0000
  Fe  Fe366     1.0  0.91601  0.69923  0.55695  1.0000
  C   C3252     1.0  0.84378  0.61889  0.68402  1.0000
  C   C3253     1.0  0.82106  0.83045  0.77770  1.0000
  C   C3254     1.0  0.83387  0.81949  0.50581  1.0000
  H   H5724     1.0  0.91986  0.60174  0.75693  1.0000
  H   H5725     1.0  0.86373  0.63120  0.79579  1.0000
  S   S731      1.0  0.88570  0.56104  0.68021  1.0000
  N   N179      1.0  0.86505  0.66245  0.63830  1.0000
  S   S732      1.0  0.91178  0.54247  0.63830  1.0000
  C   C3255     1.0  0.92645  0.50832  0.85208  1.0000
  S   S733      1.0  0.97104  0.69265  0.56949  1.0000
  C   C3256     1.0  0.80458  0.84589  0.74776  1.0000
  H   H5726     1.0  0.85398  0.61286  0.59852  1.0000
  H   H5727     1.0  0.94212  0.90801  0.53235  1.0000
  H   H5728     1.0  0.91392  0.49431  0.88383  1.0000
  C   C3257     1.0  0.81520  0.88507  0.83437  1.0000
  C   C3258     1.0  0.81147  0.90903  0.82476  1.0000
  H   H5729     1.0  0.96036  0.57860  0.83895  1.0000
  C   C3259     1.0  0.88386  0.56115  0.50688  1.0000
  C   C3260     1.0  0.93780  0.62195  0.52709  1.0000
  H   H5730     1.0  0.80774  0.84764  0.55324  1.0000
  C   C3261     1.0  0.81281  0.92172  0.84019  1.0000
  H   H5731     1.0  0.90622  0.52241  0.87706  1.0000
  C   C3262     1.0  0.96674  0.61454  0.97905  1.0000
  H   H5732     1.0  0.94896  0.65391  0.90235  1.0000
  H   H5733     1.0  0.83291  0.74610  0.50539  1.0000
  H   H5734     1.0  0.88241  0.79663  0.50201  1.0000
  H   H5735     1.0  0.85103  0.57351  0.72173  1.0000
  H   H5736     1.0  0.90140  0.61281  0.51935  1.0000
  H   H5737     1.0  0.86481  0.76316  0.49218  1.0000
  C   C3263     1.0  0.96603  0.53757  0.63537  1.0000
  H   H5738     1.0  0.82914  0.88107  0.84172  1.0000
  H   H5739     1.0  0.90292  0.51351  0.94834  1.0000
  C   C3264     1.0  0.83805  0.67337  0.71558  1.0000
  H   H5740     1.0  0.82846  0.75930  0.70497  1.0000
  H   H5741     1.0  0.94342  0.64831  0.82335  1.0000
  S   S734      1.0  0.86329  0.63892  0.50641  1.0000
  C   C3265     1.0  0.81817  0.70089  0.51216  1.0000
  C   C3266     1.0  0.82776  0.50276  0.74499  1.0000
  H   H5742     1.0  0.90363  0.57653  0.57710  1.0000
  C   C3267     1.0  0.90908  0.64439  0.85040  1.0000
  H   H5743     1.0  0.79561  0.65687  0.64193  1.0000
  H   H5744     1.0  0.87430  0.52409  0.56605  1.0000
  C   C3268     1.0  0.84699  0.83053  0.48942  1.0000
  C   C3269     1.0  0.95030  0.66742  0.84143  1.0000
  H   H5745     1.0  0.82830  0.91673  0.84477  1.0000
  C   C3270     1.0  0.83125  0.70739  0.72954  1.0000
  H   H5746     1.0  0.85820  0.53733  0.71635  1.0000
  H   H5747     1.0  0.82143  0.70389  0.60557  1.0000
  H   H5748     1.0  0.92176  0.52109  0.83894  1.0000
  H   H5749     1.0  0.97545  0.89692  0.57359  1.0000
  H   H5750     1.0  0.95365  0.54724  0.72558  1.0000
  H   H5751     1.0  0.79780  0.73689  0.74022  1.0000
  H   H5752     1.0  0.86635  0.51972  0.94095  1.0000
  C   C3271     1.0  0.91586  0.82525  0.55469  1.0000
  N   N180      1.0  0.81757  0.87027  0.81985  1.0000
  H   H5753     1.0  0.92493  0.60488  0.87052  1.0000
  H   H5754     1.0  0.83448  0.68063  0.64883  1.0000
  H   H5755     1.0  0.86303  0.61207  0.77438  1.0000
  H   H5756     1.0  0.88756  0.66654  0.68842  1.0000
  C   C3272     1.0  0.90696  0.83553  0.57428  1.0000
  C   C3273     1.0  0.88519  0.84906  0.57360  1.0000
  H   H5757     1.0  0.88140  0.53489  0.81691  1.0000
  H   H5758     1.0  0.88037  0.68628  0.64070  1.0000
  H   H5759     1.0  0.95011  0.83722  0.56080  1.0000
  H   H5760     1.0  0.94690  0.84341  0.53454  1.0000
  H   H5761     1.0  0.91399  0.83799  0.54058  1.0000
  H   H5762     1.0  0.90541  0.81474  0.55475  1.0000
  C   C3274     1.0  0.87847  0.53841  0.80072  1.0000
  H   H5763     1.0  0.87687  0.95673  0.60703  1.0000
  H   H5764     1.0  0.89718  0.57171  0.88296  1.0000
  H   H5765     1.0  0.90430  0.68167  0.66782  1.0000
  Fe  Fe367     1.0  0.88047  0.54309  0.63197  1.0000
  C   C3275     1.0  0.87749  0.60396  0.55923  1.0000
  H   H5766     1.0  0.89305  0.64093  0.66492  1.0000
  H   H5767     1.0  0.86174  0.68422  0.72382  1.0000
  H   H5768     1.0  0.85356  0.70862  0.62842  1.0000
  H   H5769     1.0  0.88777  0.55741  0.77060  1.0000
  H   H5770     1.0  0.90564  0.82332  0.58894  1.0000
  H   H5771     1.0  0.91704  0.84582  0.57535  1.0000
  C   C3276     1.0  0.93128  0.76969  0.60337  1.0000
  H   H5772     1.0  0.87924  0.85570  0.58805  1.0000
  H   H5773     1.0  0.88586  0.86232  0.55982  1.0000
  C   C3277     1.0  0.90059  0.66577  0.67452  1.0000
  C   C3278     1.0  0.84635  0.59924  0.86199  1.0000
  S   S735      1.0  0.79911  0.54922  0.77787  1.0000
  H   H5774     1.0  0.90840  0.65689  0.64440  1.0000
  S   S736      1.0  0.93589  0.51179  0.91204  1.0000
  H   H5775     1.0  0.81513  0.51452  0.85856  1.0000
  C   C3279     1.0  0.88018  0.65873  0.61821  1.0000
  C   C3280     1.0  0.87091  0.65294  0.60201  1.0000
  C   C3281     1.0  0.88793  0.64514  0.58438  1.0000
  H   H5776     1.0  0.83645  0.67054  0.62639  1.0000
  H   H5777     1.0  0.88716  0.67278  0.61022  1.0000
  H   H5778     1.0  0.89376  0.64592  0.62169  1.0000
  H   H5779     1.0  0.86033  0.66688  0.59472  1.0000
  H   H5780     1.0  0.86190  0.64034  0.60943  1.0000
  H   H5781     1.0  0.85941  0.69816  0.60500  1.0000
  H   H5782     1.0  0.83343  0.65240  0.67533  1.0000
  H   H5783     1.0  0.89786  0.62998  0.59048  1.0000
  H   H5784     1.0  0.88042  0.64299  0.57242  1.0000
  H   H5785     1.0  0.89788  0.65686  0.57648  1.0000
  Fe  Fe368     1.0  0.92564  0.54185  0.92430  1.0000
  C   C3282     1.0  0.85298  0.52181  0.74988  1.0000
  H   H5786     1.0  0.84185  0.85087  0.80130  1.0000
  H   H5787     1.0  0.96085  0.67797  0.80763  1.0000
  H   H5788     1.0  0.89385  0.54972  0.49722  1.0000
  H   H5789     1.0  0.88231  0.98884  0.53149  1.0000
  H   H5790     1.0  0.84639  0.90929  0.60267  1.0000
  H   H5791     1.0  0.83220  0.70383  0.49984  1.0000
  H   H5792     1.0  0.79400  0.85429  0.84158  1.0000
  H   H5793     1.0  0.86762  0.68798  0.85280  1.0000
  H   H5794     1.0  0.89554  0.76930  0.56748  1.0000
  S   S737      1.0  0.92265  0.88165  0.50067  1.0000
  C   C3283     1.0  0.92358  0.50517  0.71317  1.0000
  H   H5795     1.0  0.96289  0.62837  0.91312  1.0000
  H   H5796     1.0  0.95883  0.79019  0.57062  1.0000
  C   C3284     1.0  0.80010  0.66902  0.77057  1.0000
  C   C3285     1.0  0.88840  0.50564  0.86582  1.0000
  C   C3286     1.0  0.82395  0.50862  0.72211  1.0000
  Fe  Fe369     1.0  0.79923  0.62038  0.49282  1.0000
  H   H5797     1.0  0.96520  0.77645  0.62857  1.0000
  C   C3287     1.0  0.80464  0.86462  0.55349  1.0000
  H   H5798     1.0  0.82438  0.85880  0.71929  1.0000
  H   H5799     1.0  0.96247  0.63522  0.83856  1.0000
  C   C3288     1.0  0.83310  0.88772  0.59318  1.0000
  H   H5800     1.0  0.86914  0.52013  0.75227  1.0000
  H   H5801     1.0  0.84216  0.85430  0.60144  1.0000
  H   H5802     1.0  0.94615  0.60610  0.96390  1.0000
  C   C3289     1.0  0.89661  0.56575  0.52045  1.0000
  N   N181      1.0  0.84978  0.50102  0.74770  1.0000
  H   H5803     1.0  0.87226  0.66811  0.83762  1.0000
  N   N182      1.0  0.84040  0.72605  0.71609  1.0000
  H   H5804     1.0  0.94083  0.80773  0.58512  1.0000
  H   H5805     1.0  0.86914  0.78336  0.57491  1.0000
  H   H5806     1.0  0.83741  0.61789  0.70108  1.0000
  H   H5807     1.0  0.91607  0.63363  0.88888  1.0000
  C   C3290     1.0  0.80686  0.74953  0.73338  1.0000
  C   C3291     1.0  0.85894  0.59483  0.57433  1.0000
  H   H5808     1.0  0.87397  0.75572  0.57449  1.0000
  H   H5809     1.0  0.81667  0.51443  0.75383  1.0000
  H   H5810     1.0  0.85729  0.88190  0.61139  1.0000
  S   S738      1.0  0.79394  0.56765  0.83157  1.0000
  C   C3292     1.0  0.89396  0.60864  0.79493  1.0000
  C   C3293     1.0  0.93219  0.57873  0.78214  1.0000
  C   C3294     1.0  0.87247  0.61908  0.80680  1.0000
  C   C3295     1.0  0.95225  0.56775  0.76945  1.0000
  C   C3296     1.0  0.87527  0.63024  0.82274  1.0000
  H   H5811     1.0  0.90220  0.62154  0.78554  1.0000
  H   H5812     1.0  0.90317  0.59979  0.80716  1.0000
  H   H5813     1.0  0.88907  0.57151  0.81043  1.0000
  H   H5814     1.0  0.93612  0.59156  0.78723  1.0000
  H   H5815     1.0  0.92686  0.56719  0.79637  1.0000
  H   H5816     1.0  0.86266  0.60731  0.81523  1.0000
  H   H5817     1.0  0.86593  0.60439  0.71994  1.0000
  H   H5818     1.0  0.95798  0.57882  0.75498  1.0000
  H   H5819     1.0  0.96451  0.56208  0.77907  1.0000
  H   H5820     1.0  0.94944  0.55394  0.76506  1.0000
  H   H5821     1.0  0.88254  0.61872  0.83520  1.0000
  H   H5822     1.0  0.88509  0.64213  0.81478  1.0000
  H   H5823     1.0  0.85983  0.63838  0.83025  1.0000
  H   H5824     1.0  0.98332  0.53312  0.63092  1.0000
  H   H5825     1.0  0.81842  0.51201  0.66593  1.0000
  C   C3297     1.0  0.92860  0.78189  0.58139  1.0000
  H   H5826     1.0  0.84785  0.75328  0.67430  1.0000
  H   H5827     1.0  0.88344  0.50960  0.90655  1.0000
  C   C3298     1.0  0.93562  0.61273  0.85695  1.0000
  N   N183      1.0  0.93045  0.63623  0.85590  1.0000
  C   C3299     1.0  0.86057  0.84088  0.49391  1.0000
  C   C3300     1.0  0.92983  0.82020  0.62987  1.0000
  H   H5828     1.0  0.89955  0.67199  0.86603  1.0000
  H   H5829     1.0  0.80161  0.62745  0.70786  1.0000
  C   C3301     1.0  0.79572  0.69807  0.78797  1.0000
  H   H5830     1.0  0.81552  0.71525  0.62870  1.0000
  H   H5831     1.0  0.88934  0.74402  0.54039  1.0000
  C   C3302     1.0  0.99284  0.58419  0.65483  1.0000
  C   C3303     1.0  0.80336  0.83559  0.76876  1.0000
  H   H5832     1.0  0.81050  0.80881  0.85438  1.0000
  H   H5833     1.0  0.82129  0.67242  0.72126  1.0000
  C   C3304     1.0  0.84896  0.50391  0.85527  1.0000
  H   H5834     1.0  0.96762  0.49416  0.87273  1.0000
  H   H5835     1.0  0.81653  0.68438  0.51419  1.0000
  H   H5836     1.0  0.84220  0.52696  0.76394  1.0000
  H   H5837     1.0  0.84493  0.88751  0.57830  1.0000
  C   C3305     1.0  0.94236  0.79888  0.57274  1.0000
  H   H5838     1.0  0.85999  0.77772  0.54373  1.0000
  C   C3306     1.0  0.84889  0.54066  0.73169  1.0000
  H   H5839     1.0  0.83063  0.52231  0.71251  1.0000
  C   C3307     1.0  0.94941  0.62871  0.88694  1.0000
  H   H5840     1.0  0.81642  0.50866  0.60367  1.0000
  C   C3308     1.0  0.96217  0.60463  0.96507  1.0000
  C   C3309     1.0  0.80545  0.67753  0.78505  1.0000
  H   H5841     1.0  0.86709  0.66106  0.86601  1.0000
  H   H5842     1.0  0.94158  0.57685  0.82494  1.0000
  C   C3310     1.0  0.94342  0.58188  0.83877  1.0000
  H   H5843     1.0  0.94023  0.51147  0.85600  1.0000
  C   C3311     1.0  0.82546  0.53859  0.50388  1.0000
  H   H5844     1.0  0.83153  0.89356  0.62415  1.0000
  H   H5845     1.0  0.80626  0.51785  0.50302  1.0000
  C   C3312     1.0  0.89123  0.75999  0.53116  1.0000
  H   H5846     1.0  0.80178  0.88295  0.84784  1.0000
  H   H5847     1.0  0.82977  0.72776  0.60410  1.0000
  C   C3313     1.0  0.92962  0.63951  0.87755  1.0000
  C   C3314     1.0  0.93238  0.50850  0.75083  1.0000
  H   H5848     1.0  0.86367  0.67677  0.66420  1.0000
  C   C3315     1.0  0.84841  0.64080  0.67385  1.0000
  H   H5849     1.0  0.94287  0.63284  0.53390  1.0000
  H   H5850     1.0  0.85016  0.85753  0.82144  1.0000
  S   S739      1.0  0.88033  0.53031  0.60418  1.0000
  C   C3316     1.0  0.84523  0.67761  0.63388  1.0000
  C   C3317     1.0  0.96589  0.67643  0.82256  1.0000
  H   H5851     1.0  0.94537  0.72610  0.77207  1.0000
  C   C3318     1.0  0.98759  0.83993  0.53456  1.0000
  H   H5852     1.0  0.79719  0.63143  0.63623  1.0000
  H   H5853     1.0  0.82582  0.84667  0.85913  1.0000
  Fe  Fe370     1.0  0.83200  0.62901  0.51278  1.0000
  C   C3319     1.0  0.87601  0.57029  0.86432  1.0000
  H   H5854     1.0  0.96709  0.69225  0.82389  1.0000
  C   C3320     1.0  0.95849  0.62182  0.58403  1.0000
  H   H5855     1.0  0.79564  0.91458  0.82103  1.0000
  Fe  Fe371     1.0  0.93956  0.70099  0.58982  1.0000
  C   C3321     1.0  0.80528  0.57211  0.67887  1.0000
  C   C3322     1.0  0.85650  0.74443  0.52304  1.0000
  H   H5856     1.0  0.83954  0.62567  0.57778  1.0000
  C   C3323     1.0  0.86617  0.76300  0.50839  1.0000
  H   H5857     1.0  0.83526  0.51991  0.91453  1.0000
  Fe  Fe372     1.0  0.85686  0.56039  0.67008  1.0000
  C   C3324     1.0  0.87934  0.60724  0.76590  1.0000
  Fe  Fe373     1.0  0.96128  0.96013  0.60233  1.0000
  H   H5858     1.0  0.87036  0.55431  0.51686  1.0000
  H   H5859     1.0  0.90892  0.51815  0.97799  1.0000
  C   C3325     1.0  0.86823  0.65626  0.51986  1.0000
  H   H5860     1.0  0.80163  0.52588  0.52776  1.0000
  H   H5861     1.0  0.95965  0.54261  0.62077  1.0000
  C   C3326     1.0  0.90237  0.74408  0.50015  1.0000
  H   H5862     1.0  0.80027  0.91977  0.85449  1.0000
  C   C3327     1.0  0.97528  0.86119  0.60613  1.0000
  H   H5863     1.0  0.93441  0.63040  0.51144  1.0000
  H   H5864     1.0  0.90747  0.54814  0.78616  1.0000
  H   H5865     1.0  0.87427  0.83953  0.57268  1.0000
  C   C3328     1.0  0.90400  0.57127  0.56251  1.0000
  N   N184      1.0  0.89383  0.58906  0.54708  1.0000
  C   C3329     1.0  0.87669  0.77655  0.54365  1.0000
  H   H5866     1.0  0.93388  0.71046  0.49196  1.0000
  N   N185      1.0  0.89755  0.78118  0.77049  1.0000
  C   C3330     1.0  0.88653  0.77511  0.75665  1.0000
  C   C3331     1.0  0.91729  0.76482  0.77266  1.0000
  C   C3332     1.0  0.88299  0.78219  0.79150  1.0000
  C   C3333     1.0  0.90324  0.80249  0.76124  1.0000
  C   C3334     1.0  0.91640  0.80531  0.73855  1.0000
  C   C3335     1.0  0.86691  0.79114  0.75074  1.0000
  C   C3336     1.0  0.89250  0.78506  0.80909  1.0000
  C   C3337     1.0  0.91416  0.74240  0.78471  1.0000
  C   C3338     1.0  0.93504  0.72775  0.78758  1.0000
  C   C3339     1.0  0.92218  0.82703  0.73127  1.0000
  C   C3340     1.0  0.85640  0.78282  0.73782  1.0000
  C   C3341     1.0  0.87646  0.78432  0.82980  1.0000
  H   H5867     1.0  0.88117  0.76013  0.76461  1.0000
  H   H5868     1.0  0.89746  0.77185  0.74186  1.0000
  H   H5869     1.0  0.92685  0.76277  0.75689  1.0000
  H   H5870     1.0  0.92743  0.77014  0.78017  1.0000
  H   H5871     1.0  0.87597  0.76796  0.79737  1.0000
  H   H5872     1.0  0.86944  0.79551  0.78990  1.0000
  H   H5873     1.0  0.88897  0.81518  0.76142  1.0000
  H   H5874     1.0  0.91240  0.80601  0.77109  1.0000
  H   H5875     1.0  0.90761  0.80365  0.72737  1.0000
  H   H5876     1.0  0.93129  0.79363  0.73766  1.0000
  H   H5877     1.0  0.85507  0.79415  0.76499  1.0000
  H   H5878     1.0  0.87110  0.80617  0.74129  1.0000
  H   H5879     1.0  0.89728  0.80052  0.80494  1.0000
  H   H5880     1.0  0.90630  0.77250  0.81195  1.0000
  H   H5881     1.0  0.90425  0.74259  0.80058  1.0000
  H   H5882     1.0  0.90678  0.73534  0.77589  1.0000
  N   N186      1.0  0.88848  0.76258  0.50901  1.0000
  C   C3342     1.0  0.97079  0.86682  0.64174  1.0000
  H   H5883     1.0  0.96173  0.97727  0.49881  1.0000
  H   H5884     1.0  0.90797  0.83967  0.73219  1.0000
  H   H5885     1.0  0.93234  0.82889  0.74108  1.0000
  H   H5886     1.0  0.93078  0.82889  0.71467  1.0000
  H   H5887     1.0  0.85151  0.76793  0.74693  1.0000
  H   H5888     1.0  0.84215  0.79446  0.73430  1.0000
  H   H5889     1.0  0.86716  0.78022  0.72275  1.0000
  H   H5890     1.0  0.88333  0.78684  0.84213  1.0000
  H   H5891     1.0  0.86227  0.79675  0.82795  1.0000
  H   H5892     1.0  0.87183  0.76871  0.83509  1.0000
  N   N187      1.0  0.96398  0.56592  0.68051  1.0000
  S   S740      1.0  0.80638  0.86483  0.66037  1.0000
  C   C3343     1.0  0.94086  0.57034  0.68957  1.0000
  H   H5893     1.0  0.85245  0.95618  0.57599  1.0000
  H   H5894     1.0  0.86520  0.72925  0.51869  1.0000
  C   C3344     1.0  0.95964  0.55559  0.64726  1.0000
  H   H5895     1.0  0.96896  0.79524  0.49670  1.0000
  H   H5896     1.0  0.88252  0.86304  0.79346  1.0000
  C   C3345     1.0  0.93343  0.58603  0.70482  1.0000
  C   C3346     1.0  0.91995  0.60672  0.69575  1.0000
  H   H5897     1.0  0.93547  0.93263  0.51457  1.0000
  H   H5898     1.0  0.98676  0.54407  0.73736  1.0000
  C   C3347     1.0  0.85069  0.88125  0.79351  1.0000
  H   H5899     1.0  0.94361  0.76768  0.64795  1.0000
  H   H5900     1.0  0.81317  0.74224  0.70257  1.0000
  H   H5901     1.0  0.93187  0.57632  0.67680  1.0000
  H   H5902     1.0  0.93545  0.55545  0.69790  1.0000
  C   C3348     1.0  0.82343  0.83690  0.84917  1.0000
  C   C3349     1.0  0.96850  0.54915  0.66768  1.0000
  C   C3350     1.0  0.84478  0.68485  0.72901  1.0000
  H   H5903     1.0  0.96208  0.53513  0.67728  1.0000
  H   H5904     1.0  0.96437  0.73855  0.63214  1.0000
  H   H5905     1.0  0.94235  0.55959  0.65094  1.0000
  C   C3351     1.0  0.85436  0.56020  0.73494  1.0000
  C   C3352     1.0  0.88814  0.66132  0.51481  1.0000
  H   H5906     1.0  0.80863  0.86902  0.79150  1.0000
  H   H5907     1.0  0.96744  0.59791  0.67707  1.0000
  H   H5908     1.0  0.85850  0.90185  0.51368  1.0000
  H   H5909     1.0  0.94639  0.58987  0.70951  1.0000
  H   H5910     1.0  0.92880  0.61464  0.68078  1.0000
  H   H5911     1.0  0.90557  0.60379  0.69277  1.0000
  H   H5912     1.0  0.91539  0.61745  0.70703  1.0000
  C   C3353     1.0  0.79536  0.82612  0.67606  1.0000
  S   S741      1.0  0.97525  0.49504  0.81148  1.0000
  C   C3354     1.0  0.87236  0.87181  0.78208  1.0000
  H   H5913     1.0  0.87119  0.55732  0.73538  1.0000
  H   H5914     1.0  0.83198  0.54469  0.73128  1.0000
  C   C3355     1.0  0.84514  0.61035  0.58783  1.0000
  H   H5915     1.0  0.87111  0.86106  0.77248  1.0000
  H   H5916     1.0  0.84065  0.68134  0.69884  1.0000
  C   C3356     1.0  0.80060  0.51385  0.72200  1.0000
  N   N188      1.0  0.87316  0.94897  0.54730  1.0000
  C   C3357     1.0  0.86421  0.93001  0.54874  1.0000
  C   C3358     1.0  0.86952  0.95328  0.56908  1.0000
  C   C3359     1.0  0.86105  0.96768  0.53433  1.0000
  C   C3360     1.0  0.89612  0.94651  0.53708  1.0000
  C   C3361     1.0  0.90968  0.92389  0.53972  1.0000
  C   C3362     1.0  0.86273  0.92613  0.52737  1.0000
  C   C3363     1.0  0.91835  0.61494  0.54170  1.0000
  C   C3364     1.0  0.88102  0.93633  0.58498  1.0000
  C   C3365     1.0  0.87358  0.94130  0.60699  1.0000
  C   C3366     1.0  0.93287  0.92434  0.53130  1.0000
  C   C3367     1.0  0.85943  0.90398  0.52927  1.0000
  S   S742      1.0  0.81766  0.80568  0.50020  1.0000
  H   H5917     1.0  0.84809  0.93159  0.55851  1.0000
  H   H5918     1.0  0.87316  0.91544  0.55706  1.0000
  H   H5919     1.0  0.96203  0.53653  0.98262  1.0000
  H   H5920     1.0  0.79820  0.51752  0.70561  1.0000
  H   H5921     1.0  0.84389  0.96854  0.54003  1.0000
  H   H5922     1.0  0.86451  0.96585  0.51767  1.0000
  H   H5923     1.0  0.89833  0.95294  0.51985  1.0000
  H   H5924     1.0  0.90351  0.95633  0.54290  1.0000
  H   H5925     1.0  0.90532  0.91442  0.53076  1.0000
  H   H5926     1.0  0.90782  0.91552  0.55634  1.0000
  H   H5927     1.0  0.84933  0.93743  0.52143  1.0000
  H   H5928     1.0  0.87706  0.92834  0.51543  1.0000
  C   C3368     1.0  0.97555  0.49276  0.95943  1.0000
  Fe  Fe374     1.0  0.79814  0.57345  0.79645  1.0000
  H   H5929     1.0  0.87851  0.92038  0.58600  1.0000
  H   H5930     1.0  0.89805  0.93622  0.58034  1.0000
  H   H5931     1.0  0.88195  0.92904  0.61819  1.0000
  H   H5932     1.0  0.80113  0.87172  0.52103  1.0000
  H   H5933     1.0  0.82441  0.81055  0.53932  1.0000
  S   S743      1.0  0.97347  0.74232  0.52511  1.0000
  H   H5934     1.0  0.85828  0.60662  0.68217  1.0000
  C   C3369     1.0  0.81840  0.83618  0.59290  1.0000
  H   H5935     1.0  0.87279  0.89212  0.53456  1.0000
  H   H5936     1.0  0.84468  0.90139  0.54043  1.0000
  H   H5937     1.0  0.80872  0.90548  0.71889  1.0000
  H   H5938     1.0  0.82694  0.73406  0.53299  1.0000
  H   H5939     1.0  0.89817  0.63419  0.86056  1.0000
  C   C3370     1.0  0.87493  0.67131  0.85204  1.0000
  C   C3371     1.0  0.94323  0.80108  0.53571  1.0000
  H   H5940     1.0  0.95083  0.53455  0.56582  1.0000
  C   C3372     1.0  0.85438  0.73210  0.72698  1.0000
  C   C3373     1.0  0.87597  0.71765  0.72830  1.0000
  C   C3374     1.0  0.86049  0.73989  0.67878  1.0000
  Fe  Fe375     1.0  0.80726  0.59494  0.53550  1.0000
  C   C3375     1.0  0.88816  0.72681  0.73896  1.0000
  C   C3376     1.0  0.87338  0.73289  0.65857  1.0000
  H   H5941     1.0  0.86457  0.70792  0.69572  1.0000
  H   H5942     1.0  0.81315  0.92176  0.69292  1.0000
  H   H5943     1.0  0.85726  0.74817  0.71930  1.0000
  H   H5944     1.0  0.96028  0.88146  0.63567  1.0000
  H   H5945     1.0  0.88548  0.71582  0.71254  1.0000
  H   H5946     1.0  0.87411  0.70208  0.73811  1.0000
  C   C3377     1.0  0.90908  0.60165  0.53187  1.0000
  H   H5947     1.0  0.87080  0.74556  0.68561  1.0000
  S   S744      1.0  0.82610  0.57087  0.69039  1.0000
  S   S745      1.0  0.81332  0.62191  0.54559  1.0000
  H   H5948     1.0  0.81081  0.93868  0.83264  1.0000
  C   C3378     1.0  0.85140  0.72160  0.69467  1.0000
  H   H5949     1.0  0.89112  0.74234  0.72953  1.0000
  H   H5950     1.0  0.87937  0.72854  0.75500  1.0000
  H   H5951     1.0  0.90343  0.71620  0.74049  1.0000
  H   H5952     1.0  0.87978  0.74631  0.64761  1.0000
  H   H5953     1.0  0.88679  0.71991  0.66193  1.0000
  H   H5954     1.0  0.87353  0.62882  0.65004  1.0000
  H   H5955     1.0  0.84648  0.73300  0.74349  1.0000
  C   C3379     1.0  0.98401  0.49626  0.86955  1.0000
  H   H5956     1.0  0.93231  0.54570  0.58664  1.0000
  H   H5957     1.0  0.81956  0.90043  0.59002  1.0000
  H   H5958     1.0  0.94792  0.76243  0.60350  1.0000
  C   C3380     1.0  0.80499  0.50247  0.59875  1.0000
  C   C3381     1.0  0.89064  0.55494  0.78656  1.0000
  H   H5959     1.0  0.88476  0.60960  0.56927  1.0000
  H   H5960     1.0  0.95023  0.61147  0.89191  1.0000
  H   H5961     1.0  0.95908  0.79098  0.53517  1.0000
  C   C3382     1.0  0.98010  0.74615  0.56262  1.0000
  H   H5962     1.0  0.95679  0.66544  0.85558  1.0000
  H   H5963     1.0  0.88369  0.52364  0.79455  1.0000
  S   S746      1.0  0.93742  0.51107  0.77436  1.0000
  S   S747      1.0  0.93207  0.98048  0.53799  1.0000
  H   H5964     1.0  0.96906  0.84461  0.67274  1.0000
  Fe  Fe376     1.0  0.90336  0.56163  0.96189  1.0000
  H   H5965     1.0  0.84880  0.59142  0.56546  1.0000
  C   C3383     1.0  0.85053  0.51338  0.91931  1.0000
  S   S748      1.0  0.86799  0.52732  0.66485  1.0000
  H   H5966     1.0  0.81323  0.60944  0.74123  1.0000
  H   H5967     1.0  0.84899  0.63682  0.64297  1.0000
  C   C3384     1.0  0.87187  0.59870  0.88228  1.0000
  H   H5968     1.0  0.85843  0.64397  0.68298  1.0000
  C   C3385     1.0  0.88441  0.57570  0.79487  1.0000
  H   H5969     1.0  0.84499  0.62362  0.87837  1.0000
  H   H5970     1.0  0.82286  0.91300  0.81009  1.0000
  H   H5971     1.0  0.96116  0.82040  0.61237  1.0000
  C   C3386     1.0  0.85363  0.60870  0.87449  1.0000
  C   C3387     1.0  0.85944  0.64167  0.65050  1.0000
  S   S749      1.0  0.97091  0.63536  0.56013  1.0000
  H   H5972     1.0  0.86353  0.72764  0.65074  1.0000
  S   S750      1.0  0.81402  0.64463  0.76460  1.0000
  C   C3388     1.0  0.87521  0.67167  0.65047  1.0000
  C   C3389     1.0  0.89499  0.65734  0.65796  1.0000
  C   C3390     1.0  0.88303  0.57947  0.87715  1.0000
  H   H5973     1.0  0.83591  0.50929  0.88649  1.0000
  H   H5974     1.0  0.91452  0.65512  0.67992  1.0000
  H   H5975     1.0  0.82217  0.81006  0.87527  1.0000
  Fe  Fe377     1.0  0.94238  0.57595  0.93408  1.0000
  H   H5976     1.0  0.88491  0.55558  0.86018  1.0000
  Fe  Fe378     1.0  0.95725  0.66952  0.56097  1.0000
  S   S751      1.0  0.92566  0.72555  0.56503  1.0000
  C   C3391     1.0  0.94933  0.66887  0.63758  1.0000
  H   H5977     1.0  0.91571  0.57635  0.75946  1.0000
  H   H5978     1.0  0.88490  0.62218  0.75782  1.0000
  S   S752      1.0  0.94573  0.69219  0.53343  1.0000
  S   S753      1.0  0.89212  0.55659  0.93521  1.0000
  H   H5979     1.0  0.99113  0.65483  0.89520  1.0000
  H   H5980     1.0  0.84081  0.79678  0.61002  1.0000
  H   H5981     1.0  0.83213  0.60685  0.85630  1.0000
  H   H5982     1.0  0.84833  0.52962  0.86990  1.0000
  H   H5983     1.0  0.93756  0.57201  0.55298  1.0000
  H   H5984     1.0  0.81964  0.86465  0.61847  1.0000
  H   H5985     1.0  0.96393  0.63136  0.87533  1.0000
  H   H5986     1.0  0.81728  0.53370  0.64377  1.0000
  C   C3392     1.0  0.84840  0.82860  0.53109  1.0000
  S   S754      1.0  0.91026  0.59364  0.94576  1.0000
  H   H5987     1.0  0.80365  0.94965  0.96689  1.0000
  H   H5988     1.0  0.92969  0.55602  0.53989  1.0000
  H   H5989     1.0  0.89221  0.58864  0.74086  1.0000
  C   C3393     1.0  0.82737  0.71234  0.61436  1.0000
  C   C3394     1.0  0.86659  0.61246  0.73220  1.0000
  H   H5990     1.0  0.80983  0.84006  0.82230  1.0000
  C   C3395     1.0  0.84267  0.89338  0.60883  1.0000
  H   H5991     1.0  0.86842  0.53180  0.89281  1.0000
  H   H5992     1.0  0.83112  0.49529  0.71397  1.0000
  H   H5993     1.0  0.88449  0.52038  0.85412  1.0000
  S   S755      1.0  0.87864  0.85161  0.52102  1.0000
  H   H5994     1.0  0.89999  0.65488  0.50262  1.0000
  H   H5995     1.0  0.84042  0.71728  0.68734  1.0000
  H   H5996     1.0  0.90840  0.67808  0.52156  1.0000
  C   C3396     1.0  0.82960  0.51591  0.84638  1.0000
  H   H5997     1.0  0.94250  0.61416  0.82274  1.0000
  C   C3397     1.0  0.87707  0.59651  0.74901  1.0000
  H   H5998     1.0  0.98985  0.70040  0.66427  1.0000
  C   C3398     1.0  0.96198  0.86085  0.66574  1.0000
  C   C3399     1.0  0.97845  0.59364  0.95202  1.0000
  H   H5999     1.0  0.98159  0.66606  0.82211  1.0000
  S   S756      1.0  0.82753  0.58564  0.79066  1.0000
  C   C3400     1.0  0.95195  0.83000  0.54708  1.0000
  H   H6000     1.0  0.93559  0.67925  0.84278  1.0000
  C   C3401     1.0  0.83383  0.74685  0.52145  1.0000
  H   H6001     1.0  0.86696  0.58485  0.75649  1.0000
  C   C3402     1.0  0.96874  0.54060  0.71605  1.0000
  H   H6002     1.0  0.87492  0.96786  0.56846  1.0000
  S   S757      1.0  0.84915  0.56725  0.84149  1.0000
  C   C3403     1.0  0.85307  0.66464  0.53571  1.0000
  H   H6003     1.0  0.85294  0.89255  0.80189  1.0000
  H   H6004     1.0  0.98723  0.89867  0.50490  1.0000
  S   S758      1.0  0.91817  0.50246  0.68984  1.0000
  C   C3404     1.0  0.82248  0.74463  0.71302  1.0000
  H   H6005     1.0  0.98469  0.90869  0.52819  1.0000
  Fe  Fe379     1.0  0.89817  0.52950  0.67175  1.0000
  C   C3405     1.0  0.96587  0.87585  0.67748  1.0000
  H   H6006     1.0  0.80854  0.68378  0.57577  1.0000
  H   H6007     1.0  0.93253  0.78984  0.53950  1.0000
  S   S759      1.0  0.93627  0.54454  0.95223  1.0000
  H   H6008     1.0  0.85118  0.54289  0.92713  1.0000
  C   C3406     1.0  0.85763  0.67847  0.54589  1.0000
  Fe  Fe380     1.0  0.82176  0.58274  0.82560  1.0000
  N   N189      1.0  0.93835  0.81378  0.55254  1.0000
  H   H6009     1.0  0.85040  0.61955  0.73923  1.0000
  C   C3407     1.0  0.84020  0.86390  0.80947  1.0000
  H   H6010     1.0  0.81594  0.88641  0.56401  1.0000
  H   H6011     1.0  0.93318  0.80798  0.64388  1.0000
  H   H6012     1.0  0.94286  0.84438  0.60680  1.0000
  C   C3408     1.0  0.82702  0.86580  0.60159  1.0000
  H   H6013     1.0  0.89933  0.72901  0.51088  1.0000
  H   H6014     1.0  0.84567  0.68530  0.55775  1.0000
  H   H6015     1.0  0.79940  0.78356  0.72220  1.0000
  C   C3409     1.0  0.87903  0.77084  0.56654  1.0000
  C   C3410     1.0  0.81259  0.81949  0.86358  1.0000
  H   H6016     1.0  0.98290  0.87407  0.67645  1.0000
  H   H6017     1.0  0.96031  0.49843  0.95431  1.0000
  S   S760      1.0  0.79587  0.78385  0.83039  1.0000
  H   H6018     1.0  0.93481  0.63381  0.91862  1.0000
  H   H6019     1.0  0.96687  0.73348  0.65923  1.0000
  H   H6020     1.0  0.97932  0.81505  0.52591  1.0000
  H   H6021     1.0  0.88077  0.79225  0.53673  1.0000
  H   H6022     1.0  0.87386  0.59440  0.52489  1.0000
  H   H6023     1.0  0.87798  0.57583  0.49613  1.0000
  H   H6024     1.0  0.90668  0.62936  0.54462  1.0000
  H   H6025     1.0  0.92393  0.57855  0.71955  1.0000
  H   H6026     1.0  0.82882  0.50949  0.83298  1.0000
  C   C3411     1.0  0.81702  0.66299  0.83948  1.0000
  H   H6027     1.0  0.80839  0.59113  0.72832  1.0000
  C   C3412     1.0  0.94691  0.64607  0.83922  1.0000
  H   H6028     1.0  0.95929  0.59366  0.65587  1.0000
  C   C3413     1.0  0.85016  0.51222  0.87450  1.0000
  H   H6029     1.0  0.82363  0.82835  0.62563  1.0000
  C   C3414     1.0  0.79407  0.66318  0.84997  1.0000
  S   S761      1.0  0.93508  0.98677  0.59433  1.0000
  C   C3415     1.0  0.95187  0.79990  0.49709  1.0000
  S   S762      1.0  0.96214  0.63662  0.69392  1.0000
  C   C3416     1.0  0.94892  0.63680  0.90641  1.0000
  S   S763      1.0  0.97578  0.66401  0.73202  1.0000
  C   C3417     1.0  0.93412  0.54145  0.57123  1.0000
  H   H6030     1.0  0.85582  0.77788  0.51209  1.0000
  C   C3418     1.0  0.95569  0.65244  0.65378  1.0000
  H   H6031     1.0  0.94702  0.66552  0.62356  1.0000
  H   H6032     1.0  0.86485  0.58025  0.58504  1.0000
  H   H6033     1.0  0.96558  0.77121  0.65637  1.0000
  H   H6034     1.0  0.97898  0.84956  0.59586  1.0000
  H   H6035     1.0  0.84464  0.56465  0.74978  1.0000
  H   H6036     1.0  0.80469  0.89369  0.52975  1.0000
  C   C3419     1.0  0.96086  0.76607  0.64408  1.0000
  H   H6037     1.0  0.92668  0.81264  0.61851  1.0000
  C   C3420     1.0  0.89834  0.66751  0.85171  1.0000
  H   H6038     1.0  0.98501  0.80490  0.63127  1.0000
  H   H6039     1.0  0.93849  0.93251  0.54063  1.0000
  H   H6040     1.0  0.91759  0.60776  0.83628  1.0000
  S   S764      1.0  0.98356  0.98089  0.59938  1.0000
  H   H6041     1.0  0.95815  0.63627  0.65242  1.0000
  H   H6042     1.0  0.93979  0.85302  0.64025  1.0000
  C   C3421     1.0  0.92714  0.56090  0.55503  1.0000
  H   H6043     1.0  0.83830  0.52498  0.94833  1.0000
  C   C3422     1.0  0.94802  0.83154  0.61969  1.0000
  H   H6044     1.0  0.95998  0.87142  0.60354  1.0000
  H   H6045     1.0  0.98609  0.87134  0.63982  1.0000
  H   H6046     1.0  0.79655  0.65953  0.56122  1.0000
  H   H6047     1.0  0.92472  0.52934  0.57333  1.0000
  C   C3423     1.0  0.79855  0.71617  0.50643  1.0000
  H   H6048     1.0  0.90269  0.55049  0.53026  1.0000
  H   H6049     1.0  0.85657  0.94159  0.61258  1.0000
  C   C3424     1.0  0.98364  0.65710  0.93567  1.0000
  H   H6050     1.0  0.92225  0.59145  0.52326  1.0000
  C   C3425     1.0  0.91825  0.52451  0.74073  1.0000
  C   C3426     1.0  0.91379  0.52281  0.72201  1.0000
  H   H6051     1.0  0.91083  0.53827  0.74732  1.0000
  H   H6052     1.0  0.90272  0.53507  0.71451  1.0000
  Fe  Fe381     1.0  0.95660  0.71624  0.54426  1.0000
  H   H6053     1.0  0.91177  0.78890  0.58237  1.0000
  H   H6054     1.0  0.92673  0.65644  0.87785  1.0000
  H   H6055     1.0  0.93226  0.71192  0.79633  1.0000
  H   H6056     1.0  0.84280  0.67539  0.74533  1.0000
  H   H6057     1.0  0.96544  0.56932  0.63640  1.0000
  H   H6058     1.0  0.93523  0.57247  0.85321  1.0000
  C   C3427     1.0  0.96989  0.58613  0.66716  1.0000
  N   N190      1.0  0.81323  0.85987  0.59030  1.0000
  C   C3428     1.0  0.80467  0.87943  0.80311  1.0000
  H   H6059     1.0  0.95177  0.60594  0.85972  1.0000
  Fe  Fe382     1.0  0.94922  0.98291  0.56126  1.0000
  H   H6060     1.0  0.83135  0.60381  0.59753  1.0000
  H   H6061     1.0  0.98395  0.65236  0.95268  1.0000
  H   H6062     1.0  0.90975  0.64316  0.83404  1.0000
  H   H6063     1.0  0.96641  0.52740  0.71028  1.0000
  H   H6064     1.0  0.84156  0.88978  0.78125  1.0000
  H   H6065     1.0  0.82088  0.79110  0.63305  1.0000
  H   H6066     1.0  0.90522  0.67830  0.83766  1.0000
  C   C3429     1.0  0.97664  0.55786  0.69757  1.0000
  C   C3430     1.0  0.99175  0.87543  0.59736  1.0000
  N   N191      1.0  0.86964  0.50286  0.88354  1.0000
  N   N192      1.0  0.97321  0.85039  0.62900  1.0000
  H   H6067     1.0  0.82041  0.70291  0.52728  1.0000
  C   C3431     1.0  0.80090  0.60449  0.73644  1.0000
  H   H6068     1.0  0.80845  0.89466  0.79371  1.0000
  S   S765      1.0  0.97581  0.62664  0.79019  1.0000
  C   C3432     1.0  0.90737  0.49755  0.94615  1.0000
  H   H6069     1.0  0.92235  0.60611  0.55695  1.0000
  H   H6070     1.0  0.81766  0.66852  0.79338  1.0000
  H   H6071     1.0  0.81559  0.79408  0.60732  1.0000
  C   C3433     1.0  0.86896  0.51481  0.90009  1.0000
  H   H6072     1.0  0.83478  0.86333  0.56031  1.0000
  H   H6073     1.0  0.92530  0.78005  0.61497  1.0000
  C   C3434     1.0  0.80707  0.90758  0.70240  1.0000
  H   H6074     1.0  0.79468  0.67246  0.87766  1.0000
  C   C3435     1.0  0.79406  0.68880  0.57011  1.0000
  H   H6075     1.0  0.83041  0.53278  0.84053  1.0000
  C   C3436     1.0  0.82373  0.79989  0.61652  1.0000
  C   C3437     1.0  0.85173  0.52604  0.93482  1.0000
  H   H6076     1.0  0.92220  0.75693  0.60832  1.0000
  C   C3438     1.0  0.80777  0.52383  0.65653  1.0000
  Fe  Fe383     1.0  0.80699  0.61744  0.79075  1.0000
  H   H6077     1.0  0.83775  0.66071  0.53996  1.0000
  H   H6078     1.0  0.81110  0.82003  0.67871  1.0000
  H   H6079     1.0  0.92462  0.81943  0.51237  1.0000
  C   C3439     1.0  0.89408  0.78320  0.49639  1.0000
  H   H6080     1.0  0.94889  0.82753  0.50887  1.0000
  C   C3440     1.0  0.81539  0.82340  0.61591  1.0000
  H   H6081     1.0  0.90750  0.76083  0.53111  1.0000
  C   C3441     1.0  0.94138  0.81373  0.51331  1.0000
  H   H6082     1.0  0.82685  0.65904  0.85149  1.0000
  H   H6083     1.0  0.87111  0.57199  0.54545  1.0000
  H   H6084     1.0  0.96885  0.73617  0.57009  1.0000
  H   H6085     1.0  0.93311  0.77019  0.57110  1.0000
  H   H6086     1.0  0.95496  0.82847  0.65055  1.0000
  H   H6087     1.0  0.83808  0.52529  0.50862  1.0000
  H   H6088     1.0  0.98880  0.88798  0.60638  1.0000
  H   H6089     1.0  0.81895  0.67856  0.82928  1.0000
  H   H6090     1.0  0.98436  0.74993  0.59193  1.0000
  H   H6091     1.0  0.94524  0.78548  0.50093  1.0000
  H   H6092     1.0  0.82262  0.65095  0.82955  1.0000
  H   H6093     1.0  0.94303  0.73383  0.79667  1.0000
  H   H6094     1.0  0.98597  0.67927  0.61039  1.0000
  H   H6095     1.0  0.98250  0.49862  0.90087  1.0000
  H   H6096     1.0  0.91544  0.83167  0.63444  1.0000
  C   C3442     1.0  0.81423  0.49915  0.57630  1.0000
  C   C3443     1.0  0.79599  0.51269  0.64748  1.0000
  H   H6097     1.0  0.79707  0.82639  0.87219  1.0000
  S   S766      1.0  0.80501  0.64974  0.49895  1.0000
  H   H6098     1.0  0.82687  0.70887  0.74632  1.0000
  H   H6099     1.0  0.83219  0.61551  0.67681  1.0000
  S   S767      1.0  0.79971  0.78261  0.56087  1.0000
  H   H6100     1.0  0.87986  0.88462  0.77131  1.0000
  H   H6101     1.0  0.94481  0.86194  0.66873  1.0000
  H   H6102     1.0  0.83488  0.83099  0.58491  1.0000
  C   C3444     1.0  0.95386  0.84082  0.63600  1.0000
  H   H6103     1.0  0.95939  0.89245  0.67075  1.0000
  H   H6104     1.0  0.88213  0.49428  0.73158  1.0000
  C   C3445     1.0  0.81032  0.85042  0.83273  1.0000
  H   H6105     1.0  0.79853  0.82537  0.62343  1.0000
  C   C3446     1.0  0.97117  0.74313  0.64333  1.0000
  H   H6106     1.0  0.97797  0.51951  0.74396  1.0000
  H   H6107     1.0  0.81662  0.89371  0.69594  1.0000
  H   H6108     1.0  0.93123  0.73910  0.51184  1.0000
  H   H6109     1.0  0.82663  0.87266  0.52401  1.0000
  H   H6110     1.0  0.81562  0.51441  0.56526  1.0000
  C   C3447     1.0  0.98752  0.61296  0.98053  1.0000
  H   H6111     1.0  0.95971  0.52360  0.64518  1.0000
  H   H6112     1.0  0.80863  0.83080  0.58509  1.0000
  H   H6113     1.0  0.86448  0.50425  0.71455  1.0000
  C   C3448     1.0  0.86536  0.98953  0.53371  1.0000
  H   H6114     1.0  0.95817  0.87222  0.69431  1.0000
  H   H6115     1.0  0.95079  0.60817  0.52523  1.0000
  H   H6116     1.0  0.82486  0.55156  0.51169  1.0000
  H   H6117     1.0  0.98545  0.60542  0.74366  1.0000
  S   S768      1.0  0.80336  0.61574  0.82520  1.0000
  H   H6118     1.0  0.81603  0.70765  0.72571  1.0000
  H   H6119     1.0  0.97054  0.65154  0.93301  1.0000
  H   H6120     1.0  0.80080  0.73237  0.50502  1.0000
  H   H6121     1.0  0.98299  0.70794  0.62967  1.0000
  H   H6122     1.0  0.80768  0.50165  0.63855  1.0000
  C   C3449     1.0  0.97574  0.82197  0.54008  1.0000
  C   C3450     1.0  0.98898  0.75397  0.57508  1.0000
  C   C3451     1.0  0.98521  0.75178  0.54072  1.0000
  H   H6123     1.0  0.98410  0.51326  0.86356  1.0000
  H   H6124     1.0  0.98195  0.81007  0.55294  1.0000
  C   C3452     1.0  0.98425  0.53152  0.73074  1.0000
  Fe  Fe384     1.0  0.89934  0.86768  0.49298  1.0000
  C   C3453     1.0  0.99103  0.88659  0.57463  1.0000
  H   H6125     1.0  0.99199  0.82850  0.65008  1.0000
  C   C3454     1.0  0.80456  0.53136  0.51045  1.0000
  H   H6126     1.0  0.85089  0.49681  0.92783  1.0000
  H   H6127     1.0  0.80020  0.70475  0.79881  1.0000
  H   H6128     1.0  0.98563  0.54318  0.66328  1.0000
  H   H6129     1.0  0.97820  0.55386  0.98335  1.0000
  H   H6130     1.0  0.97789  0.57091  0.70437  1.0000
  H   H6131     1.0  0.98221  0.85230  0.52146  1.0000
  H   H6132     1.0  0.84453  0.50348  0.79281  1.0000
  H   H6133     1.0  0.98536  0.84703  0.54841  1.0000
  H   H6134     1.0  0.98086  0.67456  0.93141  1.0000
  H   H6135     1.0  0.86274  0.50569  0.84232  1.0000
  H   H6136     1.0  0.98654  0.61210  0.63043  1.0000
  H   H6137     1.0  0.82262  0.49673  0.78708  1.0000
  H   H6138     1.0  0.98595  0.92699  0.70749  1.0000
  H   H6139     1.0  0.97993  0.50626  0.96283  1.0000
  C   C3455     1.0  0.99263  0.83426  0.63296  1.0000
  H   H6140     1.0  0.79295  0.52785  0.72902  1.0000
  H   H6141     1.0  0.79299  0.64707  0.85932  1.0000
  H   H6142     1.0  0.79306  0.50042  0.73103  1.0000
  C   C3456     1.0  0.86633  0.49357  0.72983  1.0000
  H   H6143     1.0  0.93104  0.49302  0.84692  1.0000
  H   H6144     1.0  0.95416  0.62381  0.98845  1.0000
