data_image0
_chemical_formula_structural       HSH3FeSH2CFeS2FeS2FeSFeS3HSH2SCH3CH3CHC7H6C3H5CFeCHC6H4CH4C6H4NC8HCHCH2FeH24C4H10NHC7HCH5CH20C2SNH3C4H5C3H9CHCHCHCHC2HFeNCH3FeCHNHCHCH3CH2CH3S2C2H7C2HCHC3H3C2SHCH5SHCH2CH3CHFeSCFeS2H2FeS4HFeS2FeSHFeSFeS3FeHSFeS2HSHFeSFeHSC2HC3H2CH4C7H4C6H7SH4C6H4C7H4CH3NC8HC3H25SNHCH2CH6C3H2CH3CHCH3CH2FeH5CH2CHCHC3H3SHCH9C2H3C2H3CH9C2HSCHC2HCNC6HCHC2H4CH7CH3SH8SHCHCH3NHCHC2FeH3CH7NSFeHCHCH2C5HNHCHC2HC4S2HCH2CH4CH6CHCHCHCHSFeCHCH3CH5NHC2H3CH3SHC2HC4HCH2CH2CHSHFeS2FeS2FeSFeS3FeSHCH3SHCSH8C2HCH3C6H4C6H4C3FeHCH2C7H5CHCH4CH2CHFeH2CH4CHCH6SC2H4C2HNC8HC2H5CH7CH4CH16C5NHCSH2CH2CH2C2H3CH18CH2CNC6H14NC8HC2H8FeCH9CH4CHC2HCH2CFeHFeS2FeHFeHS2FeS2FeS2FeSFeS3FeHSFeCSFeSHSCHCSHCHS2HCH5CHCSHSC6H4C6H5CH2SH2SC7H3C7H7CNC9H14CH3CHNC10H25CHCNH6C2HCH2SC3HSH10NCHC2FeCH4CH8CFeH2CHC2HC2H4NC6HC4H22CH2C2HFeH3CH4FeH3SH3C2H3CH2CH3C3H2CH2CHCH2CH9CNHCHC2SC2H2C2HCH6CHC2HC2H6C2FeH3CHCNHCHCHCSC2H2SHCHC2HCHCH2CSNCH3CHCHCHCH3SNHCH2SCH5CH4CHSH2C2H2CH2S2HCH3SCFeS2FeS2FeSFeS3H2CSH6C7H4C6H4C4H3C2HC6H4CNH4CH6CHC2HC2H3CHSHNCHCHCHCHCHCHCHCH14S2H4CHNC7H2C2H13CSCH8CNCFeC5H3C3H2CH6CH3CHSH3CH6NC4HC4H2CH23CH2C2H2CHFeH4CH4CH3NHC2H3CH3S3FeSCFeS2FeSCSHFeS2FeS2FeSFeS2FeS2Fe2H2SHSCS2CFeSCHSH6SHC2HCH2C6H4C6H5C6H4CHFeCHCH2C2H2C6H3CH2C4HCHCH2FeHC3H2CH7CHSH2C2HCH4SH5C2H5NHC3H2CHCH4FeH4C2H7NC12H31CHC2HCH2CH5CHCH4CH2CH2CHSCH3CHCFeHCFeC2FeH3CH7CH2CH2CHCHC3HCH5CHSC2H5CNC4S2C3HC2HSH4CHCHC2H7CHCH3CNHNH2CNH5CH2CHC4HCH2FeNH4SCH5CH2CH2CHCHCH5CH3CHFeS2H9FeSHFeS2FeS2FeSFeS3HSC6H4CH3C2H4C6H4C6H4SC2H3NC10H11NH16CHCH2CHNC12H18CH17CH2NSH2C2HC3H2CH5CH4CH4SHCH2CH2C2FeH3CHCHCH3C3H9NC10H5S2H2CH3CSH2C2SCSHCHFeS2FeS2FeSFeS3FeS2FeSHFeSFeS3FeHS2FeSCH2SFeS2HCHSHCHCHCH3C3HC2HCH4FeHC2HC2HC2H2CH8CHCHC8H4C6H4C6H6NC8HC3H18CHCH6CH5CH3CNFeCHSH2SCHSHCHC2SCFeC2H4C2H5C3H11NC10H6CH14NC12H29CH2C2HC3NH2CH2CH4FeC2H2C2HC3H2CHCH6SHC2H5CFeCH3SH2CH7CFeHFeS2H4SCHFeSHFeS2FeS2FeSFeS4CHCHSCFeS2HC8H4C4H3C6H4C6H4CSNC12H29CH2CH2CH2C2H9CH4SH4C3H3CHCH2CH6CH2FeH3CH5CH4FeHC5H5CH10NC2H8CH2SCH2SHSHC4H8S2CNCH2CH2CSH3CNCHC2H3SH2C4H4NCHCHCH2FeH2CHCHCH4CHSH2CH2CFeNHCHCHCH2FeSCHSFeSH2SCFeSFeHSCFeS2FeS2FeSFeS3HS3CHCHC2H3C6H5SHC2SH2CHFeC6H4FeH2C2HC2H3C4HC6H5C4H3NH2C2NCHCH4CH4CH10CHC4H12NC12H28CHCH4CH3CHC2H2CH4CH6CHCNC5H2CFeH9CH2C2H3C3H3SCH2CH2CHFeHCH3CH3CH2NCHC2H3CH5CH5C3SH2CSH2C2H2CHCH3CHCHCH5CH4SCHFeC2HCHCHC2H2C2HNHFeS2FeS2FeSFeS3CFeS2FeSFeNS2H3CSCHC6H4C6H4C3SCH3C6H10C7H9CH3NCH2C4H2CH5C2H5FeH2SH6CH2CH7CH5C4H4C3HC2H3C2H10CH4C2H2NC6HCHCHCH4CH2CH3C2H3CH2CHCH2CHCHCH5C2HCH5CHNH6SH6NC2HC2HC3H2CH3CH5CH3FeSH3SH2CHCHCHCS2H2CHCFeH2FeS2H2FeS3FeS2FeS2Fe2S3FeS2FeSFeS2FeS2HCH2FeNS2HCSNCHC2H5C3HCH6CHC8H4C6H5CH3CHC2H2FeHC4H3C6H4CHCH2CHCSH2CHCHFeC2H4NC12H29CH5SC2HCH3C2H3C2H2CNC12H16CH13CSH3CH2CHC2H7C2H3NC8H9NH2C2H9CFeH3CH7C3H6CH2CH5CHC3H2CH2CH2CHSHC4H2SC2H2SCHSH6FeSCFeS2FeS2FeSFeS3HCHC8H4NC4H2C6H4C6H4C5HC4HSH3SH2CHCHNC11H28CH2CHC2H2C3HCHC2H3SCHC2H11CH6CH2NC10HCH15CH9CHNHSC2H12C2HNFeH7C2H4SHCH7CH10SHFeHCH3SCHCH5CHCH2C2HCH3SC3FeCH2C2HCFeS2FeS3FeSFeS2FeSFeHS2FeS2FeS2FeSFeHS2FeS2FeH3S2C3H2C6H7C4HCHNCHC6H4CHCHC2H5CHC6H4C3H2C3H2FeC2H2C3H5CHC4HCH2CHCH5C3H5SHCHSH2CHC3HCH3NC11H25NC12H13CH17CHN2H2CH3C2H2CH6CSH3C2H2CHC2HC2H6FeCH3CH5NCHC9H11CHSH3CFeH2CH4FeC2H3C2H2CHCH3CHCH6NHNC2H3CH9SH3CHSH3S2CH4C2H3SH2FeS2FeS2FeSFeS3C3H4C6H5C6H5C6H6NC6HC4H3CFeH9CH2CH8CH5SH2CHC2H2CH3C2H8CNC9H15C3H2NC8HC2H18NCH12C2HCH2CH5CH4SCH6SHCH3CH4FeH3C2H2CH3SH4CH3CHSFeHCHNFeS2FeSHFeSCFeCFeSCSHFeSFeS2FeSFeS3FeS2CHFeSFeHS2FeHFeSCSC2SC8H3C6H6C2HC4HCHC6H4CH3C9H5SH3CH4SHS2NC12H25NC6H14SHCHSCH4CHSHCH8CH4CH3CH5FeH7CHFeSC2H2CH4CNC12H28NCHC7H3CH10CH6CH2CH2CH2C2HCH7CHC3FeCHCH2C2HCHCHSHCNH4CHC3HNSHCHC3H6SCH3CNH4C2HCH2CHC3HCH2CHC2H2
_chemical_formula_sum              "H3072 S384 Fe192 C1728 N96"
_cell_length_a       59.8067
_cell_length_b       60.3086
_cell_length_c       60.5332
_cell_angle_alpha    80.8137
_cell_angle_beta     80.7373
_cell_angle_gamma    80.7302

_space_group_name_H-M_alt    "P 1"
_space_group_IT_number       1

loop_
  _space_group_symop_operation_xyz
  'x, y, z'

loop_
  _atom_site_type_symbol
  _atom_site_label
  _atom_site_symmetry_multiplicity
  _atom_site_fract_x
  _atom_site_fract_y
  _atom_site_fract_z
  _atom_site_occupancy
  H   H1        1.0  0.21465  0.27805  0.00582  1.0000
  S   S1        1.0  0.11354  0.25977  0.20907  1.0000
  H   H2        1.0  0.07830  0.41138  0.19288  1.0000
  H   H3        1.0  0.32719  0.45871  0.22930  1.0000
  H   H4        1.0  0.33920  0.15855  0.21756  1.0000
  Fe  Fe1       1.0  0.13359  0.22487  0.21155  1.0000
  S   S2        1.0  0.14705  0.20659  0.18159  1.0000
  H   H5        1.0  0.28080  0.26412  0.15625  1.0000
  H   H6        1.0  0.09027  0.31824  0.19568  1.0000
  C   C1        1.0  0.07544  0.33445  0.23336  1.0000
  Fe  Fe2       1.0  0.28518  0.19051  0.11247  1.0000
  S   S3        1.0  0.27791  0.21797  0.13491  1.0000
  S   S4        1.0  0.28789  0.15313  0.12642  1.0000
  Fe  Fe3       1.0  0.28909  0.22385  0.06890  1.0000
  S   S5        1.0  0.28318  0.25350  0.08830  1.0000
  S   S6        1.0  0.29616  0.23276  0.03073  1.0000
  Fe  Fe4       1.0  0.30649  0.23265  0.11147  1.0000
  S   S7        1.0  0.33343  0.24899  0.12265  1.0000
  Fe  Fe5       1.0  0.25523  0.23626  0.10977  1.0000
  S   S8        1.0  0.22264  0.25919  0.11969  1.0000
  S   S9        1.0  0.31512  0.20432  0.09028  1.0000
  S   S10       1.0  0.25962  0.20759  0.08916  1.0000
  H   H7        1.0  0.08740  0.20082  0.20236  1.0000
  S   S11       1.0  0.40817  0.25259  0.22485  1.0000
  H   H8        1.0  0.18030  0.10028  0.22118  1.0000
  H   H9        1.0  0.22767  0.07363  0.20787  1.0000
  S   S12       1.0  0.47314  0.23129  0.21906  1.0000
  C   C2        1.0  0.42862  0.09946  0.17559  1.0000
  H   H10       1.0  0.08666  0.17967  0.18471  1.0000
  H   H11       1.0  0.16077  0.29702  0.09299  1.0000
  H   H12       1.0  0.19054  0.19272  0.06793  1.0000
  C   C3        1.0  0.25275  0.20252  0.00387  1.0000
  H   H13       1.0  0.42015  0.12645  0.19620  1.0000
  H   H14       1.0  0.08003  0.35879  0.18676  1.0000
  H   H15       1.0  0.23154  0.25096  0.00667  1.0000
  C   C4        1.0  0.21425  0.25980  0.01249  1.0000
  H   H16       1.0  0.30327  0.10728  0.00317  1.0000
  C   C5        1.0  0.06291  0.40258  0.19567  1.0000
  C   C6        1.0  0.34016  0.23922  0.15007  1.0000
  C   C7        1.0  0.35616  0.24907  0.15855  1.0000
  C   C8        1.0  0.36203  0.24107  0.18030  1.0000
  C   C9        1.0  0.35194  0.22312  0.19350  1.0000
  C   C10       1.0  0.33605  0.21328  0.18493  1.0000
  C   C11       1.0  0.33005  0.22139  0.16339  1.0000
  H   H17       1.0  0.36404  0.26289  0.14826  1.0000
  H   H18       1.0  0.37438  0.24869  0.18677  1.0000
  H   H19       1.0  0.32861  0.19906  0.19480  1.0000
  H   H20       1.0  0.31796  0.21353  0.15693  1.0000
  H   H21       1.0  0.19041  0.26603  0.08241  1.0000
  H   H22       1.0  0.19809  0.19382  0.09528  1.0000
  C   C12       1.0  0.42520  0.12466  0.17804  1.0000
  C   C13       1.0  0.28020  0.22467  0.01200  1.0000
  C   C14       1.0  0.26575  0.20809  0.01908  1.0000
  H   H23       1.0  0.18765  0.33003  0.21971  1.0000
  H   H24       1.0  0.11263  0.30889  0.21245  1.0000
  H   H25       1.0  0.19740  0.29274  0.06829  1.0000
  H   H26       1.0  0.26456  0.19963  0.03631  1.0000
  H   H27       1.0  0.11579  0.34466  0.16972  1.0000
  C   C15       1.0  0.28491  0.10657  0.00268  1.0000
  Fe  Fe6       1.0  0.13809  0.26693  0.23088  1.0000
  C   C16       1.0  0.26696  0.28699  0.18153  1.0000
  H   H28       1.0  0.05922  0.39930  0.17917  1.0000
  C   C17       1.0  0.16678  0.22187  0.16309  1.0000
  C   C18       1.0  0.16832  0.24424  0.16556  1.0000
  C   C19       1.0  0.18486  0.25599  0.15147  1.0000
  C   C20       1.0  0.20048  0.24512  0.13542  1.0000
  C   C21       1.0  0.19878  0.22290  0.13273  1.0000
  C   C22       1.0  0.18170  0.21140  0.14630  1.0000
  H   H29       1.0  0.15695  0.25246  0.17849  1.0000
  H   H30       1.0  0.18610  0.27319  0.15364  1.0000
  H   H31       1.0  0.21109  0.21433  0.12069  1.0000
  H   H32       1.0  0.18064  0.19409  0.14436  1.0000
  C   C23       1.0  0.38317  0.16062  0.19283  1.0000
  H   H33       1.0  0.20507  0.09911  0.23467  1.0000
  H   H34       1.0  0.22031  0.19028  0.07169  1.0000
  H   H35       1.0  0.05045  0.37280  0.21462  1.0000
  H   H36       1.0  0.18406  0.23202  0.07786  1.0000
  C   C24       1.0  0.28988  0.13892  0.20271  1.0000
  C   C25       1.0  0.28426  0.12243  0.19150  1.0000
  C   C26       1.0  0.28473  0.12639  0.16787  1.0000
  C   C27       1.0  0.29025  0.14703  0.15552  1.0000
  C   C28       1.0  0.29640  0.16315  0.16678  1.0000
  C   C29       1.0  0.29625  0.15911  0.19024  1.0000
  H   H37       1.0  0.27955  0.10670  0.20102  1.0000
  H   H38       1.0  0.28008  0.11378  0.15924  1.0000
  H   H39       1.0  0.30131  0.17877  0.15739  1.0000
  H   H40       1.0  0.30078  0.17182  0.19879  1.0000
  N   N1        1.0  0.20032  0.14234  0.20708  1.0000
  C   C30       1.0  0.17516  0.14649  0.21566  1.0000
  C   C31       1.0  0.21357  0.14480  0.22560  1.0000
  C   C32       1.0  0.20529  0.15929  0.18637  1.0000
  C   C33       1.0  0.20738  0.11877  0.20063  1.0000
  C   C34       1.0  0.19921  0.09906  0.21829  1.0000
  C   C35       1.0  0.15884  0.14328  0.19928  1.0000
  C   C36       1.0  0.23092  0.16025  0.17755  1.0000
  C   C37       1.0  0.20965  0.16864  0.23329  1.0000
  H   H41       1.0  0.28806  0.47534  0.22261  1.0000
  C   C38       1.0  0.20866  0.07607  0.21048  1.0000
  H   H42       1.0  0.11565  0.30489  0.16211  1.0000
  C   C39       1.0  0.23377  0.17696  0.15596  1.0000
  H   H43       1.0  0.17016  0.16420  0.21957  1.0000
  H   H44       1.0  0.39391  0.16063  0.20628  1.0000
  Fe  Fe7       1.0  0.38750  0.22356  0.23432  1.0000
  H   H45       1.0  0.23226  0.13975  0.22069  1.0000
  H   H46       1.0  0.19686  0.17669  0.18914  1.0000
  H   H47       1.0  0.19758  0.15550  0.17209  1.0000
  H   H48       1.0  0.20142  0.11751  0.18443  1.0000
  H   H49       1.0  0.22638  0.11503  0.19732  1.0000
  H   H50       1.0  0.39470  0.17632  0.13512  1.0000
  H   H51       1.0  0.05928  0.16092  0.21404  1.0000
  H   H52       1.0  0.16032  0.15598  0.18387  1.0000
  H   H53       1.0  0.16261  0.12614  0.19403  1.0000
  H   H54       1.0  0.23961  0.14344  0.17359  1.0000
  H   H55       1.0  0.23971  0.16581  0.19009  1.0000
  H   H56       1.0  0.12928  0.16383  0.21546  1.0000
  H   H57       1.0  0.28289  0.08953  0.99914  1.0000
  H   H58       1.0  0.24806  0.29196  0.06724  1.0000
  H   H59       1.0  0.24148  0.18978  0.00950  1.0000
  H   H60       1.0  0.33637  0.16949  0.12637  1.0000
  H   H61       1.0  0.17124  0.13551  0.23192  1.0000
  H   H62       1.0  0.22210  0.22644  0.17292  1.0000
  H   H63       1.0  0.36016  0.13688  0.18755  1.0000
  H   H64       1.0  0.37067  0.17630  0.19366  1.0000
  H   H65       1.0  0.44209  0.09025  0.18565  1.0000
  H   H66       1.0  0.22447  0.19374  0.15891  1.0000
  H   H67       1.0  0.25196  0.17902  0.15094  1.0000
  H   H68       1.0  0.22747  0.17102  0.14195  1.0000
  C   C40       1.0  0.41734  0.17433  0.16967  1.0000
  C   C41       1.0  0.41122  0.19944  0.17393  1.0000
  C   C42       1.0  0.43238  0.20926  0.17701  1.0000
  C   C43       1.0  0.29099  0.21902  0.22839  1.0000
  H   H69       1.0  0.08590  0.16228  0.22418  1.0000
  H   H70       1.0  0.42892  0.17407  0.15328  1.0000
  H   H71       1.0  0.42785  0.16584  0.18303  1.0000
  H   H72       1.0  0.27511  0.22806  0.23693  1.0000
  H   H73       1.0  0.40394  0.21022  0.15943  1.0000
  H   H74       1.0  0.27116  0.28018  0.04716  1.0000
  H   H75       1.0  0.44537  0.20862  0.16171  1.0000
  H   H76       1.0  0.42743  0.22725  0.17987  1.0000
  H   H77       1.0  0.44006  0.19980  0.19191  1.0000
  H   H78       1.0  0.31339  0.18752  0.23297  1.0000
  N   N2        1.0  0.24342  0.28126  0.19144  1.0000
  H   H79       1.0  0.24475  0.16868  0.23896  1.0000
  C   C44       1.0  0.23990  0.28192  0.21662  1.0000
  C   C45       1.0  0.24273  0.25710  0.18806  1.0000
  C   C46       1.0  0.22443  0.29644  0.18034  1.0000
  C   C47       1.0  0.22822  0.32131  0.17123  1.0000
  C   C48       1.0  0.06661  0.38040  0.21167  1.0000
  C   C49       1.0  0.22079  0.24690  0.19951  1.0000
  C   C50       1.0  0.24282  0.30426  0.22466  1.0000
  H   H80       1.0  0.41252  0.09211  0.18195  1.0000
  C   C51       1.0  0.20644  0.33518  0.16346  1.0000
  H   H81       1.0  0.28002  0.27699  0.19180  1.0000
  H   H82       1.0  0.20121  0.32768  0.14979  1.0000
  H   H83       1.0  0.39879  0.20088  0.18942  1.0000
  H   H84       1.0  0.44200  0.13090  0.17251  1.0000
  H   H85       1.0  0.22228  0.27863  0.22416  1.0000
  C   C52       1.0  0.18581  0.27993  0.06898  1.0000
  H   H86       1.0  0.22275  0.22103  0.03935  1.0000
  H   H87       1.0  0.24425  0.25578  0.16970  1.0000
  H   H88       1.0  0.22089  0.28930  0.16554  1.0000
  H   H89       1.0  0.20806  0.29689  0.19216  1.0000
  H   H90       1.0  0.24181  0.32184  0.15641  1.0000
  H   H91       1.0  0.23344  0.32989  0.18399  1.0000
  H   H92       1.0  0.42553  0.30224  0.21963  1.0000
  H   H93       1.0  0.26098  0.28778  0.14617  1.0000
  H   H94       1.0  0.20513  0.25840  0.19536  1.0000
  H   H95       1.0  0.22019  0.24368  0.21816  1.0000
  H   H96       1.0  0.32246  0.29372  0.23299  1.0000
  H   H97       1.0  0.45228  0.31323  0.21018  1.0000
  H   H98       1.0  0.20360  0.21824  0.19830  1.0000
  H   H99       1.0  0.19226  0.33570  0.17778  1.0000
  H   H100      1.0  0.20960  0.35283  0.15685  1.0000
  H   H101      1.0  0.29029  0.31369  0.14560  1.0000
  H   H102      1.0  0.19279  0.22711  0.03869  1.0000
  H   H103      1.0  0.37684  0.19192  0.15543  1.0000
  H   H104      1.0  0.25982  0.30955  0.21801  1.0000
  H   H105      1.0  0.14289  0.31503  0.15304  1.0000
  C   C53       1.0  0.16150  0.29094  0.07646  1.0000
  C   C54       1.0  0.20275  0.19878  0.07684  1.0000
  S   S13       1.0  0.15815  0.29671  0.22134  1.0000
  N   N3        1.0  0.09505  0.34259  0.21665  1.0000
  H   H106      1.0  0.06949  0.38461  0.22801  1.0000
  H   H107      1.0  0.34357  0.12866  0.22731  1.0000
  H   H108      1.0  0.27528  0.10915  0.01958  1.0000
  C   C55       1.0  0.36968  0.14011  0.20065  1.0000
  C   C56       1.0  0.13042  0.31009  0.16802  1.0000
  C   C57       1.0  0.31345  0.44788  0.23467  1.0000
  C   C58       1.0  0.12267  0.33005  0.18148  1.0000
  H   H109      1.0  0.26824  0.30496  0.18245  1.0000
  H   H110      1.0  0.28002  0.44722  0.22491  1.0000
  H   H111      1.0  0.04345  0.19768  0.23210  1.0000
  H   H112      1.0  0.17272  0.26329  0.04531  1.0000
  H   H113      1.0  0.30036  0.29155  0.12820  1.0000
  C   C59       1.0  0.23772  0.28540  0.03616  1.0000
  C   C60       1.0  0.44431  0.29858  0.21989  1.0000
  C   C61       1.0  0.22027  0.22428  0.19159  1.0000
  H   H114      1.0  0.12178  0.33086  0.23774  1.0000
  H   H115      1.0  0.39360  0.12791  0.16389  1.0000
  H   H116      1.0  0.20288  0.06230  0.22363  1.0000
  H   H117      1.0  0.22924  0.31797  0.21959  1.0000
  H   H118      1.0  0.04813  0.41397  0.20320  1.0000
  H   H119      1.0  0.13815  0.33426  0.18688  1.0000
  H   H120      1.0  0.28764  0.21570  0.21178  1.0000
  H   H121      1.0  0.10512  0.38214  0.23456  1.0000
  H   H122      1.0  0.21393  0.22981  0.08088  1.0000
  C   C62       1.0  0.27500  0.28254  0.15671  1.0000
  H   H123      1.0  0.19998  0.23278  0.00134  1.0000
  C   C63       1.0  0.19704  0.25159  0.00002  1.0000
  H   H124      1.0  0.41566  0.14002  0.14552  1.0000
  C   C64       1.0  0.35232  0.17625  0.12746  1.0000
  H   H125      1.0  0.43406  0.09698  0.15762  1.0000
  C   C65       1.0  0.10447  0.32404  0.20217  1.0000
  H   H126      1.0  0.36096  0.14704  0.23552  1.0000
  C   C66       1.0  0.38356  0.17440  0.15177  1.0000
  C   C67       1.0  0.08659  0.36362  0.20132  1.0000
  H   H127      1.0  0.21111  0.18219  0.21880  1.0000
  Fe  Fe8       1.0  0.09294  0.24628  0.24149  1.0000
  N   N4        1.0  0.39744  0.16165  0.16976  1.0000
  C   C68       1.0  0.03268  0.24687  0.23862  1.0000
  H   H128      1.0  0.25187  0.26812  0.22485  1.0000
  H   H129      1.0  0.14930  0.27843  0.07857  1.0000
  H   H130      1.0  0.13132  0.13370  0.22560  1.0000
  Fe  Fe9       1.0  0.43742  0.22805  0.23781  1.0000
  C   C69       1.0  0.18789  0.27180  0.04548  1.0000
  H   H131      1.0  0.06116  0.19902  0.19181  1.0000
  N   N5        1.0  0.20959  0.25658  0.03806  1.0000
  H   H132      1.0  0.30478  0.22995  0.22542  1.0000
  C   C70       1.0  0.25496  0.29206  0.04905  1.0000
  H   H133      1.0  0.08558  0.29747  0.23952  1.0000
  C   C71       1.0  0.20169  0.22457  0.07152  1.0000
  H   H134      1.0  0.34856  0.16707  0.16333  1.0000
  H   H135      1.0  0.23439  0.21143  0.19739  1.0000
  H   H136      1.0  0.22793  0.26081  0.06515  1.0000
  C   C72       1.0  0.35235  0.14388  0.22160  1.0000
  H   H137      1.0  0.25770  0.24564  0.19422  1.0000
  H   H138      1.0  0.15626  0.30565  0.06391  1.0000
  C   C73       1.0  0.03700  0.24096  0.21677  1.0000
  H   H139      1.0  0.38151  0.12443  0.20506  1.0000
  H   H140      1.0  0.24618  0.28482  0.01847  1.0000
  H   H141      1.0  0.24535  0.24891  0.04263  1.0000
  S   S14       1.0  0.35921  0.21178  0.22043  1.0000
  S   S15       1.0  0.28919  0.13520  0.23220  1.0000
  C   C74       1.0  0.49692  0.22588  0.23415  1.0000
  C   C75       1.0  0.29513  0.29509  0.14589  1.0000
  H   H142      1.0  0.24665  0.48358  0.23877  1.0000
  H   H143      1.0  0.34820  0.19482  0.12780  1.0000
  H   H144      1.0  0.18564  0.28755  0.03316  1.0000
  H   H145      1.0  0.22281  0.29895  0.03598  1.0000
  H   H146      1.0  0.13904  0.29540  0.17851  1.0000
  H   H147      1.0  0.05387  0.24134  0.20719  1.0000
  H   H148      1.0  0.20904  0.13284  0.24106  1.0000
  C   C76       1.0  0.20703  0.23193  0.04581  1.0000
  C   C77       1.0  0.13397  0.14655  0.21044  1.0000
  H   H149      1.0  0.30998  0.28923  0.15529  1.0000
  C   C78       1.0  0.01947  0.23421  0.20738  1.0000
  H   H150      1.0  0.02301  0.22945  0.19054  1.0000
  C   C79       1.0  0.29442  0.45740  0.22030  1.0000
  C   C80       1.0  0.36212  0.16441  0.14876  1.0000
  C   C81       1.0  0.06985  0.17224  0.21911  1.0000
  H   H151      1.0  0.30109  0.45681  0.20216  1.0000
  H   H152      1.0  0.06158  0.33185  0.22411  1.0000
  H   H153      1.0  0.10107  0.37321  0.19376  1.0000
  C   C82       1.0  0.07663  0.18903  0.19828  1.0000
  C   C83       1.0  0.18136  0.32496  0.23725  1.0000
  S   S16       1.0  0.11136  0.21055  0.24237  1.0000
  H   H154      1.0  0.36466  0.17310  0.11212  1.0000
  C   C84       1.0  0.11413  0.34686  0.22832  1.0000
  H   H155      1.0  0.25883  0.30939  0.04194  1.0000
  H   H156      1.0  0.12257  0.14464  0.19830  1.0000
  H   H157      1.0  0.32019  0.43054  0.23057  1.0000
  H   H158      1.0  0.45097  0.28320  0.21159  1.0000
  H   H159      1.0  0.12851  0.35244  0.21575  1.0000
  S   S17       1.0  0.15940  0.23293  0.23083  1.0000
  H   H160      1.0  0.36581  0.14612  0.14716  1.0000
  C   C85       1.0  0.40724  0.13848  0.16342  1.0000
  H   H161      1.0  0.01463  0.18201  0.22659  1.0000
  H   H162      1.0  0.48175  0.27373  0.23700  1.0000
  C   C86       1.0  0.23032  0.26194  0.04646  1.0000
  H   H163      1.0  0.17911  0.25710  0.00720  1.0000
  H   H164      1.0  0.48319  0.30301  0.23435  1.0000
  H   H165      1.0  0.20243  0.07470  0.19450  1.0000
  C   C87       1.0  0.05692  0.18475  0.23875  1.0000
  H   H166      1.0  0.03608  0.14554  0.24238  1.0000
  Fe  Fe10      1.0  0.26902  0.05599  0.27149  1.0000
  S   S18       1.0  0.29490  0.07838  0.27461  1.0000
  C   C88       1.0  0.31960  0.13762  0.29212  1.0000
  Fe  Fe11      1.0  0.22943  0.09275  0.28134  1.0000
  S   S19       1.0  0.25170  0.11795  0.28529  1.0000
  S   S20       1.0  0.19114  0.10095  0.28204  1.0000
  H   H167      1.0  0.30123  0.22156  0.30299  1.0000
  H   H168      1.0  0.28160  0.42442  0.30069  1.0000
  Fe  Fe12      1.0  0.27126  0.08894  0.30502  1.0000
  S   S21       1.0  0.28789  0.09553  0.33412  1.0000
  S   S22       1.0  0.25000  0.08336  0.24882  1.0000
  S   S23       1.0  0.24704  0.06408  0.30390  1.0000
  S   S24       1.0  0.15086  0.20300  0.29165  1.0000
  H   H169      1.0  0.25276  0.16734  0.44189  1.0000
  Fe  Fe13      1.0  0.31703  0.22118  0.40501  1.0000
  S   S25       1.0  0.28811  0.23544  0.38516  1.0000
  S   S26       1.0  0.35217  0.22960  0.39151  1.0000
  Fe  Fe14      1.0  0.28650  0.20287  0.44655  1.0000
  S   S27       1.0  0.25507  0.21548  0.42990  1.0000
  H   H170      1.0  0.47218  0.34476  0.30038  1.0000
  Fe  Fe15      1.0  0.27517  0.20224  0.39882  1.0000
  S   S28       1.0  0.25540  0.18655  0.37768  1.0000
  Fe  Fe16      1.0  0.27062  0.24720  0.41754  1.0000
  S   S29       1.0  0.24981  0.28103  0.42203  1.0000
  S   S30       1.0  0.30559  0.18691  0.41641  1.0000
  S   S31       1.0  0.30053  0.23574  0.43640  1.0000
  Fe  Fe17      1.0  0.40655  0.20769  0.27823  1.0000
  H   H171      1.0  0.31224  0.17042  0.31792  1.0000
  S   S32       1.0  0.40019  0.18109  0.30798  1.0000
  Fe  Fe18      1.0  0.21849  0.35941  0.29132  1.0000
  S   S33       1.0  0.22320  0.38829  0.30888  1.0000
  S   S34       1.0  0.18654  0.34218  0.29830  1.0000
  H   H172      1.0  0.33269  0.21009  0.32745  1.0000
  S   S35       1.0  0.27692  0.38256  0.28350  1.0000
  H   H173      1.0  0.31929  0.48837  0.25387  1.0000
  Fe  Fe19      1.0  0.25675  0.36746  0.31536  1.0000
  S   S36       1.0  0.26928  0.36549  0.34877  1.0000
  Fe  Fe20      1.0  0.24286  0.40161  0.27586  1.0000
  H   H174      1.0  0.44012  0.28039  0.25311  1.0000
  S   S37       1.0  0.25048  0.33757  0.30090  1.0000
  C   C89       1.0  0.46865  0.34777  0.28260  1.0000
  C   C90       1.0  0.24518  0.46166  0.27065  1.0000
  H   H175      1.0  0.05999  0.14983  0.28865  1.0000
  C   C91       1.0  0.23709  0.15900  0.44555  1.0000
  C   C92       1.0  0.25335  0.47842  0.30194  1.0000
  C   C93       1.0  0.24709  0.46013  0.29357  1.0000
  H   H176      1.0  0.25479  0.47713  0.31968  1.0000
  H   H177      1.0  0.24368  0.44487  0.30486  1.0000
  C   C94       1.0  0.47994  0.25574  0.30523  1.0000
  H   H178      1.0  0.08122  0.16171  0.26815  1.0000
  H   H179      1.0  0.32849  0.13901  0.30645  1.0000
  H   H180      1.0  0.30980  0.22028  0.48229  1.0000
  H   H181      1.0  0.44990  0.34940  0.28239  1.0000
  C   C95       1.0  0.29803  0.28797  0.47764  1.0000
  C   C96       1.0  0.25645  0.30380  0.40124  1.0000
  C   C97       1.0  0.26403  0.30081  0.37862  1.0000
  C   C98       1.0  0.26764  0.31975  0.36221  1.0000
  C   C99       1.0  0.26434  0.34151  0.36857  1.0000
  C   C100      1.0  0.25763  0.34427  0.39128  1.0000
  C   C101      1.0  0.25329  0.32556  0.40747  1.0000
  H   H182      1.0  0.26662  0.28404  0.37371  1.0000
  H   H183      1.0  0.27315  0.31760  0.34469  1.0000
  H   H184      1.0  0.25525  0.36102  0.39629  1.0000
  H   H185      1.0  0.24761  0.32798  0.42491  1.0000
  C   C102      1.0  0.36563  0.21546  0.36880  1.0000
  C   C103      1.0  0.35929  0.19501  0.36553  1.0000
  C   C104      1.0  0.37039  0.18410  0.34711  1.0000
  C   C105      1.0  0.38712  0.19412  0.33154  1.0000
  C   C106      1.0  0.39323  0.21468  0.33474  1.0000
  C   C107      1.0  0.38290  0.22500  0.35370  1.0000
  H   H186      1.0  0.34611  0.18747  0.37731  1.0000
  H   H187      1.0  0.36570  0.16817  0.34463  1.0000
  H   H188      1.0  0.40633  0.22230  0.32291  1.0000
  H   H189      1.0  0.38824  0.24038  0.35669  1.0000
  H   H190      1.0  0.47458  0.22837  0.33274  1.0000
  H   H191      1.0  0.49974  0.32806  0.27011  1.0000
  H   H192      1.0  0.27546  0.08695  0.42914  1.0000
  S   S38       1.0  0.28183  0.18490  0.48264  1.0000
  H   H193      1.0  0.23716  0.18719  0.32095  1.0000
  H   H194      1.0  0.47489  0.25111  0.27175  1.0000
  H   H195      1.0  0.13042  0.34894  0.26926  1.0000
  H   H196      1.0  0.28363  0.08155  0.46357  1.0000
  C   C108      1.0  0.27938  0.12187  0.34442  1.0000
  C   C109      1.0  0.25685  0.13269  0.34474  1.0000
  C   C110      1.0  0.24984  0.15249  0.35499  1.0000
  C   C111      1.0  0.26539  0.16202  0.36444  1.0000
  C   C112      1.0  0.28813  0.15169  0.36341  1.0000
  C   C113      1.0  0.29502  0.13149  0.35372  1.0000
  H   H197      1.0  0.24461  0.12534  0.33782  1.0000
  H   H198      1.0  0.23216  0.16027  0.35584  1.0000
  H   H199      1.0  0.30030  0.15913  0.37027  1.0000
  H   H200      1.0  0.31251  0.12323  0.35347  1.0000
  C   C114      1.0  0.17964  0.12907  0.28558  1.0000
  C   C115      1.0  0.15953  0.13882  0.27666  1.0000
  C   C116      1.0  0.15090  0.16172  0.27789  1.0000
  C   C117      1.0  0.16172  0.17457  0.28917  1.0000
  C   C118      1.0  0.18119  0.16451  0.29904  1.0000
  C   C119      1.0  0.19036  0.14190  0.29694  1.0000
  C   C120      1.0  0.03544  0.18602  0.27644  1.0000
  H   H201      1.0  0.18927  0.17429  0.30817  1.0000
  H   H202      1.0  0.20542  0.13427  0.30453  1.0000
  H   H203      1.0  0.02386  0.20029  0.26842  1.0000
  H   H204      1.0  0.02135  0.14777  0.26990  1.0000
  C   C121      1.0  0.41616  0.28336  0.33086  1.0000
  H   H205      1.0  0.23518  0.01427  0.28040  1.0000
  H   H206      1.0  0.26278  0.21019  0.29580  1.0000
  H   H207      1.0  0.24977  0.06808  0.40385  1.0000
  N   N6        1.0  0.21729  0.27663  0.33727  1.0000
  C   C122      1.0  0.23548  0.27289  0.31723  1.0000
  C   C123      1.0  0.19447  0.27582  0.33003  1.0000
  C   C124      1.0  0.21761  0.30028  0.34240  1.0000
  C   C125      1.0  0.22258  0.25896  0.35711  1.0000
  C   C126      1.0  0.20201  0.25278  0.37503  1.0000
  C   C127      1.0  0.26076  0.27125  0.32126  1.0000
  C   C128      1.0  0.20091  0.30821  0.36282  1.0000
  C   C129      1.0  0.19218  0.25381  0.32078  1.0000
  H   H208      1.0  0.45473  0.30764  0.28498  1.0000
  C   C130      1.0  0.21012  0.23956  0.39666  1.0000
  C   C131      1.0  0.27699  0.26919  0.29921  1.0000
  C   C132      1.0  0.20083  0.33343  0.36368  1.0000
  H   H209      1.0  0.23235  0.28650  0.30277  1.0000
  H   H210      1.0  0.23470  0.25665  0.31115  1.0000
  H   H211      1.0  0.18028  0.27858  0.34395  1.0000
  H   H212      1.0  0.19078  0.29018  0.31649  1.0000
  H   H213      1.0  0.21434  0.31284  0.32729  1.0000
  H   H214      1.0  0.23466  0.30231  0.34588  1.0000
  H   H215      1.0  0.23090  0.24260  0.35122  1.0000
  H   H216      1.0  0.23545  0.26429  0.36587  1.0000
  H   H217      1.0  0.19200  0.24196  0.36840  1.0000
  H   H218      1.0  0.19011  0.26779  0.37977  1.0000
  H   H219      1.0  0.26420  0.28632  0.32773  1.0000
  H   H220      1.0  0.26537  0.25607  0.33355  1.0000
  H   H221      1.0  0.20646  0.29879  0.37879  1.0000
  H   H222      1.0  0.18307  0.30591  0.36201  1.0000
  H   H223      1.0  0.20004  0.25468  0.30277  1.0000
  H   H224      1.0  0.20091  0.23849  0.33031  1.0000
  H   H225      1.0  0.22162  0.22384  0.39293  1.0000
  H   H226      1.0  0.21935  0.25013  0.40455  1.0000
  H   H227      1.0  0.19520  0.23474  0.40890  1.0000
  H   H228      1.0  0.27323  0.25564  0.29047  1.0000
  H   H229      1.0  0.27563  0.28559  0.28780  1.0000
  H   H230      1.0  0.29484  0.26491  0.30286  1.0000
  H   H231      1.0  0.18920  0.33862  0.37877  1.0000
  H   H232      1.0  0.21823  0.33694  0.36480  1.0000
  H   H233      1.0  0.19474  0.34385  0.34836  1.0000
  S   S39       1.0  0.37559  0.23143  0.26953  1.0000
  N   N7        1.0  0.26200  0.12084  0.43746  1.0000
  H   H234      1.0  0.30823  0.10056  0.42957  1.0000
  C   C133      1.0  0.46865  0.23488  0.31613  1.0000
  H   H235      1.0  0.45289  0.26964  0.28558  1.0000
  H   H236      1.0  0.32703  0.99944  0.27681  1.0000
  C   C134      1.0  0.39497  0.29709  0.34242  1.0000
  H   H237      1.0  0.06324  0.18431  0.29729  1.0000
  H   H238      1.0  0.32504  0.11534  0.26615  1.0000
  H   H239      1.0  0.31740  0.48740  0.28393  1.0000
  H   H240      1.0  0.04578  0.30562  0.25877  1.0000
  H   H241      1.0  0.44974  0.23915  0.31887  1.0000
  H   H242      1.0  0.32260  0.40569  0.27411  1.0000
  C   C135      1.0  0.48118  0.32843  0.26985  1.0000
  C   C136      1.0  0.06526  0.15379  0.27008  1.0000
  C   C137      1.0  0.36145  0.30404  0.26396  1.0000
  H   H243      1.0  0.39436  0.29232  0.36097  1.0000
  H   H244      1.0  0.22074  0.18210  0.41935  1.0000
  C   C138      1.0  0.28616  0.42608  0.33478  1.0000
  H   H245      1.0  0.32381  0.44226  0.31136  1.0000
  H   H246      1.0  0.24935  0.24630  0.47911  1.0000
  H   H247      1.0  0.24605  0.10938  0.47109  1.0000
  C   C139      1.0  0.32964  0.36766  0.34776  1.0000
  H   H248      1.0  0.48043  0.20600  0.26305  1.0000
  C   C140      1.0  0.32695  0.33152  0.26765  1.0000
  H   H249      1.0  0.19937  0.34779  0.24948  1.0000
  H   H250      1.0  0.05586  0.32085  0.27792  1.0000
  H   H251      1.0  0.23386  0.20932  0.47820  1.0000
  C   C141      1.0  0.34915  0.32325  0.27275  1.0000
  H   H252      1.0  0.32309  0.14242  0.39815  1.0000
  H   H253      1.0  0.21492  0.32207  0.45503  1.0000
  Fe  Fe21      1.0  0.39870  0.25812  0.26108  1.0000
  H   H254      1.0  0.47537  0.26853  0.31707  1.0000
  H   H255      1.0  0.06243  0.20770  0.27497  1.0000
  H   H256      1.0  0.14652  0.28986  0.27029  1.0000
  H   H257      1.0  0.47337  0.22117  0.30526  1.0000
  H   H258      1.0  0.33351  0.10207  0.29291  1.0000
  C   C142      1.0  0.06067  0.30720  0.26701  1.0000
  H   H259      1.0  0.25657  0.20034  0.27150  1.0000
  H   H260      1.0  0.43179  0.28712  0.33642  1.0000
  C   C143      1.0  0.21704  0.17590  0.43767  1.0000
  H   H261      1.0  0.30003  0.42316  0.34553  1.0000
  C   C144      1.0  0.16716  0.25083  0.32169  1.0000
  H   H262      1.0  0.23617  0.11008  0.40301  1.0000
  C   C145      1.0  0.31805  0.15996  0.27532  1.0000
  C   C146      1.0  0.22713  0.17088  0.24830  1.0000
  C   C147      1.0  0.25987  0.09957  0.42817  1.0000
  H   H263      1.0  0.31301  0.19525  0.34822  1.0000
  H   H264      1.0  0.16626  0.23517  0.31464  1.0000
  H   H265      1.0  0.25477  0.28885  0.25645  1.0000
  S   S40       1.0  0.11572  0.25685  0.26322  1.0000
  H   H266      1.0  0.24594  0.09086  0.43877  1.0000
  C   C148      1.0  0.17940  0.32914  0.27679  1.0000
  H   H267      1.0  0.27853  0.14431  0.41115  1.0000
  H   H268      1.0  0.27793  0.07487  0.39118  1.0000
  H   H269      1.0  0.44167  0.31014  0.25200  1.0000
  H   H270      1.0  0.28790  0.14211  0.43759  1.0000
  H   H271      1.0  0.34511  0.40811  0.30717  1.0000
  H   H272      1.0  0.02678  0.22645  0.29555  1.0000
  H   H273      1.0  0.35106  0.12109  0.27455  1.0000
  H   H274      1.0  0.39738  0.31519  0.33791  1.0000
  H   H275      1.0  0.22597  0.15800  0.26352  1.0000
  C   C149      1.0  0.32553  0.12769  0.41147  1.0000
  C   C150      1.0  0.08118  0.31205  0.24926  1.0000
  H   H276      1.0  0.30230  0.13314  0.29880  1.0000
  H   H277      1.0  0.24045  0.14347  0.41540  1.0000
  H   H278      1.0  0.22232  0.20204  0.29818  1.0000
  C   C151      1.0  0.29605  0.42353  0.31027  1.0000
  C   C152      1.0  0.49586  0.21311  0.25559  1.0000
  H   H279      1.0  0.47743  0.33257  0.25221  1.0000
  H   H280      1.0  0.31743  0.34627  0.27454  1.0000
  H   H281      1.0  0.05751  0.11978  0.26846  1.0000
  C   C153      1.0  0.28274  0.13179  0.42604  1.0000
  H   H282      1.0  0.28433  0.18594  0.24499  1.0000
  H   H283      1.0  0.27426  0.41345  0.34134  1.0000
  H   H284      1.0  0.30152  0.10964  0.40160  1.0000
  H   H285      1.0  0.05009  0.22042  0.31195  1.0000
  H   H286      1.0  0.27704  0.16594  0.30885  1.0000
  H   H287      1.0  0.26479  0.11567  0.39273  1.0000
  H   H288      1.0  0.32905  0.37238  0.32937  1.0000
  H   H289      1.0  0.02758  0.20277  0.31810  1.0000
  H   H290      1.0  0.31455  0.37737  0.35689  1.0000
  C   C154      1.0  0.47179  0.26532  0.28201  1.0000
  C   C155      1.0  0.33318  0.11788  0.28062  1.0000
  H   H291      1.0  0.33582  0.16387  0.26932  1.0000
  S   S41       1.0  0.23516  0.37438  0.25760  1.0000
  C   C156      1.0  0.27643  0.27721  0.47835  1.0000
  H   H292      1.0  0.02441  0.17679  0.29034  1.0000
  C   C157      1.0  0.24063  0.13742  0.43379  1.0000
  C   C158      1.0  0.25453  0.10330  0.40349  1.0000
  H   H293      1.0  0.24155  0.31791  0.25600  1.0000
  C   C159      1.0  0.01049  0.24671  0.25062  1.0000
  N   N8        1.0  0.35040  0.30274  0.34650  1.0000
  C   C160      1.0  0.33174  0.29760  0.33477  1.0000
  C   C161      1.0  0.35029  0.32810  0.34350  1.0000
  C   C162      1.0  0.37292  0.29267  0.33439  1.0000
  C   C163      1.0  0.34841  0.29296  0.37123  1.0000
  C   C164      1.0  0.32383  0.29140  0.38394  1.0000
  C   C165      1.0  0.33095  0.27205  0.33394  1.0000
  H   H294      1.0  0.27516  0.16255  0.28083  1.0000
  C   C166      1.0  0.32870  0.34226  0.35446  1.0000
  H   H295      1.0  0.09732  0.10034  0.26501  1.0000
  C   C167      1.0  0.32357  0.28736  0.40953  1.0000
  C   C168      1.0  0.34055  0.26490  0.31071  1.0000
  H   H296      1.0  0.33270  0.30687  0.31727  1.0000
  H   H297      1.0  0.31460  0.30442  0.34277  1.0000
  H   H298      1.0  0.36454  0.33236  0.35102  1.0000
  H   H299      1.0  0.35316  0.33477  0.32514  1.0000
  C   C169      1.0  0.02868  0.15796  0.25417  1.0000
  H   H300      1.0  0.37393  0.27398  0.33594  1.0000
  H   H301      1.0  0.35774  0.27539  0.37349  1.0000
  H   H302      1.0  0.35719  0.30270  0.38055  1.0000
  H   H303      1.0  0.31695  0.27706  0.37919  1.0000
  H   H304      1.0  0.31180  0.30693  0.38001  1.0000
  H   H305      1.0  0.33982  0.26068  0.34709  1.0000
  H   H306      1.0  0.31279  0.26897  0.33762  1.0000
  C   C170      1.0  0.26551  0.99913  0.26099  1.0000
  H   H307      1.0  0.41748  0.28778  0.31220  1.0000
  H   H308      1.0  0.31176  0.15587  0.26036  1.0000
  H   H309      1.0  0.32740  0.33876  0.37315  1.0000
  S   S42       1.0  0.28236  0.02077  0.26129  1.0000
  H   H310      1.0  0.22507  0.12889  0.43958  1.0000
  H   H311      1.0  0.33161  0.18654  0.29905  1.0000
  H   H312      1.0  0.32927  0.30183  0.41531  1.0000
  H   H313      1.0  0.30585  0.28576  0.41794  1.0000
  H   H314      1.0  0.33489  0.27148  0.41462  1.0000
  H   H315      1.0  0.35918  0.26546  0.30665  1.0000
  H   H316      1.0  0.33775  0.24725  0.31043  1.0000
  H   H317      1.0  0.33189  0.27603  0.29724  1.0000
  S   S43       1.0  0.38867  0.29299  0.27133  1.0000
  H   H318      1.0  0.29879  0.10478  0.46539  1.0000
  C   C171      1.0  0.24304  0.99981  0.27202  1.0000
  H   H319      1.0  0.21411  0.19069  0.44712  1.0000
  C   C172      1.0  0.16426  0.31293  0.28250  1.0000
  H   H320      1.0  0.32263  0.20440  0.26207  1.0000
  H   H321      1.0  0.41534  0.26490  0.33535  1.0000
  H   H322      1.0  0.20113  0.16791  0.44082  1.0000
  N   N9        1.0  0.04683  0.17034  0.25945  1.0000
  H   H323      1.0  0.29224  0.43437  0.26422  1.0000
  C   C173      1.0  0.30480  0.20012  0.26556  1.0000
  H   H324      1.0  0.49871  0.25041  0.30353  1.0000
  C   C174      1.0  0.30425  0.11571  0.41720  1.0000
  C   C175      1.0  0.35169  0.29333  0.24979  1.0000
  Fe  Fe22      1.0  0.26753  0.35434  0.26835  1.0000
  H   H325      1.0  0.23324  0.17233  0.29845  1.0000
  H   H326      1.0  0.15082  0.12871  0.26851  1.0000
  H   H327      1.0  0.00681  0.25178  0.26732  1.0000
  C   C176      1.0  0.03809  0.21259  0.30435  1.0000
  H   H328      1.0  0.26380  0.13077  0.46996  1.0000
  H   H329      1.0  0.26675  0.28716  0.46505  1.0000
  H   H330      1.0  0.31304  0.33864  0.34908  1.0000
  H   H331      1.0  0.37411  0.29895  0.31600  1.0000
  H   H332      1.0  0.34043  0.11576  0.40505  1.0000
  H   H333      1.0  0.15707  0.30870  0.29995  1.0000
  H   H334      1.0  0.28378  0.20355  0.32327  1.0000
  N   N10       1.0  0.48240  0.28540  0.26877  1.0000
  S   S44       1.0  0.42871  0.23517  0.27368  1.0000
  Fe  Fe23      1.0  0.13544  0.22210  0.26151  1.0000
  H   H335      1.0  0.23290  0.15470  0.46413  1.0000
  C   C177      1.0  0.15814  0.30235  0.26570  1.0000
  H   H336      1.0  0.47965  0.30232  0.29817  1.0000
  C   C178      1.0  0.25932  0.08120  0.39317  1.0000
  H   H337      1.0  0.27641  0.44322  0.33606  1.0000
  H   H338      1.0  0.29422  0.21572  0.27078  1.0000
  C   C179      1.0  0.20735  0.32524  0.47244  1.0000
  C   C180      1.0  0.18799  0.33508  0.25410  1.0000
  C   C181      1.0  0.35276  0.40811  0.28924  1.0000
  C   C182      1.0  0.24060  0.30144  0.25045  1.0000
  C   C183      1.0  0.26245  0.11531  0.46263  1.0000
  H   H339      1.0  0.34538  0.37243  0.35219  1.0000
  N   N11       1.0  0.30311  0.18027  0.28413  1.0000
  H   H340      1.0  0.25376  0.08429  0.37616  1.0000
  C   C184      1.0  0.31308  0.18489  0.30406  1.0000
  H   H341      1.0  0.30700  0.22552  0.34038  1.0000
  C   C185      1.0  0.27891  0.17488  0.29120  1.0000
  C   C186      1.0  0.25923  0.19512  0.28940  1.0000
  H   H342      1.0  0.32947  0.13356  0.42672  1.0000
  C   C187      1.0  0.47375  0.30546  0.28131  1.0000
  C   C188      1.0  0.30145  0.20589  0.31529  1.0000
  C   C189      1.0  0.31436  0.20931  0.33399  1.0000
  C   C190      1.0  0.23664  0.18868  0.30254  1.0000
  S   S45       1.0  0.23952  0.43836  0.25887  1.0000
  S   S46       1.0  0.29004  0.33131  0.24565  1.0000
  H   H343      1.0  0.28200  0.25979  0.47416  1.0000
  C   C191      1.0  0.28242  0.09770  0.47049  1.0000
  H   H344      1.0  0.35672  0.33156  0.28365  1.0000
  H   H345      1.0  0.09281  0.36211  0.25700  1.0000
  C   C192      1.0  0.05168  0.19717  0.28769  1.0000
  H   H346      1.0  0.32523  0.00633  0.30493  1.0000
  H   H347      1.0  0.22979  0.28304  0.47041  1.0000
  H   H348      1.0  0.22395  0.29585  0.25828  1.0000
  H   H349      1.0  0.15845  0.24918  0.33941  1.0000
  C   C193      1.0  0.31101  0.44238  0.29986  1.0000
  H   H350      1.0  0.10804  0.12672  0.26438  1.0000
  H   H351      1.0  0.47463  0.36399  0.27433  1.0000
  H   H352      1.0  0.29963  0.45879  0.30101  1.0000
  H   H353      1.0  0.09091  0.11486  0.28958  1.0000
  H   H354      1.0  0.30592  0.40634  0.31030  1.0000
  H   H355      1.0  0.15803  0.26542  0.31150  1.0000
  C   C194      1.0  0.30446  0.44702  0.26031  1.0000
  H   H356      1.0  0.06513  0.29091  0.27790  1.0000
  C   C195      1.0  0.36255  0.38363  0.28601  1.0000
  H   H357      1.0  0.30863  0.28715  0.46088  1.0000
  C   C196      1.0  0.07158  0.13012  0.26193  1.0000
  H   H358      1.0  0.20657  0.34359  0.47342  1.0000
  C   C197      1.0  0.09328  0.11729  0.27080  1.0000
  H   H359      1.0  0.35104  0.45520  0.28360  1.0000
  S   S47       1.0  0.05439  0.25443  0.25165  1.0000
  Fe  Fe24      1.0  0.27388  0.10624  0.25471  1.0000
  C   C198      1.0  0.31734  0.32094  0.25319  1.0000
  H   H360      1.0  0.13562  0.16928  0.27064  1.0000
  C   C199      1.0  0.24860  0.48204  0.25643  1.0000
  H   H361      1.0  0.29377  0.46342  0.26324  1.0000
  H   H362      1.0  0.18964  0.32091  0.47587  1.0000
  H   H363      1.0  0.23896  0.31708  0.48603  1.0000
  C   C200      1.0  0.22372  0.28565  0.48833  1.0000
  H   H364      1.0  0.37503  0.37676  0.29799  1.0000
  H   H365      1.0  0.37145  0.38277  0.26851  1.0000
  H   H366      1.0  0.09559  0.31276  0.25846  1.0000
  H   H367      1.0  0.36719  0.41822  0.28596  1.0000
  H   H368      1.0  0.22352  0.18795  0.25380  1.0000
  N   N12       1.0  0.32252  0.44130  0.27587  1.0000
  H   H369      1.0  0.34867  0.37280  0.28928  1.0000
  C   C201      1.0  0.22191  0.31126  0.48972  1.0000
  C   C202      1.0  0.33500  0.41794  0.27290  1.0000
  H   H370      1.0  0.29350  0.30605  0.48028  1.0000
  H   H371      1.0  0.20834  0.24530  0.48531  1.0000
  H   H372      1.0  0.12363  0.37919  0.26818  1.0000
  C   C203      1.0  0.12775  0.36512  0.25775  1.0000
  H   H373      1.0  0.30834  0.27875  0.49083  1.0000
  H   H374      1.0  0.14386  0.36747  0.24616  1.0000
  H   H375      1.0  0.20589  0.28157  0.49156  1.0000
  S   S48       1.0  0.41771  0.19826  0.24341  1.0000
  H   H376      1.0  0.19237  0.17181  0.24311  1.0000
  C   C204      1.0  0.47526  0.28910  0.24546  1.0000
  C   C205      1.0  0.33950  0.45806  0.27040  1.0000
  H   H377      1.0  0.34462  0.41792  0.25556  1.0000
  C   C206      1.0  0.32908  0.48353  0.26842  1.0000
  C   C207      1.0  0.16661  0.30844  0.24301  1.0000
  C   C208      1.0  0.00848  0.17295  0.24336  1.0000
  C   C209      1.0  0.44918  0.29462  0.24433  1.0000
  H   H378      1.0  0.35113  0.45531  0.25447  1.0000
  C   C210      1.0  0.32978  0.30191  0.24423  1.0000
  H   H379      1.0  0.07440  0.13111  0.24332  1.0000
  H   H380      1.0  0.06919  0.19470  0.24310  1.0000
  C   C211      1.0  0.29829  0.19652  0.24268  1.0000
  H   H381      1.0  0.35771  0.49530  0.27926  1.0000
  H   H382      1.0  0.36107  0.27854  0.24286  1.0000
  C   C212      1.0  0.10807  0.36505  0.24448  1.0000
  H   H383      1.0  0.06747  0.34739  0.24439  1.0000
  S   S49       1.0  0.12965  0.21461  0.69592  1.0000
  H   H384      1.0  0.34826  0.28619  0.60500  1.0000
  Fe  Fe25      1.0  0.25200  0.20873  0.63313  1.0000
  S   S50       1.0  0.24982  0.24308  0.61241  1.0000
  S   S51       1.0  0.22438  0.18683  0.63719  1.0000
  Fe  Fe26      1.0  0.29994  0.20946  0.64238  1.0000
  S   S52       1.0  0.30215  0.24382  0.62214  1.0000
  S   S53       1.0  0.32704  0.18716  0.66076  1.0000
  Fe  Fe27      1.0  0.26651  0.25267  0.63958  1.0000
  S   S54       1.0  0.25203  0.28451  0.65502  1.0000
  Fe  Fe28      1.0  0.28542  0.23109  0.59666  1.0000
  S   S55       1.0  0.29793  0.23949  0.55923  1.0000
  S   S56       1.0  0.26543  0.21914  0.66171  1.0000
  S   S57       1.0  0.28642  0.19590  0.61548  1.0000
  Fe  Fe29      1.0  0.30878  0.35882  0.71638  1.0000
  S   S58       1.0  0.32111  0.33700  0.68858  1.0000
  H   H385      1.0  0.21918  0.26499  0.57503  1.0000
  C   C213      1.0  0.27050  0.48625  0.72952  1.0000
  H   H386      1.0  0.28258  0.13210  0.72096  1.0000
  H   H387      1.0  0.42615  0.10425  0.74103  1.0000
  H   H388      1.0  0.36806  0.27463  0.62482  1.0000
  S   S59       1.0  0.32729  0.38750  0.71983  1.0000
  H   H389      1.0  0.42254  0.19465  0.56914  1.0000
  C   C214      1.0  0.34540  0.27294  0.72757  1.0000
  S   S60       1.0  0.39483  0.23540  0.70040  1.0000
  H   H390      1.0  0.30736  0.11889  0.64989  1.0000
  H   H391      1.0  0.34808  0.44939  0.67356  1.0000
  H   H392      1.0  0.24565  0.03137  0.71666  1.0000
  H   H393      1.0  0.18181  0.11646  0.73150  1.0000
  H   H394      1.0  0.20359  0.24214  0.69266  1.0000
  H   H395      1.0  0.37951  0.25817  0.58950  1.0000
  H   H396      1.0  0.34042  0.26525  0.62847  1.0000
  H   H397      1.0  0.41825  0.15426  0.64344  1.0000
  C   C215      1.0  0.40939  0.21845  0.59390  1.0000
  C   C216      1.0  0.33061  0.47175  0.69798  1.0000
  H   H398      1.0  0.25272  0.23442  0.50741  1.0000
  C   C217      1.0  0.23316  0.28409  0.54350  1.0000
  H   H399      1.0  0.22819  0.12403  0.66369  1.0000
  H   H400      1.0  0.26344  0.08449  0.50252  1.0000
  H   H401      1.0  0.10727  0.29075  0.70286  1.0000
  C   C218      1.0  0.34351  0.20106  0.67435  1.0000
  C   C219      1.0  0.35879  0.18821  0.68835  1.0000
  C   C220      1.0  0.37387  0.19878  0.69742  1.0000
  C   C221      1.0  0.37402  0.22219  0.69205  1.0000
  C   C222      1.0  0.35822  0.23512  0.67865  1.0000
  C   C223      1.0  0.34262  0.22464  0.67029  1.0000
  H   H402      1.0  0.35927  0.17000  0.69186  1.0000
  H   H403      1.0  0.38597  0.18871  0.70779  1.0000
  H   H404      1.0  0.35813  0.25328  0.67462  1.0000
  H   H405      1.0  0.33048  0.23474  0.66003  1.0000
  C   C224      1.0  0.27139  0.29897  0.66426  1.0000
  C   C225      1.0  0.29488  0.29138  0.66142  1.0000
  C   C226      1.0  0.30999  0.30337  0.66867  1.0000
  C   C227      1.0  0.30165  0.32260  0.67945  1.0000
  C   C228      1.0  0.27813  0.33002  0.68258  1.0000
  C   C229      1.0  0.26307  0.31840  0.67471  1.0000
  H   H406      1.0  0.30145  0.27642  0.65347  1.0000
  H   H407      1.0  0.32819  0.29762  0.66607  1.0000
  H   H408      1.0  0.27159  0.34493  0.69070  1.0000
  H   H409      1.0  0.24493  0.32442  0.67688  1.0000
  C   C230      1.0  0.29456  0.22268  0.53882  1.0000
  C   C231      1.0  0.28111  0.20508  0.54400  1.0000
  C   C232      1.0  0.27789  0.19307  0.52681  1.0000
  Fe  Fe30      1.0  0.29262  0.40502  0.73295  1.0000
  H   H410      1.0  0.45712  0.21494  0.58979  1.0000
  C   C233      1.0  0.30514  0.22775  0.51654  1.0000
  H   H411      1.0  0.27296  0.20091  0.56114  1.0000
  H   H412      1.0  0.26728  0.17965  0.53088  1.0000
  C   C234      1.0  0.22348  0.21118  0.49489  1.0000
  C   C235      1.0  0.15654  0.20688  0.68052  1.0000
  C   C236      1.0  0.17708  0.20672  0.68896  1.0000
  C   C237      1.0  0.19820  0.20164  0.67534  1.0000
  C   C238      1.0  0.19863  0.19598  0.65367  1.0000
  C   C239      1.0  0.17811  0.19563  0.64562  1.0000
  C   C240      1.0  0.15717  0.20153  0.65878  1.0000
  H   H413      1.0  0.17668  0.21077  0.70577  1.0000
  H   H414      1.0  0.21408  0.20145  0.68178  1.0000
  H   H415      1.0  0.17837  0.19088  0.62906  1.0000
  H   H416      1.0  0.14136  0.20155  0.65224  1.0000
  H   H417      1.0  0.29522  0.06337  0.69453  1.0000
  C   C241      1.0  0.26827  0.30004  0.74075  1.0000
  H   H418      1.0  0.18402  0.24958  0.71721  1.0000
  C   C242      1.0  0.22677  0.26831  0.52824  1.0000
  H   H419      1.0  0.37805  0.28215  0.71057  1.0000
  H   H420      1.0  0.23090  0.25087  0.53741  1.0000
  H   H421      1.0  0.18920  0.12596  0.68738  1.0000
  H   H422      1.0  0.31593  0.24101  0.51248  1.0000
  C   C243      1.0  0.21858  0.23607  0.49855  1.0000
  H   H423      1.0  0.23440  0.25778  0.70663  1.0000
  H   H424      1.0  0.26706  0.10550  0.70620  1.0000
  C   C244      1.0  0.40729  0.16669  0.65365  1.0000
  H   H425      1.0  0.24759  0.29482  0.71580  1.0000
  Fe  Fe31      1.0  0.12567  0.21227  0.73374  1.0000
  H   H426      1.0  0.39467  0.20227  0.65077  1.0000
  H   H427      1.0  0.22347  0.23477  0.72564  1.0000
  C   C245      1.0  0.19888  0.25449  0.70491  1.0000
  H   H428      1.0  0.19418  0.16723  0.74108  1.0000
  H   H429      1.0  0.40732  0.23266  0.57991  1.0000
  H   H430      1.0  0.29223  0.11450  0.61498  1.0000
  H   H431      1.0  0.35458  0.29244  0.69473  1.0000
  C   C246      1.0  0.33924  0.44816  0.69122  1.0000
  H   H432      1.0  0.11179  0.26046  0.70239  1.0000
  C   C247      1.0  0.22764  0.03431  0.71324  1.0000
  H   H433      1.0  0.14884  0.28639  0.70371  1.0000
  H   H434      1.0  0.35677  0.48827  0.67642  1.0000
  H   H435      1.0  0.23157  0.30202  0.53564  1.0000
  H   H436      1.0  0.25614  0.09135  0.67061  1.0000
  H   H437      1.0  0.30453  0.14905  0.64175  1.0000
  H   H438      1.0  0.31647  0.12991  0.60831  1.0000
  S   S61       1.0  0.28015  0.44208  0.72147  1.0000
  C   C248      1.0  0.11097  0.27723  0.69176  1.0000
  C   C249      1.0  0.40366  0.18996  0.63941  1.0000
  H   H439      1.0  0.35998  0.06328  0.73453  1.0000
  H   H440      1.0  0.31394  0.28290  0.71380  1.0000
  H   H441      1.0  0.42081  0.29134  0.74110  1.0000
  H   H442      1.0  0.19541  0.02300  0.72685  1.0000
  C   C250      1.0  0.21268  0.16890  0.73797  1.0000
  C   C251      1.0  0.45229  0.30760  0.73654  1.0000
  H   H443      1.0  0.32204  0.46951  0.71559  1.0000
  N   N13       1.0  0.17632  0.28240  0.67606  1.0000
  C   C252      1.0  0.17326  0.30731  0.66670  1.0000
  C   C253      1.0  0.15394  0.27635  0.68929  1.0000
  C   C254      1.0  0.21791  0.28276  0.56639  1.0000
  C   C255      1.0  0.18497  0.26720  0.65799  1.0000
  C   C256      1.0  0.17695  0.27509  0.63445  1.0000
  C   C257      1.0  0.19553  0.31720  0.65578  1.0000
  C   C258      1.0  0.24545  0.30240  0.73168  1.0000
  C   C259      1.0  0.13339  0.27923  0.67591  1.0000
  H   H444      1.0  0.20782  0.27112  0.52894  1.0000
  C   C260      1.0  0.18090  0.25555  0.62039  1.0000
  C   C261      1.0  0.19042  0.34012  0.64132  1.0000
  H   H445      1.0  0.20716  0.20445  0.49542  1.0000
  H   H446      1.0  0.16503  0.31758  0.68036  1.0000
  H   H447      1.0  0.16137  0.31110  0.65394  1.0000
  H   H448      1.0  0.15582  0.25823  0.69700  1.0000
  H   H449      1.0  0.35511  0.14370  0.72886  1.0000
  C   C262      1.0  0.30161  0.21605  0.49935  1.0000
  H   H450      1.0  0.21017  0.28348  0.68375  1.0000
  H   H451      1.0  0.20406  0.26471  0.65475  1.0000
  H   H452      1.0  0.18030  0.24992  0.66410  1.0000
  H   H453      1.0  0.18670  0.28861  0.62494  1.0000
  H   H454      1.0  0.15859  0.28197  0.63560  1.0000
  H   H455      1.0  0.20514  0.31993  0.66915  1.0000
  H   H456      1.0  0.20683  0.30555  0.64500  1.0000
  C   C263      1.0  0.19346  0.27893  0.69258  1.0000
  H   H457      1.0  0.21738  0.17434  0.71964  1.0000
  H   H458      1.0  0.13101  0.29595  0.66538  1.0000
  H   H459      1.0  0.13587  0.26561  0.66499  1.0000
  H   H460      1.0  0.32456  0.43867  0.69232  1.0000
  C   C264      1.0  0.29832  0.16236  0.71650  1.0000
  H   H461      1.0  0.22731  0.02934  0.69641  1.0000
  H   H462      1.0  0.16944  0.24277  0.62805  1.0000
  H   H463      1.0  0.17701  0.26202  0.60301  1.0000
  H   H464      1.0  0.19891  0.24721  0.61938  1.0000
  H   H465      1.0  0.17941  0.35244  0.65164  1.0000
  H   H466      1.0  0.20673  0.34690  0.63444  1.0000
  H   H467      1.0  0.18180  0.33825  0.62691  1.0000
  H   H468      1.0  0.34211  0.21041  0.73550  1.0000
  H   H469      1.0  0.26330  0.15835  0.71782  1.0000
  H   H470      1.0  0.39787  0.11975  0.73924  1.0000
  H   H471      1.0  0.19878  0.14371  0.70428  1.0000
  H   H472      1.0  0.35761  0.30587  0.71857  1.0000
  H   H473      1.0  0.41584  0.16797  0.66830  1.0000
  H   H474      1.0  0.28589  0.08947  0.65991  1.0000
  H   H475      1.0  0.28799  0.14501  0.60732  1.0000
  H   H476      1.0  0.26500  0.06551  0.70541  1.0000
  C   C265      1.0  0.31958  0.28280  0.73048  1.0000
  C   C266      1.0  0.42739  0.30708  0.73251  1.0000
  C   C267      1.0  0.35479  0.27056  0.61578  1.0000
  C   C268      1.0  0.42596  0.30817  0.70737  1.0000
  C   C269      1.0  0.20147  0.13794  0.68742  1.0000
  N   N14       1.0  0.23834  0.26976  0.50390  1.0000
  H   H477      1.0  0.49756  0.31361  0.72707  1.0000
  C   C270      1.0  0.32369  0.20908  0.73628  1.0000
  S   S62       1.0  0.27399  0.37776  0.72595  1.0000
  H   H478      1.0  0.22100  0.05266  0.71278  1.0000
  H   H479      1.0  0.31742  0.47992  0.68719  1.0000
  C   C271      1.0  0.45050  0.20973  0.57555  1.0000
  H   H480      1.0  0.42080  0.19487  0.63283  1.0000
  H   H481      1.0  0.36489  0.47531  0.70286  1.0000
  C   C272      1.0  0.42795  0.20023  0.58382  1.0000
  H   H482      1.0  0.23861  0.32067  0.72815  1.0000
  H   H483      1.0  0.43201  0.32383  0.69764  1.0000
  C   C273      1.0  0.24110  0.24638  0.49695  1.0000
  C   C274      1.0  0.30976  0.23268  0.73341  1.0000
  H   H484      1.0  0.25113  0.27869  0.54687  1.0000
  H   H485      1.0  0.31581  0.15438  0.71028  1.0000
  H   H486      1.0  0.41651  0.22556  0.60674  1.0000
  C   C275      1.0  0.35056  0.48608  0.69491  1.0000
  H   H487      1.0  0.43636  0.29307  0.70066  1.0000
  H   H488      1.0  0.41578  0.32187  0.73851  1.0000
  H   H489      1.0  0.34802  0.25697  0.72007  1.0000
  H   H490      1.0  0.46345  0.19649  0.56826  1.0000
  H   H491      1.0  0.40790  0.30838  0.70494  1.0000
  H   H492      1.0  0.29714  0.16197  0.73497  1.0000
  H   H493      1.0  0.01942  0.20267  0.73271  1.0000
  H   H494      1.0  0.22354  0.29334  0.57733  1.0000
  H   H495      1.0  0.21354  0.31503  0.50665  1.0000
  H   H496      1.0  0.23285  0.20092  0.50834  1.0000
  H   H497      1.0  0.27579  0.05287  0.68008  1.0000
  H   H498      1.0  0.38127  0.23324  0.62905  1.0000
  H   H499      1.0  0.35110  0.43840  0.70279  1.0000
  H   H500      1.0  0.28010  0.26910  0.72655  1.0000
  H   H501      1.0  0.22744  0.10949  0.69231  1.0000
  H   H502      1.0  0.09666  0.27887  0.68170  1.0000
  H   H503      1.0  0.33376  0.03822  0.72895  1.0000
  H   H504      1.0  0.44814  0.22457  0.56224  1.0000
  C   C276      1.0  0.35970  0.28943  0.71190  1.0000
  H   H505      1.0  0.18783  0.29047  0.70571  1.0000
  H   H506      1.0  0.31614  0.24186  0.71679  1.0000
  C   C277      1.0  0.21906  0.25261  0.71806  1.0000
  N   N15       1.0  0.38656  0.21081  0.60363  1.0000
  C   C278      1.0  0.37535  0.20625  0.58451  1.0000
  C   C279      1.0  0.38939  0.18940  0.62026  1.0000
  C   C280      1.0  0.37211  0.22919  0.61589  1.0000
  C   C281      1.0  0.36488  0.25194  0.60110  1.0000
  C   C282      1.0  0.35071  0.20005  0.59088  1.0000
  C   C283      1.0  0.34221  0.19406  0.57035  1.0000
  H   H507      1.0  0.38570  0.19192  0.57640  1.0000
  H   H508      1.0  0.37489  0.22109  0.57094  1.0000
  H   H509      1.0  0.39686  0.17457  0.61133  1.0000
  H   H510      1.0  0.37241  0.18532  0.62903  1.0000
  H   H511      1.0  0.35618  0.22310  0.62527  1.0000
  H   H512      1.0  0.35177  0.24991  0.59077  1.0000
  H   H513      1.0  0.19771  0.15278  0.67457  1.0000
  H   H514      1.0  0.34985  0.18518  0.60421  1.0000
  H   H515      1.0  0.33867  0.21447  0.59697  1.0000
  H   H516      1.0  0.43153  0.18510  0.59642  1.0000
  H   H517      1.0  0.34265  0.20838  0.55632  1.0000
  H   H518      1.0  0.35287  0.17873  0.56441  1.0000
  H   H519      1.0  0.32427  0.19051  0.57494  1.0000
  H   H520      1.0  0.39067  0.16042  0.66018  1.0000
  N   N16       1.0  0.26840  0.13297  0.67844  1.0000
  C   C284      1.0  0.27163  0.13625  0.65293  1.0000
  C   C285      1.0  0.24357  0.14032  0.68692  1.0000
  C   C286      1.0  0.28230  0.14873  0.68562  1.0000
  C   C287      1.0  0.27616  0.10893  0.68866  1.0000
  C   C288      1.0  0.27339  0.08959  0.67557  1.0000
  C   C289      1.0  0.29684  0.13356  0.64127  1.0000
  C   C290      1.0  0.28023  0.14942  0.71140  1.0000
  C   C291      1.0  0.22594  0.12635  0.68172  1.0000
  H   H521      1.0  0.19980  0.28910  0.56423  1.0000
  C   C292      1.0  0.27766  0.06642  0.68982  1.0000
  C   C293      1.0  0.29840  0.13055  0.61645  1.0000
  H   H522      1.0  0.32180  0.19974  0.72250  1.0000
  H   H523      1.0  0.26367  0.15358  0.64642  1.0000
  H   H524      1.0  0.26247  0.12469  0.64638  1.0000
  H   H525      1.0  0.24084  0.13913  0.70563  1.0000
  H   H526      1.0  0.23853  0.15850  0.68029  1.0000
  H   H527      1.0  0.27787  0.16645  0.67729  1.0000
  H   H528      1.0  0.30084  0.14390  0.67990  1.0000
  H   H529      1.0  0.29463  0.10662  0.69069  1.0000
  Fe  Fe32      1.0  0.40506  0.22178  0.73471  1.0000
  C   C294      1.0  0.28776  0.19882  0.50431  1.0000
  H   H530      1.0  0.27197  0.26448  0.51400  1.0000
  H   H531      1.0  0.26106  0.29331  0.50746  1.0000
  H   H532      1.0  0.48436  0.33937  0.73794  1.0000
  H   H533      1.0  0.26731  0.48992  0.71214  1.0000
  H   H534      1.0  0.29570  0.18027  0.70836  1.0000
  H   H535      1.0  0.20795  0.23692  0.51526  1.0000
  H   H536      1.0  0.45719  0.32351  0.72641  1.0000
  H   H537      1.0  0.27869  0.10771  0.50415  1.0000
  H   H538      1.0  0.29410  0.07980  0.50153  1.0000
  C   C295      1.0  0.27938  0.09214  0.49625  1.0000
  H   H539      1.0  0.36246  0.02330  0.72613  1.0000
  H   H540      1.0  0.21991  0.00213  0.73035  1.0000
  H   H541      1.0  0.23208  0.42688  0.72791  1.0000
  H   H542      1.0  0.29171  0.23050  0.73311  1.0000
  C   C296      1.0  0.26192  0.27644  0.50205  1.0000
  H   H543      1.0  0.46357  0.29361  0.72850  1.0000
  C   C297      1.0  0.34842  0.03087  0.73821  1.0000
  C   C298      1.0  0.21302  0.02011  0.73138  1.0000
  H   H544      1.0  0.27934  0.31126  0.72917  1.0000
  C   C299      1.0  0.27684  0.46369  0.73885  1.0000
  H   H545      1.0  0.21454  0.26343  0.73178  1.0000
  H   H546      1.0  0.31811  0.30099  0.73235  1.0000
  C   C300      1.0  0.49410  0.32243  0.74232  1.0000
  Fe  Fe33      1.0  0.28708  0.04054  0.78139  1.0000
  H   H547      1.0  0.38649  0.10349  0.78020  1.0000
  Fe  Fe34      1.0  0.26835  0.08021  0.80786  1.0000
  S   S63       1.0  0.26698  0.10564  0.77660  1.0000
  S   S64       1.0  0.25461  0.08993  0.84240  1.0000
  Fe  Fe35      1.0  0.25323  0.07918  0.76276  1.0000
  H   H548      1.0  0.00709  0.15942  0.82303  1.0000
  Fe  Fe36      1.0  0.30124  0.08733  0.76458  1.0000
  H   H549      1.0  0.39622  0.21012  0.87302  1.0000
  S   S65       1.0  0.25158  0.05504  0.79497  1.0000
  S   S66       1.0  0.30402  0.06379  0.79712  1.0000
  Fe  Fe37      1.0  0.25946  0.20482  0.87988  1.0000
  S   S67       1.0  0.22805  0.19906  0.90432  1.0000
  S   S68       1.0  0.28507  0.17965  0.86206  1.0000
  Fe  Fe38      1.0  0.25457  0.25442  0.88511  1.0000
  S   S69       1.0  0.22277  0.25320  0.91062  1.0000
  S   S70       1.0  0.27362  0.28446  0.87327  1.0000
  Fe  Fe39      1.0  0.24075  0.22006  0.92595  1.0000
  S   S71       1.0  0.23708  0.20630  0.96325  1.0000
  Fe  Fe40      1.0  0.21241  0.23240  0.88732  1.0000
  S   S72       1.0  0.17576  0.23528  0.88176  1.0000
  S   S73       1.0  0.27359  0.22310  0.90274  1.0000
  S   S74       1.0  0.24274  0.23627  0.86050  1.0000
  Fe  Fe41      1.0  0.08941  0.21707  0.77459  1.0000
  H   H550      1.0  0.05389  0.28586  0.83207  1.0000
  S   S75       1.0  0.05351  0.22680  0.79196  1.0000
  Fe  Fe42      1.0  0.13328  0.18332  0.77770  1.0000
  C   C301      1.0  0.00835  0.23293  0.78605  1.0000
  S   S76       1.0  0.14936  0.15276  0.79874  1.0000
  Fe  Fe43      1.0  0.13559  0.23369  0.77222  1.0000
  S   S77       1.0  0.15279  0.26054  0.78190  1.0000
  H   H551      1.0  0.19581  0.27953  0.97220  1.0000
  S   S78       1.0  0.11591  0.21066  0.79782  1.0000
  C   C302      1.0  0.37051  0.06649  0.81496  1.0000
  H   H552      1.0  0.48238  0.31428  0.77809  1.0000
  C   C303      1.0  0.18569  0.05682  0.81831  1.0000
  S   S79       1.0  0.29829  0.00257  0.78607  1.0000
  H   H553      1.0  0.29034  0.27211  0.78454  1.0000
  C   C304      1.0  0.23178  0.42355  0.76417  1.0000
  H   H554      1.0  0.18881  0.25337  0.96604  1.0000
  S   S80       1.0  0.24918  0.34656  0.78321  1.0000
  S   S81       1.0  0.29477  0.39041  0.76908  1.0000
  H   H555      1.0  0.46190  0.26953  0.76292  1.0000
  C   C305      1.0  0.37594  0.33073  0.80256  1.0000
  H   H556      1.0  0.38912  0.30267  0.82576  1.0000
  H   H557      1.0  0.37490  0.34301  0.81404  1.0000
  H   H558      1.0  0.10347  0.29039  0.88885  1.0000
  H   H559      1.0  0.03178  0.24518  0.85846  1.0000
  H   H560      1.0  0.45137  0.03714  0.79151  1.0000
  C   C306      1.0  0.01628  0.21120  0.74757  1.0000
  H   H561      1.0  0.09579  0.28415  0.77553  1.0000
  C   C307      1.0  0.03080  0.22433  0.77765  1.0000
  S   S82       1.0  0.15514  0.20593  0.75358  1.0000
  H   H562      1.0  0.44402  0.24383  0.80179  1.0000
  S   S83       1.0  0.48068  0.19208  0.76746  1.0000
  C   C308      1.0  0.26649  0.30166  0.84830  1.0000
  C   C309      1.0  0.24701  0.29958  0.83913  1.0000
  C   C310      1.0  0.24174  0.31350  0.81918  1.0000
  C   C311      1.0  0.25614  0.32924  0.80809  1.0000
  C   C312      1.0  0.27561  0.33130  0.81720  1.0000
  C   C313      1.0  0.28062  0.31773  0.83742  1.0000
  H   H563      1.0  0.23584  0.28747  0.84757  1.0000
  H   H564      1.0  0.22653  0.31199  0.81228  1.0000
  H   H565      1.0  0.28681  0.34339  0.80873  1.0000
  H   H566      1.0  0.29569  0.31943  0.84444  1.0000
  C   C314      1.0  0.17146  0.24200  0.85342  1.0000
  C   C315      1.0  0.17305  0.26386  0.84190  1.0000
  C   C316      1.0  0.16724  0.26959  0.81991  1.0000
  C   C317      1.0  0.16024  0.25336  0.80932  1.0000
  C   C318      1.0  0.15925  0.23141  0.82071  1.0000
  C   C319      1.0  0.16447  0.22583  0.84284  1.0000
  H   H567      1.0  0.17822  0.27647  0.85016  1.0000
  H   H568      1.0  0.16816  0.28659  0.81114  1.0000
  H   H569      1.0  0.15465  0.21858  0.81246  1.0000
  H   H570      1.0  0.16308  0.20896  0.85177  1.0000
  H   H571      1.0  0.49770  0.15900  0.84837  1.0000
  C   C320      1.0  0.38402  0.30793  0.80915  1.0000
  H   H572      1.0  0.00833  0.27400  0.83449  1.0000
  H   H573      1.0  0.27014  0.23819  0.95703  1.0000
  S   S84       1.0  0.39497  0.26356  0.80390  1.0000
  H   H574      1.0  0.21052  0.48169  0.84562  1.0000
  H   H575      1.0  0.20363  0.48495  0.81724  1.0000
  S   S85       1.0  0.41904  0.20405  0.79514  1.0000
  C   C321      1.0  0.10992  0.26936  0.86169  1.0000
  C   C322      1.0  0.03475  0.21363  0.75827  1.0000
  C   C323      1.0  0.20449  0.10823  0.78063  1.0000
  C   C324      1.0  0.18770  0.12203  0.79310  1.0000
  C   C325      1.0  0.16940  0.13476  0.78303  1.0000
  C   C326      1.0  0.21296  0.02695  0.75511  1.0000
  C   C327      1.0  0.49514  0.23321  0.74939  1.0000
  H   H576      1.0  0.21868  0.09872  0.78856  1.0000
  H   H577      1.0  0.18903  0.12301  0.81052  1.0000
  H   H578      1.0  0.09729  0.18684  0.84406  1.0000
  C   C328      1.0  0.45875  0.25132  0.80505  1.0000
  C   C329      1.0  0.26327  0.11466  0.84808  1.0000
  C   C330      1.0  0.28289  0.12269  0.83580  1.0000
  C   C331      1.0  0.28966  0.14241  0.84066  1.0000
  C   C332      1.0  0.27623  0.15479  0.85695  1.0000
  C   C333      1.0  0.25662  0.14676  0.86928  1.0000
  C   C334      1.0  0.25048  0.12640  0.86522  1.0000
  H   H579      1.0  0.29301  0.11351  0.82283  1.0000
  H   H580      1.0  0.30523  0.14823  0.83159  1.0000
  H   H581      1.0  0.24630  0.15608  0.88206  1.0000
  H   H582      1.0  0.23546  0.12002  0.87494  1.0000
  H   H583      1.0  0.23319  0.47965  0.82219  1.0000
  H   H584      1.0  0.29939  0.09085  0.89941  1.0000
  H   H585      1.0  0.49762  0.20355  0.81584  1.0000
  C   C335      1.0  0.40041  0.09438  0.76921  1.0000
  N   N17       1.0  0.22619  0.41582  0.80815  1.0000
  C   C336      1.0  0.21127  0.40368  0.82731  1.0000
  C   C337      1.0  0.22133  0.44127  0.80817  1.0000
  C   C338      1.0  0.25126  0.40746  0.80874  1.0000
  C   C339      1.0  0.26073  0.40824  0.83089  1.0000
  C   C340      1.0  0.21465  0.37737  0.82911  1.0000
  C   C341      1.0  0.21507  0.45009  0.83142  1.0000
  C   C342      1.0  0.36499  0.06125  0.79224  1.0000
  C   C343      1.0  0.28525  0.39603  0.83030  1.0000
  C   C344      1.0  0.09607  0.28698  0.81088  1.0000
  H   H586      1.0  0.19290  0.40989  0.82589  1.0000
  H   H587      1.0  0.21384  0.40764  0.84390  1.0000
  H   H588      1.0  0.23610  0.44951  0.79864  1.0000
  H   H589      1.0  0.20657  0.44870  0.79891  1.0000
  H   H590      1.0  0.25546  0.38979  0.80457  1.0000
  H   H591      1.0  0.26168  0.41775  0.79536  1.0000
  H   H592      1.0  0.25044  0.39997  0.84589  1.0000
  H   H593      1.0  0.26128  0.42609  0.83291  1.0000
  H   H594      1.0  0.23275  0.37009  0.83025  1.0000
  H   H595      1.0  0.49150  0.29080  0.76308  1.0000
  H   H596      1.0  0.19745  0.44690  0.83890  1.0000
  H   H597      1.0  0.22675  0.44172  0.84360  1.0000
  H   H598      1.0  0.37477  0.02368  0.77078  1.0000
  H   H599      1.0  0.44311  0.32152  0.79102  1.0000
  C   C345      1.0  0.48099  0.30785  0.76216  1.0000
  H   H600      1.0  0.29175  0.39695  0.84626  1.0000
  H   H601      1.0  0.28590  0.37786  0.82857  1.0000
  H   H602      1.0  0.29668  0.40408  0.81600  1.0000
  C   C346      1.0  0.20069  0.02382  0.79584  1.0000
  H   H603      1.0  0.20298  0.34807  0.85080  1.0000
  N   N18       1.0  0.22062  0.19280  0.79206  1.0000
  C   C347      1.0  0.21114  0.17978  0.77718  1.0000
  C   C348      1.0  0.20926  0.18741  0.81603  1.0000
  C   C349      1.0  0.21383  0.21783  0.78473  1.0000
  C   C350      1.0  0.24640  0.18816  0.79050  1.0000
  C   C351      1.0  0.25827  0.16422  0.78587  1.0000
  C   C352      1.0  0.22061  0.23424  0.79913  1.0000
  C   C353      1.0  0.21424  0.16268  0.82749  1.0000
  C   C354      1.0  0.19825  0.15864  0.84969  1.0000
  C   C355      1.0  0.28416  0.16290  0.78432  1.0000
  C   C356      1.0  0.21937  0.25846  0.78672  1.0000
  H   H604      1.0  0.19208  0.18188  0.78075  1.0000
  H   H605      1.0  0.21633  0.16124  0.78116  1.0000
  H   H606      1.0  0.21437  0.19788  0.82742  1.0000
  H   H607      1.0  0.19037  0.19175  0.81667  1.0000
  H   H608      1.0  0.19501  0.22172  0.78440  1.0000
  H   H609      1.0  0.22183  0.22273  0.76711  1.0000
  H   H610      1.0  0.25446  0.20024  0.77679  1.0000
  H   H611      1.0  0.25185  0.19135  0.80636  1.0000
  H   H612      1.0  0.25491  0.16020  0.76958  1.0000
  H   H613      1.0  0.25256  0.15081  0.79934  1.0000
  H   H614      1.0  0.23825  0.22907  0.80330  1.0000
  H   H615      1.0  0.20884  0.23464  0.81524  1.0000
  H   H616      1.0  0.21198  0.15018  0.81682  1.0000
  H   H617      1.0  0.23202  0.15937  0.83147  1.0000
  H   H618      1.0  0.20196  0.14074  0.85751  1.0000
  H   H619      1.0  0.20068  0.16993  0.86169  1.0000
  H   H620      1.0  0.18011  0.16176  0.84658  1.0000
  H   H621      1.0  0.28888  0.16775  0.79966  1.0000
  H   H622      1.0  0.29229  0.14534  0.78237  1.0000
  H   H623      1.0  0.29087  0.17452  0.76957  1.0000
  H   H624      1.0  0.22304  0.26999  0.79787  1.0000
  H   H625      1.0  0.23209  0.25915  0.77127  1.0000
  H   H626      1.0  0.20213  0.26454  0.78176  1.0000
  H   H627      1.0  0.00202  0.17536  0.78295  1.0000
  H   H628      1.0  0.44241  0.00963  0.79254  1.0000
  C   C357      1.0  0.30294  0.28019  0.77133  1.0000
  H   H629      1.0  0.05122  0.26051  0.82201  1.0000
  C   C358      1.0  0.33514  0.12206  0.78240  1.0000
  N   N19       1.0  0.20018  0.01330  0.77493  1.0000
  H   H630      1.0  0.27451  0.11821  0.92095  1.0000
  H   H631      1.0  0.43285  0.05134  0.75707  1.0000
  H   H632      1.0  0.08774  0.29870  0.82307  1.0000
  H   H633      1.0  0.20936  0.37184  0.81434  1.0000
  H   H634      1.0  0.41061  0.05288  0.79651  1.0000
  H   H635      1.0  0.21860  0.02192  0.79962  1.0000
  C   C359      1.0  0.13520  0.00579  0.78359  1.0000
  C   C360      1.0  0.31045  0.10435  0.89337  1.0000
  H   H636      1.0  0.23101  0.02664  0.75791  1.0000
  C   C361      1.0  0.30087  0.16947  0.95946  1.0000
  H   H637      1.0  0.31787  0.10702  0.92625  1.0000
  H   H638      1.0  0.17624  0.99979  0.75935  1.0000
  S   S86       1.0  0.10496  0.18724  0.75649  1.0000
  C   C362      1.0  0.31116  0.24567  0.75317  1.0000
  C   C363      1.0  0.33876  0.12506  0.75882  1.0000
  C   C364      1.0  0.41041  0.11209  0.75092  1.0000
  H   H639      1.0  0.33772  0.05960  0.83452  1.0000
  S   S87       1.0  0.37573  0.16302  0.79800  1.0000
  H   H640      1.0  0.40701  0.36253  0.77213  1.0000
  H   H641      1.0  0.20124  0.41462  0.78624  1.0000
  H   H642      1.0  0.42688  0.38253  0.76915  1.0000
  H   H643      1.0  0.30689  0.11793  0.96172  1.0000
  H   H644      1.0  0.26875  0.26492  0.75574  1.0000
  H   H645      1.0  0.16235  0.99596  0.80383  1.0000
  H   H646      1.0  0.34165  0.05614  0.76041  1.0000
  H   H647      1.0  0.21813  0.25608  0.96708  1.0000
  H   H648      1.0  0.21728  0.15059  0.97328  1.0000
  H   H649      1.0  0.23864  0.13906  0.92594  1.0000
  N   N20       1.0  0.07875  0.25721  0.84218  1.0000
  C   C365      1.0  0.07900  0.23190  0.84859  1.0000
  H   H650      1.0  0.19138  0.01469  0.81097  1.0000
  C   C366      1.0  0.45150  0.28281  0.77253  1.0000
  C   C367      1.0  0.50063  0.21160  0.76109  1.0000
  Fe  Fe44      1.0  0.39590  0.18956  0.77741  1.0000
  C   C368      1.0  0.10135  0.21809  0.85603  1.0000
  H   H651      1.0  0.21300  0.16836  0.94689  1.0000
  H   H652      1.0  0.07746  0.25847  0.87787  1.0000
  H   H653      1.0  0.29316  0.24806  0.98389  1.0000
  H   H654      1.0  0.28340  0.10558  0.95717  1.0000
  C   C369      1.0  0.10001  0.19263  0.85983  1.0000
  H   H655      1.0  0.07463  0.22444  0.83437  1.0000
  H   H656      1.0  0.06572  0.22812  0.86317  1.0000
  H   H657      1.0  0.13235  0.27602  0.88390  1.0000
  H   H658      1.0  0.07519  0.28543  0.86140  1.0000
  H   H659      1.0  0.42433  0.02382  0.75776  1.0000
  H   H660      1.0  0.11431  0.28976  0.80721  1.0000
  H   H661      1.0  0.48387  0.16695  0.82334  1.0000
  H   H662      1.0  0.47428  0.18221  0.84717  1.0000
  C   C370      1.0  0.44257  0.34851  0.76339  1.0000
  Fe  Fe45      1.0  0.27852  0.36202  0.76142  1.0000
  H   H663      1.0  0.11635  0.22094  0.84324  1.0000
  H   H664      1.0  0.10429  0.22270  0.87226  1.0000
  C   C371      1.0  0.09485  0.26158  0.82056  1.0000
  H   H665      1.0  0.42456  0.36166  0.79404  1.0000
  C   C372      1.0  0.40532  0.04299  0.78478  1.0000
  C   C373      1.0  0.05500  0.26720  0.83696  1.0000
  H   H666      1.0  0.28200  0.14435  0.90578  1.0000
  C   C374      1.0  0.08424  0.26778  0.86136  1.0000
  C   C375      1.0  0.34872  0.07332  0.83082  1.0000
  H   H667      1.0  0.24347  0.12192  0.95236  1.0000
  H   H668      1.0  0.28116  0.47312  0.79197  1.0000
  H   H669      1.0  0.29727  0.17069  0.92409  1.0000
  H   H670      1.0  0.37975  0.05110  0.82397  1.0000
  N   N21       1.0  0.35157  0.21586  0.86084  1.0000
  C   C376      1.0  0.33362  0.22228  0.84523  1.0000
  C   C377      1.0  0.34063  0.22042  0.88425  1.0000
  C   C378      1.0  0.37086  0.22965  0.85203  1.0000
  C   C379      1.0  0.36126  0.19099  0.86197  1.0000
  C   C380      1.0  0.34366  0.17422  0.86410  1.0000
  C   C381      1.0  0.34173  0.21765  0.82054  1.0000
  H   H671      1.0  0.09038  0.25286  0.80728  1.0000
  C   C382      1.0  0.33120  0.24562  0.88668  1.0000
  C   C383      1.0  0.32452  0.24915  0.91146  1.0000
  C   C384      1.0  0.35539  0.14967  0.86572  1.0000
  C   C385      1.0  0.32157  0.21593  0.80862  1.0000
  H   H672      1.0  0.32717  0.24074  0.84405  1.0000
  H   H673      1.0  0.31823  0.21388  0.85232  1.0000
  H   H674      1.0  0.32597  0.21069  0.89006  1.0000
  H   H675      1.0  0.35274  0.21400  0.89673  1.0000
  H   H676      1.0  0.36422  0.24788  0.84741  1.0000
  H   H677      1.0  0.38009  0.22432  0.83580  1.0000
  H   H678      1.0  0.37413  0.18779  0.84691  1.0000
  H   H679      1.0  0.37100  0.18560  0.87656  1.0000
  H   H680      1.0  0.33475  0.17722  0.84897  1.0000
  H   H681      1.0  0.33073  0.17595  0.87929  1.0000
  H   H682      1.0  0.35091  0.23165  0.81112  1.0000
  H   H683      1.0  0.35364  0.20173  0.81947  1.0000
  H   H684      1.0  0.41765  0.23346  0.84154  1.0000
  H   H685      1.0  0.26426  0.30632  0.75739  1.0000
  H   H686      1.0  0.34388  0.25718  0.87914  1.0000
  H   H687      1.0  0.31568  0.25103  0.87823  1.0000
  H   H688      1.0  0.31112  0.23870  0.91987  1.0000
  H   H689      1.0  0.33965  0.24478  0.92062  1.0000
  H   H690      1.0  0.31750  0.26724  0.91245  1.0000
  H   H691      1.0  0.36863  0.14733  0.85080  1.0000
  H   H692      1.0  0.36343  0.14485  0.88141  1.0000
  H   H693      1.0  0.34252  0.13826  0.86584  1.0000
  C   C386      1.0  0.38536  0.29195  0.79444  1.0000
  H   H694      1.0  0.30943  0.23194  0.80825  1.0000
  H   H695      1.0  0.32804  0.21242  0.79111  1.0000
  C   C387      1.0  0.32573  0.27801  0.78098  1.0000
  C   C388      1.0  0.32202  0.28544  0.80441  1.0000
  H   H696      1.0  0.33475  0.26046  0.78247  1.0000
  Fe  Fe46      1.0  0.44350  0.20421  0.76296  1.0000
  H   H697      1.0  0.33837  0.28178  0.81164  1.0000
  H   H698      1.0  0.31640  0.30399  0.80310  1.0000
  H   H699      1.0  0.30911  0.27633  0.81609  1.0000
  C   C389      1.0  0.42414  0.36472  0.77551  1.0000
  H   H700      1.0  0.34370  0.13146  0.81261  1.0000
  H   H701      1.0  0.42150  0.23938  0.86884  1.0000
  H   H702      1.0  0.23282  0.29402  0.74439  1.0000
  H   H703      1.0  0.40264  0.25904  0.85219  1.0000
  Fe  Fe47      1.0  0.40311  0.23789  0.77975  1.0000
  H   H704      1.0  0.38139  0.23556  0.88364  1.0000
  H   H705      1.0  0.25793  0.16863  0.93223  1.0000
  H   H706      1.0  0.18179  0.37302  0.84975  1.0000
  S   S88       1.0  0.35814  0.36628  0.77398  1.0000
  H   H707      1.0  0.32258  0.13116  0.90520  1.0000
  H   H708      1.0  0.20545  0.37092  0.86570  1.0000
  H   H709      1.0  0.27734  0.14164  0.98950  1.0000
  C   C390      1.0  0.40889  0.24078  0.85691  1.0000
  C   C391      1.0  0.30043  0.15743  0.93882  1.0000
  H   H710      1.0  0.10989  0.26016  0.89801  1.0000
  H   H711      1.0  0.33884  0.08908  0.82331  1.0000
  H   H712      1.0  0.25604  0.16013  0.96146  1.0000
  C   C392      1.0  0.38901  0.22803  0.86810  1.0000
  H   H713      1.0  0.06772  0.29101  0.79108  1.0000
  H   H714      1.0  0.35327  0.07647  0.84701  1.0000
  C   C393      1.0  0.35239  0.14122  0.74714  1.0000
  H   H715      1.0  0.31824  0.14902  0.93485  1.0000
  H   H716      1.0  0.25710  0.12426  0.98577  1.0000
  H   H717      1.0  0.08666  0.31227  0.78290  1.0000
  C   C394      1.0  0.24012  0.13962  0.94392  1.0000
  C   C395      1.0  0.19110  0.04945  0.79479  1.0000
  C   C396      1.0  0.26891  0.22973  0.97426  1.0000
  H   H718      1.0  0.47467  0.24313  0.79572  1.0000
  H   H719      1.0  0.35289  0.07582  0.78549  1.0000
  C   C397      1.0  0.37002  0.32165  0.76658  1.0000
  H   H720      1.0  0.30400  0.11525  0.87856  1.0000
  H   H721      1.0  0.17004  0.02947  0.75998  1.0000
  C   C398      1.0  0.36037  0.14983  0.78268  1.0000
  H   H722      1.0  0.03859  0.26706  0.87245  1.0000
  C   C399      1.0  0.20027  0.36683  0.85017  1.0000
  H   H723      1.0  0.44087  0.35201  0.74515  1.0000
  H   H724      1.0  0.08586  0.18850  0.87342  1.0000
  C   C400      1.0  0.22011  0.41081  0.78631  1.0000
  H   H725      1.0  0.00524  0.24144  0.80091  1.0000
  H   H726      1.0  0.05200  0.20704  0.75161  1.0000
  H   H727      1.0  0.29663  0.29860  0.76957  1.0000
  H   H728      1.0  0.43342  0.28062  0.77266  1.0000
  H   H729      1.0  0.35485  0.04679  0.79713  1.0000
  H   H730      1.0  0.22476  0.39248  0.78469  1.0000
  H   H731      1.0  0.11635  0.18320  0.86493  1.0000
  H   H732      1.0  0.32417  0.11003  0.79139  1.0000
  H   H733      1.0  0.20404  0.05973  0.78491  1.0000
  C   C401      1.0  0.11401  0.27433  0.88456  1.0000
  N   N22       1.0  0.28360  0.14065  0.94172  1.0000
  H   H734      1.0  0.33680  0.28947  0.76990  1.0000
  C   C402      1.0  0.03496  0.26310  0.85621  1.0000
  H   H735      1.0  0.12124  0.25363  0.85806  1.0000
  C   C403      1.0  0.37883  0.29883  0.77295  1.0000
  C   C404      1.0  0.36851  0.33758  0.78148  1.0000
  S   S89       1.0  0.37775  0.22352  0.76474  1.0000
  C   C405      1.0  0.34604  0.13430  0.79433  1.0000
  C   C406      1.0  0.00625  0.13404  0.85216  1.0000
  H   H736      1.0  0.42219  0.32082  0.77389  1.0000
  H   H737      1.0  0.17220  0.04763  0.82889  1.0000
  C   C407      1.0  0.20018  0.26078  0.97482  1.0000
  C   C408      1.0  0.28653  0.13078  0.91980  1.0000
  H   H738      1.0  0.47091  0.28337  0.80093  1.0000
  C   C409      1.0  0.45561  0.27696  0.79766  1.0000
  H   H739      1.0  0.11254  0.25365  0.82253  1.0000
  H   H740      1.0  0.44057  0.28466  0.80862  1.0000
  H   H741      1.0  0.17544  0.05382  0.78648  1.0000
  H   H742      1.0  0.31242  0.20165  0.81741  1.0000
  H   H743      1.0  0.22870  0.44221  0.76395  1.0000
  H   H744      1.0  0.20133  0.05358  0.82673  1.0000
  C   C410      1.0  0.21705  0.15059  0.95496  1.0000
  H   H745      1.0  0.45934  0.35253  0.76596  1.0000
  C   C411      1.0  0.31547  0.18871  0.95313  1.0000
  C   C412      1.0  0.16735  0.13293  0.76072  1.0000
  H   H746      1.0  0.32805  0.09620  0.88788  1.0000
  C   C413      1.0  0.20260  0.10642  0.75828  1.0000
  C   C414      1.0  0.31077  0.11852  0.91209  1.0000
  H   H747      1.0  0.38007  0.28653  0.76146  1.0000
  H   H748      1.0  0.38120  0.08030  0.81234  1.0000
  H   H749      1.0  0.30849  0.15724  0.97291  1.0000
  H   H750      1.0  0.45997  0.24766  0.82341  1.0000
  H   H751      1.0  0.49929  0.20904  0.85598  1.0000
  H   H752      1.0  0.11567  0.28325  0.84875  1.0000
  C   C415      1.0  0.08584  0.29398  0.78879  1.0000
  C   C416      1.0  0.37780  0.04012  0.76013  1.0000
  Fe  Fe48      1.0  0.32780  0.37077  0.75555  1.0000
  H   H753      1.0  0.28361  0.17697  0.96642  1.0000
  H   H754      1.0  0.36466  0.32700  0.75009  1.0000
  H   H755      1.0  0.12177  0.00433  0.79853  1.0000
  C   C417      1.0  0.17618  0.01316  0.77015  1.0000
  H   H756      1.0  0.17940  0.07529  0.81681  1.0000
  C   C418      1.0  0.00269  0.15438  0.75740  1.0000
  N   N23       1.0  0.38494  0.05572  0.77415  1.0000
  H   H757      1.0  0.33326  0.18228  0.94622  1.0000
  C   C419      1.0  0.25415  0.21345  0.98150  1.0000
  H   H758      1.0  0.00599  0.14513  0.79228  1.0000
  C   C420      1.0  0.27808  0.47683  0.77454  1.0000
  H   H759      1.0  0.30788  0.20194  0.94045  1.0000
  C   C421      1.0  0.36307  0.15373  0.75905  1.0000
  S   S90       1.0  0.42161  0.18647  0.74620  1.0000
  C   C422      1.0  0.28819  0.12165  0.96072  1.0000
  C   C423      1.0  0.25967  0.15331  0.94513  1.0000
  H   H760      1.0  0.28589  0.44178  0.76869  1.0000
  H   H761      1.0  0.25049  0.41809  0.76199  1.0000
  S   S91       1.0  0.10786  0.24241  0.75024  1.0000
  H   H762      1.0  0.40049  0.02718  0.79550  1.0000
  C   C424      1.0  0.28191  0.23529  0.98949  1.0000
  H   H763      1.0  0.15315  0.02569  0.79912  1.0000
  C   C425      1.0  0.28069  0.45902  0.76143  1.0000
  C   C426      1.0  0.48958  0.17357  0.83732  1.0000
  H   H764      1.0  0.30032  0.23792  0.76823  1.0000
  C   C427      1.0  0.21564  0.47565  0.82889  1.0000
  H   H765      1.0  0.20333  0.14095  0.95300  1.0000
  C   C428      1.0  0.21752  0.18656  0.75137  1.0000
  H   H766      1.0  0.31784  0.19925  0.75272  1.0000
  H   H767      1.0  0.37507  0.08633  0.75186  1.0000
  C   C429      1.0  0.42720  0.03626  0.76829  1.0000
  S   S92       1.0  0.28739  0.06276  0.74792  1.0000
  N   N24       1.0  0.45624  0.30599  0.76085  1.0000
  C   C430      1.0  0.39063  0.07689  0.75868  1.0000
  H   H768      1.0  0.32885  0.24157  0.75730  1.0000
  H   H769      1.0  0.41424  0.08651  0.77926  1.0000
  H   H770      1.0  0.20700  0.20279  0.74578  1.0000
  C   C431      1.0  0.01272  0.27774  0.85056  1.0000
  H   H771      1.0  0.34272  0.01735  0.75172  1.0000
  C   C432      1.0  0.18373  0.11835  0.74851  1.0000
  H   H772      1.0  0.20535  0.04510  0.75349  1.0000
  C   C433      1.0  0.44029  0.32352  0.77305  1.0000
  H   H773      1.0  0.15301  0.14252  0.75299  1.0000
  C   C434      1.0  0.15727  0.01011  0.79083  1.0000
  H   H774      1.0  0.01433  0.29604  0.84893  1.0000
  H   H775      1.0  0.02170  0.13868  0.85732  1.0000
  H   H776      1.0  0.41489  0.12585  0.75892  1.0000
  S   S93       1.0  0.31183  0.34104  0.75142  1.0000
  N   N25       1.0  0.30403  0.27095  0.74930  1.0000
  H   H777      1.0  0.27536  0.01215  0.74608  1.0000
  C   C435      1.0  0.35621  0.04943  0.74845  1.0000
  H   H778      1.0  0.12895  0.02002  0.77102  1.0000
  H   H779      1.0  0.02132  0.15471  0.75213  1.0000
  S   S94       1.0  0.42911  0.23935  0.74873  1.0000
  C   C436      1.0  0.44697  0.02515  0.78125  1.0000
  H   H780      1.0  0.37398  0.16583  0.74995  1.0000
  H   H781      1.0  0.23581  0.18886  0.74690  1.0000
  H   H782      1.0  0.46233  0.02024  0.76913  1.0000
  H   H783      1.0  0.01168  0.11952  0.84237  1.0000
  H   H784      1.0  0.31594  0.19663  0.96839  1.0000
  C   C437      1.0  0.27565  0.12508  0.98477  1.0000
  H   H785      1.0  0.32725  0.48196  0.78163  1.0000
  H   H786      1.0  0.39158  0.03588  0.74620  1.0000
  H   H787      1.0  0.40256  0.07240  0.74345  1.0000
  H   H788      1.0  0.47885  0.23779  0.74320  1.0000
  C   C438      1.0  0.33732  0.49376  0.76956  1.0000
  H   H789      1.0  0.35254  0.26890  0.74365  1.0000
  S   S95       1.0  0.32767  0.10766  0.74382  1.0000
  H   H790      1.0  0.34090  0.47300  0.74329  1.0000
  H   H791      1.0  0.35548  0.48980  0.77249  1.0000
  C   C439      1.0  0.33501  0.49106  0.74538  1.0000
  C   C440      1.0  0.28008  0.27503  0.74306  1.0000
  H   H792      1.0  0.20425  0.42484  0.74412  1.0000
  H   H793      1.0  0.31669  0.49509  0.74368  1.0000
  C   C441      1.0  0.22278  0.41841  0.74356  1.0000
  H   H794      1.0  0.22270  0.15212  0.74279  1.0000
  H   H795      1.0  0.22552  0.39986  0.74284  1.0000
  S   S96       1.0  0.22403  0.08950  0.74261  1.0000
  S   S97       1.0  0.41941  0.72839  0.22621  1.0000
  H   H796      1.0  0.21738  0.89225  0.16036  1.0000
  C   C442      1.0  0.18355  0.73003  0.01078  1.0000
  H   H797      1.0  0.20849  0.88728  0.20307  1.0000
  H   H798      1.0  0.36512  0.60890  0.19185  1.0000
  H   H799      1.0  0.40711  0.66586  0.17384  1.0000
  S   S98       1.0  0.25024  0.85778  0.19500  1.0000
  C   C443      1.0  0.19297  0.77676  0.20664  1.0000
  Fe  Fe49      1.0  0.26595  0.74657  0.14268  1.0000
  S   S99       1.0  0.24032  0.76605  0.12108  1.0000
  S   S100      1.0  0.28011  0.75785  0.17089  1.0000
  Fe  Fe50      1.0  0.26653  0.70311  0.12343  1.0000
  S   S101      1.0  0.24043  0.71857  0.10043  1.0000
  S   S102      1.0  0.28431  0.66750  0.12183  1.0000
  Fe  Fe51      1.0  0.26034  0.74797  0.09271  1.0000
  S   S103      1.0  0.26434  0.76791  0.05748  1.0000
  Fe  Fe52      1.0  0.22256  0.73524  0.13026  1.0000
  S   S104      1.0  0.18453  0.74165  0.13978  1.0000
  S   S105      1.0  0.28803  0.73136  0.11357  1.0000
  S   S106      1.0  0.24665  0.71688  0.15406  1.0000
  H   H800      1.0  0.17719  0.77538  0.19976  1.0000
  H   H801      1.0  0.20552  0.78358  0.19263  1.0000
  C   C444      1.0  0.17813  0.84066  0.18303  1.0000
  S   S107      1.0  0.26912  0.58480  0.19842  1.0000
  H   H802      1.0  0.16104  0.74446  0.09207  1.0000
  H   H803      1.0  0.01515  0.67796  0.19311  1.0000
  H   H804      1.0  0.32502  0.91446  0.23248  1.0000
  H   H805      1.0  0.34716  0.71155  0.23047  1.0000
  H   H806      1.0  0.24050  0.72667  0.01757  1.0000
  H   H807      1.0  0.35313  0.60262  0.16819  1.0000
  C   C445      1.0  0.17499  0.73336  0.08303  1.0000
  C   C446      1.0  0.27826  0.64541  0.14367  1.0000
  C   C447      1.0  0.26977  0.64926  0.16594  1.0000
  C   C448      1.0  0.26779  0.63074  0.18325  1.0000
  C   C449      1.0  0.27307  0.60851  0.17800  1.0000
  C   C450      1.0  0.28090  0.60485  0.15569  1.0000
  C   C451      1.0  0.28394  0.62318  0.13871  1.0000
  H   H808      1.0  0.26540  0.66643  0.16987  1.0000
  H   H809      1.0  0.26189  0.63355  0.20052  1.0000
  H   H810      1.0  0.28488  0.58771  0.15154  1.0000
  H   H811      1.0  0.29054  0.62010  0.12158  1.0000
  C   C452      1.0  0.17575  0.72712  0.16637  1.0000
  C   C453      1.0  0.18665  0.70542  0.17349  1.0000
  C   C454      1.0  0.17849  0.69349  0.19431  1.0000
  C   C455      1.0  0.15984  0.70351  0.20820  1.0000
  C   C456      1.0  0.14950  0.72548  0.20139  1.0000
  C   C457      1.0  0.15718  0.73711  0.18032  1.0000
  H   H812      1.0  0.20088  0.69758  0.16263  1.0000
  H   H813      1.0  0.18657  0.67651  0.19952  1.0000
  H   H814      1.0  0.36887  0.64541  0.10188  1.0000
  H   H815      1.0  0.14882  0.75394  0.17488  1.0000
  C   C458      1.0  0.26862  0.76701  0.01185  1.0000
  C   C459      1.0  0.27198  0.75438  0.03294  1.0000
  C   C460      1.0  0.28119  0.73147  0.03396  1.0000
  C   C461      1.0  0.28684  0.72131  0.01401  1.0000
  H   H816      1.0  0.26213  0.78488  0.01093  1.0000
  H   H817      1.0  0.28413  0.72164  0.05008  1.0000
  H   H818      1.0  0.29412  0.70362  0.01494  1.0000
  C   C462      1.0  0.24560  0.68179  0.00358  1.0000
  C   C463      1.0  0.24566  0.68993  0.24129  1.0000
  H   H819      1.0  0.10197  0.89415  0.17290  1.0000
  C   C464      1.0  0.25692  0.82949  0.18938  1.0000
  C   C465      1.0  0.26847  0.81275  0.20387  1.0000
  C   C466      1.0  0.27503  0.79073  0.19817  1.0000
  C   C467      1.0  0.26991  0.78519  0.17812  1.0000
  C   C468      1.0  0.25785  0.80174  0.16386  1.0000
  C   C469      1.0  0.25155  0.82389  0.16940  1.0000
  H   H820      1.0  0.27321  0.81694  0.21900  1.0000
  H   H821      1.0  0.28460  0.77811  0.20906  1.0000
  H   H822      1.0  0.25404  0.79772  0.14822  1.0000
  H   H823      1.0  0.24296  0.83683  0.15791  1.0000
  C   C470      1.0  0.18818  0.86344  0.17803  1.0000
  N   N26       1.0  0.17729  0.88195  0.19219  1.0000
  H   H824      1.0  0.32448  0.83850  0.14507  1.0000
  H   H825      1.0  0.26276  0.68653  0.00365  1.0000
  H   H826      1.0  0.11132  0.91507  0.18616  1.0000
  H   H827      1.0  0.18826  0.86996  0.15973  1.0000
  C   C471      1.0  0.20654  0.75990  0.01457  1.0000
  H   H828      1.0  0.30715  0.84400  0.17144  1.0000
  H   H829      1.0  0.40461  0.63906  0.19175  1.0000
  H   H830      1.0  0.16882  0.90162  0.23394  1.0000
  H   H831      1.0  0.33223  0.80617  0.22402  1.0000
  H   H832      1.0  0.36926  0.73866  0.20458  1.0000
  H   H833      1.0  0.10859  0.71754  0.17240  1.0000
  C   C472      1.0  0.22555  0.75442  0.22657  1.0000
  H   H834      1.0  0.24962  0.65418  0.23781  1.0000
  C   C473      1.0  0.15783  0.89670  0.18169  1.0000
  C   C474      1.0  0.22591  0.92050  0.17299  1.0000
  H   H835      1.0  0.33652  0.77182  0.20416  1.0000
  C   C475      1.0  0.40621  0.64757  0.17397  1.0000
  C   C476      1.0  0.22755  0.69513  0.01914  1.0000
  H   H836      1.0  0.07190  0.71107  0.21399  1.0000
  H   H837      1.0  0.17832  0.81046  0.16762  1.0000
  H   H838      1.0  0.33458  0.59276  0.21852  1.0000
  C   C477      1.0  0.38594  0.64453  0.16280  1.0000
  H   H839      1.0  0.08775  0.75606  0.16773  1.0000
  S   S108      1.0  0.48026  0.73412  0.23993  1.0000
  H   H840      1.0  0.33861  0.64815  0.09969  1.0000
  N   N27       1.0  0.20397  0.73501  0.02008  1.0000
  C   C478      1.0  0.20853  0.62375  0.21085  1.0000
  H   H841      1.0  0.29253  0.97981  0.24103  1.0000
  C   C479      1.0  0.20044  0.72939  0.04557  1.0000
  H   H842      1.0  0.04456  0.67002  0.21813  1.0000
  C   C480      1.0  0.18867  0.62545  0.23014  1.0000
  H   H843      1.0  0.18846  0.78860  0.21940  1.0000
  C   C481      1.0  0.18000  0.74375  0.05833  1.0000
  H   H844      1.0  0.21824  0.71115  0.22640  1.0000
  C   C482      1.0  0.33608  0.80933  0.23995  1.0000
  H   H845      1.0  0.18769  0.91182  0.20137  1.0000
  C   C483      1.0  0.33851  0.72847  0.22386  1.0000
  H   H846      1.0  0.22255  0.63231  0.21401  1.0000
  C   C484      1.0  0.19525  0.89678  0.19285  1.0000
  H   H847      1.0  0.19075  0.77052  0.02134  1.0000
  C   C485      1.0  0.22603  0.72112  0.01152  1.0000
  H   H848      1.0  0.21613  0.73121  0.05260  1.0000
  H   H849      1.0  0.19779  0.71134  0.05065  1.0000
  H   H850      1.0  0.03655  0.65520  0.18456  1.0000
  H   H851      1.0  0.16990  0.74497  0.01091  1.0000
  H   H852      1.0  0.19615  0.91711  0.15899  1.0000
  H   H853      1.0  0.26955  0.73706  0.22887  1.0000
  H   H854      1.0  0.32142  0.58712  0.19540  1.0000
  H   H855      1.0  0.33798  0.74016  0.23644  1.0000
  H   H856      1.0  0.16424  0.74511  0.05044  1.0000
  H   H857      1.0  0.18408  0.76108  0.05835  1.0000
  H   H858      1.0  0.21527  0.60573  0.20910  1.0000
  H   H859      1.0  0.20610  0.74216  0.20413  1.0000
  H   H860      1.0  0.02946  0.73091  0.21967  1.0000
  H   H861      1.0  0.35043  0.89494  0.23769  1.0000
  S   S109      1.0  0.37148  0.77547  0.23442  1.0000
  S   S110      1.0  0.27248  0.88923  0.23911  1.0000
  H   H862      1.0  0.13047  0.87619  0.19775  1.0000
  H   H863      1.0  0.17555  0.71607  0.02200  1.0000
  H   H864      1.0  0.13520  0.73335  0.21205  1.0000
  H   H865      1.0  0.42241  0.63984  0.16472  1.0000
  C   C486      1.0  0.03333  0.67364  0.18588  1.0000
  H   H866      1.0  0.38597  0.62614  0.16332  1.0000
  N   N28       1.0  0.35228  0.77170  0.16940  1.0000
  C   C487      1.0  0.37296  0.77970  0.17523  1.0000
  C   C488      1.0  0.33972  0.76044  0.19087  1.0000
  C   C489      1.0  0.36021  0.75540  0.15236  1.0000
  C   C490      1.0  0.33629  0.79126  0.15926  1.0000
  C   C491      1.0  0.32876  0.81135  0.17316  1.0000
  C   C492      1.0  0.38682  0.79404  0.15586  1.0000
  C   C493      1.0  0.34122  0.74412  0.14557  1.0000
  H   H867      1.0  0.22055  0.76354  0.02304  1.0000
  H   H868      1.0  0.18505  0.86201  0.22362  1.0000
  C   C494      1.0  0.40635  0.80216  0.16449  1.0000
  C   C495      1.0  0.35151  0.72632  0.13010  1.0000
  H   H869      1.0  0.38522  0.76503  0.18149  1.0000
  H   H870      1.0  0.36800  0.78975  0.18955  1.0000
  H   H871      1.0  0.32239  0.75787  0.18826  1.0000
  H   H872      1.0  0.37374  0.74188  0.15840  1.0000
  H   H873      1.0  0.36850  0.76424  0.13633  1.0000
  H   H874      1.0  0.34379  0.79798  0.14192  1.0000
  H   H875      1.0  0.32020  0.78536  0.15701  1.0000
  H   H876      1.0  0.34354  0.81844  0.17682  1.0000
  H   H877      1.0  0.20486  0.82215  0.16118  1.0000
  H   H878      1.0  0.39454  0.78388  0.14211  1.0000
  H   H879      1.0  0.37596  0.80930  0.14867  1.0000
  H   H880      1.0  0.32930  0.75694  0.13631  1.0000
  H   H881      1.0  0.33113  0.73560  0.16050  1.0000
  C   C496      1.0  0.09103  0.66735  0.22807  1.0000
  S   S111      1.0  0.14831  0.68794  0.23321  1.0000
  C   C497      1.0  0.31410  0.83074  0.16037  1.0000
  H   H882      1.0  0.29950  0.82454  0.15520  1.0000
  H   H883      1.0  0.10165  0.70913  0.21431  1.0000
  H   H884      1.0  0.39949  0.81303  0.17793  1.0000
  H   H885      1.0  0.41814  0.78746  0.17146  1.0000
  H   H886      1.0  0.41621  0.81224  0.15040  1.0000
  H   H887      1.0  0.36111  0.73421  0.11433  1.0000
  H   H888      1.0  0.36316  0.71271  0.13882  1.0000
  H   H889      1.0  0.33758  0.71860  0.12543  1.0000
  C   C498      1.0  0.18595  0.82649  0.16365  1.0000
  N   N29       1.0  0.09175  0.67983  0.20420  1.0000
  C   C499      1.0  0.08874  0.70510  0.20468  1.0000
  Fe  Fe53      1.0  0.27727  0.58452  0.23332  1.0000
  C   C500      1.0  0.11511  0.67324  0.19131  1.0000
  C   C501      1.0  0.07435  0.67301  0.19202  1.0000
  C   C502      1.0  0.04887  0.67960  0.20116  1.0000
  C   C503      1.0  0.09092  0.72034  0.18148  1.0000
  C   C504      1.0  0.12355  0.64742  0.19189  1.0000
  H   H890      1.0  0.35340  0.72420  0.18998  1.0000
  H   H891      1.0  0.23857  0.75776  0.21146  1.0000
  H   H892      1.0  0.18031  0.83581  0.14769  1.0000
  C   C505      1.0  0.16992  0.87187  0.21627  1.0000
  C   C506      1.0  0.14840  0.64328  0.18076  1.0000
  C   C507      1.0  0.35245  0.65704  0.10289  1.0000
  H   H893      1.0  0.38912  0.65188  0.14477  1.0000
  H   H894      1.0  0.16368  0.90336  0.16385  1.0000
  C   C508      1.0  0.23563  0.71334  0.22931  1.0000
  H   H895      1.0  0.12816  0.68082  0.19758  1.0000
  H   H896      1.0  0.11578  0.68036  0.17312  1.0000
  H   H897      1.0  0.07702  0.67990  0.17375  1.0000
  H   H898      1.0  0.07684  0.65428  0.19247  1.0000
  H   H899      1.0  0.04468  0.69802  0.20192  1.0000
  H   H900      1.0  0.14167  0.89803  0.22669  1.0000
  C   C509      1.0  0.11677  0.90284  0.17376  1.0000
  H   H901      1.0  0.07874  0.71702  0.17079  1.0000
  H   H902      1.0  0.11303  0.63958  0.18258  1.0000
  H   H903      1.0  0.12284  0.63838  0.20938  1.0000
  C   C510      1.0  0.13662  0.88528  0.18103  1.0000
  H   H904      1.0  0.16962  0.71636  0.08433  1.0000
  S   S112      1.0  0.39451  0.67415  0.22558  1.0000
  H   H905      1.0  0.31847  0.80577  0.18941  1.0000
  H   H906      1.0  0.22319  0.76980  0.23504  1.0000
  H   H907      1.0  0.15217  0.91207  0.19028  1.0000
  C   C511      1.0  0.08577  0.74543  0.18450  1.0000
  H   H908      1.0  0.21095  0.68900  0.01963  1.0000
  H   H909      1.0  0.34935  0.57267  0.20035  1.0000
  H   H910      1.0  0.15924  0.84294  0.18596  1.0000
  H   H911      1.0  0.15973  0.65018  0.19003  1.0000
  H   H912      1.0  0.15408  0.62478  0.18107  1.0000
  H   H913      1.0  0.15022  0.65149  0.16289  1.0000
  N   N30       1.0  0.34115  0.65066  0.16895  1.0000
  C   C512      1.0  0.34306  0.64514  0.14519  1.0000
  C   C513      1.0  0.33328  0.63087  0.18538  1.0000
  C   C514      1.0  0.32272  0.67085  0.17127  1.0000
  C   C515      1.0  0.36313  0.65654  0.17441  1.0000
  H   H914      1.0  0.20271  0.63218  0.19467  1.0000
  C   C516      1.0  0.34649  0.66521  0.12602  1.0000
  C   C517      1.0  0.31516  0.67734  0.19539  1.0000
  C   C518      1.0  0.34909  0.60788  0.18526  1.0000
  C   C519      1.0  0.33782  0.58903  0.20083  1.0000
  H   H915      1.0  0.19041  0.73174  0.09156  1.0000
  H   H916      1.0  0.23240  0.69104  0.03648  1.0000
  C   C520      1.0  0.29840  0.69930  0.19501  1.0000
  H   H917      1.0  0.32728  0.63856  0.14297  1.0000
  H   H918      1.0  0.35706  0.63116  0.14181  1.0000
  H   H919      1.0  0.33142  0.63443  0.20307  1.0000
  H   H920      1.0  0.31602  0.62820  0.18248  1.0000
  H   H921      1.0  0.30719  0.66811  0.16478  1.0000
  H   H922      1.0  0.32836  0.68628  0.16058  1.0000
  H   H923      1.0  0.36404  0.67506  0.16990  1.0000
  H   H924      1.0  0.36340  0.65327  0.19299  1.0000
  H   H925      1.0  0.33045  0.67736  0.12555  1.0000
  H   H926      1.0  0.36021  0.67450  0.12855  1.0000
  H   H927      1.0  0.33018  0.67991  0.20276  1.0000
  H   H928      1.0  0.30617  0.66410  0.20656  1.0000
  H   H929      1.0  0.22358  0.67028  0.22927  1.0000
  H   H930      1.0  0.29317  0.70348  0.21244  1.0000
  H   H931      1.0  0.06797  0.74956  0.19291  1.0000
  H   H932      1.0  0.09785  0.74973  0.19481  1.0000
  H   H933      1.0  0.21761  0.93520  0.18173  1.0000
  H   H934      1.0  0.18429  0.83061  0.19846  1.0000
  H   H935      1.0  0.35412  0.67184  0.08952  1.0000
  H   H936      1.0  0.28289  0.69750  0.18788  1.0000
  H   H937      1.0  0.08627  0.65013  0.22873  1.0000
  H   H938      1.0  0.30653  0.71353  0.18474  1.0000
  H   H939      1.0  0.23497  0.92700  0.15630  1.0000
  C   C521      1.0  0.24212  0.67070  0.22912  1.0000
  H   H940      1.0  0.24577  0.71631  0.21220  1.0000
  H   H941      1.0  0.14077  0.87324  0.16841  1.0000
  C   C522      1.0  0.35187  0.73726  0.20132  1.0000
  C   C523      1.0  0.20291  0.75345  0.21748  1.0000
  H   H942      1.0  0.32080  0.72683  0.22171  1.0000
  H   H943      1.0  0.20654  0.85844  0.18026  1.0000
  C   C524      1.0  0.15777  0.88897  0.23256  1.0000
  H   H944      1.0  0.18987  0.74694  0.23111  1.0000
  Fe  Fe54      1.0  0.25136  0.86481  0.23038  1.0000
  H   H945      1.0  0.23879  0.91011  0.18313  1.0000
  H   H946      1.0  0.15802  0.85936  0.21715  1.0000
  H   H947      1.0  0.12180  0.91222  0.15679  1.0000
  H   H948      1.0  0.03609  0.68345  0.16874  1.0000
  C   C525      1.0  0.20812  0.90617  0.16970  1.0000
  H   H949      1.0  0.18272  0.64371  0.23077  1.0000
  H   H950      1.0  0.10835  0.66471  0.23347  1.0000
  H   H951      1.0  0.25058  0.67293  0.21133  1.0000
  H   H952      1.0  0.17494  0.61731  0.22571  1.0000
  C   C526      1.0  0.02496  0.72504  0.23742  1.0000
  H   H953      1.0  0.24619  0.66334  0.00955  1.0000
  H   H954      1.0  0.26434  0.68889  0.24124  1.0000
  H   H955      1.0  0.17044  0.82072  0.23663  1.0000
  N   N31       1.0  0.23426  0.73350  0.24175  1.0000
  H   H956      1.0  0.34809  0.66514  0.23324  1.0000
  C   C527      1.0  0.35864  0.65001  0.23969  1.0000
  C   C528      1.0  0.38189  0.65056  0.24003  1.0000
  H   H957      1.0  0.27082  0.94765  0.24200  1.0000
  H   H958      1.0  0.22830  0.79717  0.99446  1.0000
  H   H959      1.0  0.29594  0.75871  0.24242  1.0000
  C   C529      1.0  0.28243  0.73369  0.99305  1.0000
  H   H960      1.0  0.22990  0.72420  0.99283  1.0000
  H   H961      1.0  0.19801  0.80478  0.99316  1.0000
  H   H962      1.0  0.20202  0.65003  0.33675  1.0000
  S   S113      1.0  0.20443  0.83264  0.30148  1.0000
  S   S114      1.0  0.30960  0.85206  0.28556  1.0000
  S   S115      1.0  0.24654  0.87825  0.29119  1.0000
  Fe  Fe55      1.0  0.12412  0.75921  0.26976  1.0000
  S   S116      1.0  0.15196  0.72988  0.27231  1.0000
  C   C530      1.0  0.48757  0.71826  0.36837  1.0000
  Fe  Fe56      1.0  0.08665  0.72956  0.28630  1.0000
  S   S117      1.0  0.11178  0.69776  0.29039  1.0000
  S   S118      1.0  0.04902  0.72607  0.29627  1.0000
  Fe  Fe57      1.0  0.13200  0.71824  0.30546  1.0000
  S   S119      1.0  0.15191  0.69875  0.33272  1.0000
  C   C531      1.0  0.28373  0.94081  0.30665  1.0000
  S   S120      1.0  0.10542  0.74923  0.30447  1.0000
  H   H963      1.0  0.28261  0.94531  0.32398  1.0000
  Fe  Fe58      1.0  0.23448  0.72438  0.40289  1.0000
  S   S121      1.0  0.23832  0.69064  0.42474  1.0000
  S   S122      1.0  0.20077  0.74401  0.39492  1.0000
  Fe  Fe59      1.0  0.28521  0.72635  0.39414  1.0000
  S   S123      1.0  0.29368  0.69250  0.41461  1.0000
  S   S124      1.0  0.30958  0.74985  0.37520  1.0000
  Fe  Fe60      1.0  0.26727  0.68138  0.39790  1.0000
  S   S125      1.0  0.27278  0.64655  0.38717  1.0000
  Fe  Fe61      1.0  0.26422  0.70448  0.43998  1.0000
  S   S126      1.0  0.26167  0.71416  0.37496  1.0000
  S   S127      1.0  0.25756  0.73927  0.42058  1.0000
  Fe  Fe62      1.0  0.26625  0.60466  0.27707  1.0000
  S   S128      1.0  0.29023  0.57762  0.29430  1.0000
  S   S129      1.0  0.24728  0.63523  0.29245  1.0000
  Fe  Fe63      1.0  0.31436  0.58324  0.26224  1.0000
  Fe  Fe64      1.0  0.27626  0.55304  0.27758  1.0000
  H   H964      1.0  0.32344  0.79774  0.35689  1.0000
  H   H965      1.0  0.35776  0.67878  0.45351  1.0000
  S   S130      1.0  0.24998  0.57987  0.26301  1.0000
  H   H966      1.0  0.21700  0.76418  0.27383  1.0000
  S   S131      1.0  0.42060  0.74571  0.27445  1.0000
  C   C532      1.0  0.18579  0.67799  0.28070  1.0000
  S   S132      1.0  0.26787  0.51988  0.29855  1.0000
  S   S133      1.0  0.43426  0.69099  0.26839  1.0000
  C   C533      1.0  0.20225  0.63128  0.37062  1.0000
  Fe  Fe65      1.0  0.40873  0.71267  0.29046  1.0000
  S   S134      1.0  0.40331  0.70259  0.32817  1.0000
  C   C534      1.0  0.07521  0.67896  0.24717  1.0000
  H   H967      1.0  0.29704  0.90109  0.33849  1.0000
  S   S135      1.0  0.38044  0.71577  0.26945  1.0000
  H   H968      1.0  0.32549  0.80968  0.32746  1.0000
  H   H969      1.0  0.46658  0.65620  0.30103  1.0000
  H   H970      1.0  0.26733  0.78987  0.37955  1.0000
  H   H971      1.0  0.00874  0.77142  0.25486  1.0000
  H   H972      1.0  0.35182  0.68936  0.48045  1.0000
  H   H973      1.0  0.22286  0.87849  0.35064  1.0000
  S   S136      1.0  0.35136  0.58457  0.26510  1.0000
  H   H974      1.0  0.17807  0.63451  0.34649  1.0000
  C   C535      1.0  0.24087  0.96241  0.26211  1.0000
  C   C536      1.0  0.25302  0.80341  0.37527  1.0000
  H   H975      1.0  0.29421  0.73929  0.26850  1.0000
  C   C537      1.0  0.21139  0.86708  0.34714  1.0000
  H   H976      1.0  0.06574  0.64798  0.26801  1.0000
  H   H977      1.0  0.00582  0.76305  0.28499  1.0000
  C   C538      1.0  0.33495  0.73602  0.36160  1.0000
  C   C539      1.0  0.34504  0.71490  0.37130  1.0000
  C   C540      1.0  0.36613  0.70478  0.36100  1.0000
  C   C541      1.0  0.37676  0.71533  0.34059  1.0000
  C   C542      1.0  0.36637  0.73613  0.33056  1.0000
  C   C543      1.0  0.34569  0.74665  0.34127  1.0000
  H   H978      1.0  0.33686  0.70665  0.38698  1.0000
  H   H979      1.0  0.37425  0.68877  0.36879  1.0000
  H   H980      1.0  0.37449  0.74438  0.31480  1.0000
  H   H981      1.0  0.33793  0.76294  0.33365  1.0000
  C   C544      1.0  0.26494  0.64385  0.36107  1.0000
  C   C545      1.0  0.25414  0.66231  0.34772  1.0000
  C   C546      1.0  0.24845  0.65949  0.32678  1.0000
  C   C547      1.0  0.25361  0.63825  0.31912  1.0000
  C   C548      1.0  0.26384  0.61975  0.33278  1.0000
  C   C549      1.0  0.26951  0.62255  0.35366  1.0000
  H   H982      1.0  0.25018  0.67872  0.35345  1.0000
  H   H983      1.0  0.24022  0.67383  0.31644  1.0000
  H   H984      1.0  0.26715  0.60318  0.32746  1.0000
  H   H985      1.0  0.27751  0.60813  0.36409  1.0000
  H   H986      1.0  0.21228  0.78587  0.42039  1.0000
  C   C550      1.0  0.16677  0.71415  0.34635  1.0000
  C   C551      1.0  0.15609  0.73393  0.35504  1.0000
  C   C552      1.0  0.16705  0.74363  0.36924  1.0000
  C   C553      1.0  0.18862  0.73355  0.37476  1.0000
  C   C554      1.0  0.19972  0.71447  0.36508  1.0000
  C   C555      1.0  0.18888  0.70496  0.35072  1.0000
  H   H987      1.0  0.13900  0.74114  0.35166  1.0000
  H   H988      1.0  0.15844  0.75848  0.37661  1.0000
  H   H989      1.0  0.21637  0.70667  0.36912  1.0000
  H   H990      1.0  0.19743  0.69014  0.34333  1.0000
  C   C556      1.0  0.03273  0.72129  0.27609  1.0000
  H   H991      1.0  0.49159  0.68560  0.25464  1.0000
  Fe  Fe66      1.0  0.27731  0.86303  0.26961  1.0000
  C   C557      1.0  0.19154  0.65232  0.38245  1.0000
  H   H992      1.0  0.16241  0.59025  0.26495  1.0000
  C   C558      1.0  0.32730  0.83090  0.27151  1.0000
  H   H993      1.0  0.41063  0.74114  0.39189  1.0000
  H   H994      1.0  0.15015  0.60008  0.29102  1.0000
  C   C559      1.0  0.35973  0.80069  0.26994  1.0000
  C   C560      1.0  0.34627  0.81829  0.28078  1.0000
  H   H995      1.0  0.37425  0.79087  0.27717  1.0000
  H   H996      1.0  0.35059  0.82210  0.29628  1.0000
  C   C561      1.0  0.18657  0.82009  0.28810  1.0000
  C   C562      1.0  0.17153  0.80581  0.30101  1.0000
  C   C563      1.0  0.15637  0.79662  0.29062  1.0000
  C   C564      1.0  0.15576  0.80223  0.26737  1.0000
  C   C565      1.0  0.01269  0.71128  0.28340  1.0000
  C   C566      1.0  0.18671  0.82475  0.26472  1.0000
  H   H997      1.0  0.17145  0.80200  0.31911  1.0000
  H   H998      1.0  0.14469  0.78576  0.30070  1.0000
  H   H999      1.0  0.24030  0.60650  0.43965  1.0000
  C   C567      1.0  0.25532  0.50017  0.26471  1.0000
  H   H1000     1.0  0.20837  0.83185  0.35025  1.0000
  H   H1001     1.0  0.19363  0.68269  0.41002  1.0000
  C   C568      1.0  0.24328  0.93191  0.32065  1.0000
  C   C569      1.0  0.48075  0.73222  0.34588  1.0000
  C   C570      1.0  0.23076  0.98159  0.27245  1.0000
  C   C571      1.0  0.47803  0.68580  0.30941  1.0000
  H   H1002     1.0  0.31381  0.96261  0.27187  1.0000
  C   C572      1.0  0.18072  0.67092  0.41664  1.0000
  H   H1003     1.0  0.12012  0.61689  0.40920  1.0000
  C   C573      1.0  0.28628  0.75547  0.25957  1.0000
  H   H1004     1.0  0.47420  0.79294  0.28031  1.0000
  H   H1005     1.0  0.20497  0.72001  0.26210  1.0000
  Fe  Fe67      1.0  0.12993  0.71171  0.25722  1.0000
  H   H1006     1.0  0.31850  0.66654  0.46066  1.0000
  C   C574      1.0  0.00526  0.71449  0.24466  1.0000
  C   C575      1.0  0.47856  0.76177  0.30371  1.0000
  C   C576      1.0  0.47512  0.69975  0.32936  1.0000
  H   H1007     1.0  0.25382  0.77144  0.25018  1.0000
  H   H1008     1.0  0.41149  0.63441  0.32260  1.0000
  C   C577      1.0  0.03874  0.72832  0.25305  1.0000
  H   H1009     1.0  0.32369  0.86802  0.35060  1.0000
  H   H1010     1.0  0.46026  0.73406  0.30413  1.0000
  H   H1011     1.0  0.27667  0.95655  0.29622  1.0000
  H   H1012     1.0  0.45636  0.70462  0.33431  1.0000
  H   H1013     1.0  0.34466  0.92543  0.26133  1.0000
  H   H1014     1.0  0.45910  0.77112  0.27522  1.0000
  H   H1015     1.0  0.44665  0.67090  0.32129  1.0000
  C   C578      1.0  0.32027  0.81360  0.34499  1.0000
  H   H1016     1.0  0.20794  0.65026  0.26772  1.0000
  S   S137      1.0  0.10325  0.74197  0.25149  1.0000
  H   H1017     1.0  0.49623  0.67908  0.30462  1.0000
  H   H1018     1.0  0.05378  0.73661  0.24733  1.0000
  C   C579      1.0  0.47840  0.73585  0.30487  1.0000
  C   C580      1.0  0.30961  0.92035  0.27780  1.0000
  H   H1019     1.0  0.48837  0.74811  0.34379  1.0000
  C   C581      1.0  0.32155  0.92015  0.31557  1.0000
  H   H1020     1.0  0.23079  0.92051  0.31949  1.0000
  H   H1021     1.0  0.32102  0.93038  0.32941  1.0000
  H   H1022     1.0  0.13521  0.71534  0.41630  1.0000
  H   H1023     1.0  0.39651  0.59574  0.26291  1.0000
  S   S138      1.0  0.13570  0.79271  0.25399  1.0000
  H   H1024     1.0  0.30073  0.90515  0.28281  1.0000
  H   H1025     1.0  0.26569  0.71951  0.25548  1.0000
  H   H1026     1.0  0.46432  0.76876  0.31600  1.0000
  H   H1027     1.0  0.29679  0.98189  0.30461  1.0000
  H   H1028     1.0  0.16717  0.86970  0.26415  1.0000
  C   C582      1.0  0.26108  0.75462  0.25836  1.0000
  C   C583      1.0  0.33394  0.91164  0.26651  1.0000
  H   H1029     1.0  0.28768  0.76945  0.26899  1.0000
  H   H1030     1.0  0.19145  0.75871  0.26569  1.0000
  H   H1031     1.0  0.22864  0.71852  0.27668  1.0000
  H   H1032     1.0  0.16910  0.68138  0.29144  1.0000
  H   H1033     1.0  0.48977  0.76898  0.26754  1.0000
  N   N32       1.0  0.30841  0.93350  0.29733  1.0000
  H   H1034     1.0  0.31624  0.71408  0.46631  1.0000
  C   C584      1.0  0.24518  0.83554  0.34486  1.0000
  C   C585      1.0  0.31332  0.89754  0.32710  1.0000
  C   C586      1.0  0.34414  0.68658  0.46579  1.0000
  H   H1035     1.0  0.25043  0.63368  0.43670  1.0000
  H   H1036     1.0  0.47142  0.69632  0.29445  1.0000
  C   C587      1.0  0.02313  0.79192  0.27309  1.0000
  H   H1037     1.0  0.11312  0.59823  0.27590  1.0000
  C   C588      1.0  0.17214  0.63158  0.41797  1.0000
  H   H1038     1.0  0.33115  0.62973  0.24704  1.0000
  H   H1039     1.0  0.17947  0.66875  0.43534  1.0000
  H   H1040     1.0  0.25505  0.84671  0.35117  1.0000
  H   H1041     1.0  0.02028  0.79816  0.28976  1.0000
  Fe  Fe68      1.0  0.40670  0.69704  0.24589  1.0000
  H   H1042     1.0  0.14338  0.67330  0.41915  1.0000
  H   H1043     1.0  0.33839  0.95033  0.28472  1.0000
  H   H1044     1.0  0.15670  0.68790  0.39298  1.0000
  H   H1045     1.0  0.34003  0.91660  0.30886  1.0000
  C   C589      1.0  0.25381  0.77171  0.33829  1.0000
  C   C590      1.0  0.23758  0.75816  0.33084  1.0000
  H   H1046     1.0  0.24401  0.80433  0.31967  1.0000
  H   H1047     1.0  0.22486  0.79788  0.34414  1.0000
  H   H1048     1.0  0.26999  0.77012  0.32634  1.0000
  H   H1049     1.0  0.25777  0.76395  0.35533  1.0000
  H   H1050     1.0  0.23332  0.76576  0.31381  1.0000
  H   H1051     1.0  0.24577  0.74036  0.33014  1.0000
  H   H1052     1.0  0.22155  0.75809  0.34299  1.0000
  N   N33       1.0  0.34122  0.63812  0.32031  1.0000
  C   C591      1.0  0.36695  0.63364  0.31515  1.0000
  C   C592      1.0  0.33129  0.61642  0.32085  1.0000
  C   C593      1.0  0.33275  0.65521  0.30127  1.0000
  C   C594      1.0  0.33337  0.64827  0.34196  1.0000
  C   C595      1.0  0.34076  0.63399  0.36383  1.0000
  C   C596      1.0  0.37992  0.65432  0.31265  1.0000
  C   C597      1.0  0.30653  0.65901  0.30059  1.0000
  C   C598      1.0  0.34506  0.59388  0.33074  1.0000
  C   C599      1.0  0.33160  0.57393  0.33344  1.0000
  C   C600      1.0  0.33646  0.64814  0.38329  1.0000
  C   C601      1.0  0.40572  0.64684  0.30833  1.0000
  C   C602      1.0  0.30029  0.67604  0.28020  1.0000
  H   H1053     1.0  0.37182  0.62598  0.29916  1.0000
  H   H1054     1.0  0.37440  0.62088  0.32822  1.0000
  H   H1055     1.0  0.31364  0.61776  0.33018  1.0000
  H   H1056     1.0  0.32969  0.61378  0.30335  1.0000
  H   H1057     1.0  0.34118  0.65017  0.28476  1.0000
  H   H1058     1.0  0.33759  0.67218  0.30179  1.0000
  H   H1059     1.0  0.33877  0.66535  0.34038  1.0000
  H   H1060     1.0  0.31436  0.65142  0.34521  1.0000
  H   H1061     1.0  0.35917  0.62715  0.36179  1.0000
  H   H1062     1.0  0.33042  0.61981  0.36898  1.0000
  H   H1063     1.0  0.37538  0.66705  0.29812  1.0000
  H   H1064     1.0  0.37621  0.66252  0.32824  1.0000
  H   H1065     1.0  0.29713  0.66579  0.31596  1.0000
  H   H1066     1.0  0.30020  0.64305  0.29923  1.0000
  H   H1067     1.0  0.36106  0.58974  0.31909  1.0000
  H   H1068     1.0  0.34985  0.59482  0.34740  1.0000
  H   H1069     1.0  0.31444  0.57763  0.34338  1.0000
  H   H1070     1.0  0.32972  0.57009  0.31657  1.0000
  H   H1071     1.0  0.34105  0.55863  0.34234  1.0000
  H   H1072     1.0  0.34005  0.63711  0.39920  1.0000
  H   H1073     1.0  0.34775  0.66153  0.37986  1.0000
  H   H1074     1.0  0.31841  0.65627  0.38567  1.0000
  H   H1075     1.0  0.41045  0.63922  0.29238  1.0000
  H   H1076     1.0  0.41475  0.66174  0.30673  1.0000
  H   H1077     1.0  0.28145  0.67846  0.28035  1.0000
  H   H1078     1.0  0.30568  0.69269  0.28084  1.0000
  H   H1079     1.0  0.30858  0.66962  0.26423  1.0000
  H   H1080     1.0  0.26418  0.74305  0.47541  1.0000
  H   H1081     1.0  0.05768  0.68449  0.24307  1.0000
  H   H1082     1.0  0.32874  0.75741  0.48386  1.0000
  H   H1083     1.0  0.19397  0.87178  0.35612  1.0000
  C   C603      1.0  0.19077  0.60359  0.29385  1.0000
  H   H1084     1.0  0.34693  0.87832  0.33095  1.0000
  C   C604      1.0  0.19308  0.65258  0.28101  1.0000
  C   C605      1.0  0.19414  0.57722  0.29644  1.0000
  H   H1085     1.0  0.25274  0.75155  0.27610  1.0000
  C   C606      1.0  0.20825  0.56693  0.31547  1.0000
  H   H1086     1.0  0.18075  0.60850  0.30995  1.0000
  H   H1087     1.0  0.20801  0.60868  0.29311  1.0000
  C   C607      1.0  0.25828  0.73525  0.24546  1.0000
  H   H1088     1.0  0.31838  0.96709  0.32116  1.0000
  H   H1089     1.0  0.19846  0.64586  0.29775  1.0000
  H   H1090     1.0  0.45730  0.70075  0.37720  1.0000
  H   H1091     1.0  0.20309  0.57074  0.28079  1.0000
  H   H1092     1.0  0.17745  0.57065  0.30064  1.0000
  C   C608      1.0  0.33062  0.88356  0.34168  1.0000
  H   H1093     1.0  0.28209  0.81197  0.32143  1.0000
  C   C609      1.0  0.22664  0.79530  0.41224  1.0000
  H   H1094     1.0  0.21073  0.54812  0.31678  1.0000
  H   H1095     1.0  0.22542  0.57258  0.31202  1.0000
  H   H1096     1.0  0.19938  0.57191  0.33189  1.0000
  H   H1097     1.0  0.20023  0.62516  0.44998  1.0000
  C   C610      1.0  0.20617  0.75080  0.27465  1.0000
  H   H1098     1.0  0.18429  0.68626  0.26315  1.0000
  H   H1099     1.0  0.16507  0.71650  0.41617  1.0000
  C   C611      1.0  0.26316  0.96195  0.25067  1.0000
  H   H1100     1.0  0.48118  0.68771  0.34378  1.0000
  H   H1101     1.0  0.26334  0.92357  0.28965  1.0000
  C   C612      1.0  0.17320  0.64058  0.27744  1.0000
  H   H1102     1.0  0.21023  0.86959  0.32877  1.0000
  S   S139      1.0  0.26804  0.69382  0.47708  1.0000
  C   C613      1.0  0.00462  0.77775  0.27145  1.0000
  H   H1103     1.0  0.21284  0.61828  0.25432  1.0000
  H   H1104     1.0  0.04013  0.78122  0.27137  1.0000
  H   H1105     1.0  0.23640  0.94942  0.31372  1.0000
  C   C614      1.0  0.19620  0.61312  0.25275  1.0000
  H   H1106     1.0  0.21102  0.73578  0.30920  1.0000
  C   C615      1.0  0.17095  0.81631  0.25451  1.0000
  Fe  Fe69      1.0  0.24011  0.90283  0.26010  1.0000
  H   H1107     1.0  0.33090  0.82595  0.34810  1.0000
  C   C616      1.0  0.27537  0.98023  0.25009  1.0000
  Fe  Fe70      1.0  0.22775  0.85481  0.27819  1.0000
  C   C617      1.0  0.15131  0.70572  0.42175  1.0000
  C   C618      1.0  0.25803  0.49829  0.28749  1.0000
  Fe  Fe71      1.0  0.39465  0.74688  0.25119  1.0000
  H   H1108     1.0  0.30026  0.93099  0.26450  1.0000
  H   H1109     1.0  0.21343  0.98223  0.28113  1.0000
  H   H1110     1.0  0.18145  0.61397  0.41999  1.0000
  C   C619      1.0  0.21881  0.72961  0.26394  1.0000
  H   H1111     1.0  0.22202  0.81327  0.41521  1.0000
  H   H1112     1.0  0.27226  0.90667  0.31446  1.0000
  H   H1113     1.0  0.33399  0.89343  0.35450  1.0000
  H   H1114     1.0  0.21851  0.84031  0.37379  1.0000
  H   H1115     1.0  0.25859  0.51548  0.25343  1.0000
  H   H1116     1.0  0.24666  0.84055  0.32623  1.0000
  H   H1117     1.0  0.14388  0.64761  0.39800  1.0000
  C   C620      1.0  0.47518  0.77440  0.28026  1.0000
  H   H1118     1.0  0.36897  0.72062  0.47229  1.0000
  H   H1119     1.0  0.48802  0.73047  0.28891  1.0000
  C   C621      1.0  0.15217  0.63066  0.40463  1.0000
  H   H1120     1.0  0.24209  0.78780  0.42020  1.0000
  H   H1121     1.0  0.19872  0.68539  0.28742  1.0000
  C   C622      1.0  0.36267  0.61023  0.25572  1.0000
  H   H1122     1.0  0.47221  0.65346  0.32979  1.0000
  C   C623      1.0  0.32237  0.82646  0.25100  1.0000
  H   H1123     1.0  0.15852  0.62154  0.38983  1.0000
  C   C624      1.0  0.28005  0.80837  0.34028  1.0000
  C   C625      1.0  0.21998  0.84227  0.35509  1.0000
  C   C626      1.0  0.31949  0.95465  0.28832  1.0000
  H   H1124     1.0  0.18832  0.75916  0.30725  1.0000
  C   C627      1.0  0.34905  0.62991  0.24743  1.0000
  H   H1125     1.0  0.31081  0.88690  0.31465  1.0000
  H   H1126     1.0  0.14120  0.86316  0.25634  1.0000
  H   H1127     1.0  0.21523  0.80253  0.37991  1.0000
  H   H1128     1.0  0.24505  0.93141  0.33871  1.0000
  H   H1129     1.0  0.34257  0.89818  0.27831  1.0000
  C   C628      1.0  0.34777  0.49881  0.26478  1.0000
  H   H1130     1.0  0.06255  0.67220  0.28284  1.0000
  S   S140      1.0  0.22505  0.93951  0.26381  1.0000
  C   C629      1.0  0.21185  0.63944  0.41481  1.0000
  C   C630      1.0  0.23685  0.62347  0.44541  1.0000
  H   H1131     1.0  0.22441  0.65109  0.40659  1.0000
  H   H1132     1.0  0.21853  0.62288  0.40865  1.0000
  H   H1133     1.0  0.29307  0.84066  0.33845  1.0000
  H   H1134     1.0  0.22113  0.62910  0.36977  1.0000
  H   H1135     1.0  0.23760  0.62122  0.46386  1.0000
  C   C631      1.0  0.31487  0.97370  0.30373  1.0000
  N   N34       1.0  0.34599  0.72823  0.44704  1.0000
  C   C632      1.0  0.33175  0.70912  0.45446  1.0000
  C   C633      1.0  0.33221  0.74862  0.43513  1.0000
  C   C634      1.0  0.36587  0.72005  0.43007  1.0000
  C   C635      1.0  0.35560  0.73443  0.46649  1.0000
  S   S141      1.0  0.25904  0.83761  0.25908  1.0000
  S   S142      1.0  0.29109  0.61185  0.24576  1.0000
  C   C636      1.0  0.38070  0.73826  0.41719  1.0000
  C   C637      1.0  0.30659  0.75397  0.44456  1.0000
  C   C638      1.0  0.29574  0.77667  0.43304  1.0000
  H   H1136     1.0  0.28808  0.79047  0.34432  1.0000
  C   C639      1.0  0.32982  0.99233  0.29442  1.0000
  C   C640      1.0  0.40043  0.72777  0.40100  1.0000
  H   H1137     1.0  0.32503  0.70521  0.43964  1.0000
  S   S143      1.0  0.30279  0.55610  0.24696  1.0000
  H   H1138     1.0  0.34029  0.76415  0.43451  1.0000
  H   H1139     1.0  0.33217  0.74639  0.41716  1.0000
  H   H1140     1.0  0.35958  0.71236  0.41706  1.0000
  H   H1141     1.0  0.37781  0.70639  0.43842  1.0000
  C   C641      1.0  0.46504  0.66535  0.31586  1.0000
  H   H1142     1.0  0.36469  0.74947  0.46084  1.0000
  C   C642      1.0  0.23079  0.79380  0.38690  1.0000
  H   H1143     1.0  0.12576  0.62714  0.43384  1.0000
  C   C643      1.0  0.39545  0.63101  0.24871  1.0000
  C   C644      1.0  0.15148  0.87693  0.25645  1.0000
  H   H1144     1.0  0.38821  0.74615  0.42908  1.0000
  H   H1145     1.0  0.37046  0.75182  0.40688  1.0000
  H   H1146     1.0  0.29714  0.74060  0.44153  1.0000
  H   H1147     1.0  0.30402  0.75473  0.46283  1.0000
  H   H1148     1.0  0.27739  0.77984  0.44017  1.0000
  H   H1149     1.0  0.30431  0.79074  0.43600  1.0000
  H   H1150     1.0  0.29691  0.77642  0.41457  1.0000
  C   C645      1.0  0.32760  0.66928  0.47441  1.0000
  H   H1151     1.0  0.21081  0.65196  0.44735  1.0000
  C   C646      1.0  0.15799  0.60579  0.27345  1.0000
  H   H1152     1.0  0.14109  0.60050  0.42583  1.0000
  H   H1153     1.0  0.41183  0.71448  0.41039  1.0000
  H   H1154     1.0  0.39378  0.72019  0.38824  1.0000
  C   C647      1.0  0.24340  0.79701  0.33785  1.0000
  N   N35       1.0  0.25501  0.81090  0.35005  1.0000
  H   H1155     1.0  0.17521  0.65958  0.37596  1.0000
  N   N36       1.0  0.18850  0.64840  0.40791  1.0000
  H   H1156     1.0  0.15994  0.64213  0.29256  1.0000
  H   H1157     1.0  0.29004  0.82521  0.36656  1.0000
  C   C648      1.0  0.29497  0.82346  0.34841  1.0000
  N   N37       1.0  0.17939  0.61601  0.27391  1.0000
  H   H1158     1.0  0.14897  0.70218  0.44049  1.0000
  H   H1159     1.0  0.20313  0.66535  0.37618  1.0000
  H   H1160     1.0  0.19650  0.61538  0.37992  1.0000
  H   H1161     1.0  0.25508  0.81772  0.38401  1.0000
  H   H1162     1.0  0.14128  0.88928  0.26722  1.0000
  C   C649      1.0  0.15711  0.68359  0.41143  1.0000
  H   H1163     1.0  0.23240  0.77571  0.38467  1.0000
  H   H1164     1.0  0.16469  0.63470  0.43548  1.0000
  C   C650      1.0  0.19697  0.74402  0.29950  1.0000
  H   H1165     1.0  0.18448  0.73194  0.30112  1.0000
  C   C651      1.0  0.13371  0.61799  0.41936  1.0000
  C   C652      1.0  0.21329  0.63557  0.44055  1.0000
  C   C653      1.0  0.26632  0.92417  0.30715  1.0000
  C   C654      1.0  0.19671  0.63406  0.34647  1.0000
  H   H1166     1.0  0.20611  0.61964  0.33791  1.0000
  C   C655      1.0  0.35462  0.79627  0.24945  1.0000
  H   H1167     1.0  0.45512  0.72654  0.38957  1.0000
  H   H1168     1.0  0.46196  0.73819  0.34818  1.0000
  Fe  Fe72      1.0  0.44453  0.72434  0.25090  1.0000
  N   N38       1.0  0.48714  0.72056  0.32499  1.0000
  H   H1169     1.0  0.19855  0.83538  0.25464  1.0000
  H   H1170     1.0  0.12986  0.63411  0.27413  1.0000
  H   H1171     1.0  0.02335  0.80655  0.25939  1.0000
  H   H1172     1.0  0.47261  0.70121  0.40040  1.0000
  S   S144      1.0  0.21848  0.88048  0.24894  1.0000
  C   C656      1.0  0.13810  0.62146  0.26274  1.0000
  H   H1173     1.0  0.49467  0.76578  0.30781  1.0000
  H   H1174     1.0  0.14385  0.63102  0.24621  1.0000
  H   H1175     1.0  0.16517  0.65085  0.26325  1.0000
  H   H1176     1.0  0.49611  0.72892  0.37690  1.0000
  H   H1177     1.0  0.20041  0.59493  0.25050  1.0000
  C   C657      1.0  0.38584  0.61092  0.25658  1.0000
  H   H1178     1.0  0.34820  0.98560  0.29467  1.0000
  H   H1179     1.0  0.23739  0.68666  0.25904  1.0000
  C   C658      1.0  0.46683  0.71127  0.38480  1.0000
  H   H1180     1.0  0.12686  0.59565  0.24728  1.0000
  H   H1181     1.0  0.09071  0.65761  0.27487  1.0000
  C   C659      1.0  0.07353  0.66309  0.26954  1.0000
  H   H1182     1.0  0.00783  0.70605  0.30124  1.0000
  C   C660      1.0  0.33836  0.74023  0.48751  1.0000
  H   H1183     1.0  0.33714  0.65282  0.48095  1.0000
  C   C661      1.0  0.26996  0.73504  0.49118  1.0000
  H   H1184     1.0  0.41355  0.63113  0.24852  1.0000
  H   H1185     1.0  0.35951  0.49627  0.24891  1.0000
  H   H1186     1.0  0.31483  0.67520  0.48844  1.0000
  H   H1187     1.0  0.32274  0.88708  0.24924  1.0000
  H   H1188     1.0  0.10526  0.61933  0.25288  1.0000
  C   C662      1.0  0.11976  0.60776  0.25952  1.0000
  H   H1189     1.0  0.08218  0.69411  0.25005  1.0000
  H   H1190     1.0  0.33984  0.51687  0.26345  1.0000
  H   H1191     1.0  0.30816  0.83645  0.24342  1.0000
  C   C663      1.0  0.33288  0.90144  0.24520  1.0000
  H   H1192     1.0  0.50011  0.70294  0.36588  1.0000
  Fe  Fe73      1.0  0.25704  0.86212  0.71684  1.0000
  S   S145      1.0  0.22776  0.88932  0.72455  1.0000
  S   S146      1.0  0.26848  0.85220  0.68189  1.0000
  H   H1193     1.0  0.41534  0.64784  0.65643  1.0000
  H   H1194     1.0  0.31510  0.88773  0.68440  1.0000
  H   H1195     1.0  0.33583  0.70854  0.72123  1.0000
  H   H1196     1.0  0.39131  0.52116  0.70770  1.0000
  H   H1197     1.0  0.35636  0.65876  0.73326  1.0000
  H   H1198     1.0  0.35699  0.54176  0.69445  1.0000
  H   H1199     1.0  0.42061  0.52532  0.67483  1.0000
  H   H1200     1.0  0.34476  0.88735  0.67183  1.0000
  H   H1201     1.0  0.33574  0.89428  0.70012  1.0000
  Fe  Fe74      1.0  0.30315  0.58424  0.72601  1.0000
  S   S147      1.0  0.32598  0.58247  0.69292  1.0000
  H   H1202     1.0  0.18785  0.81253  0.64354  1.0000
  Fe  Fe75      1.0  0.28174  0.74134  0.63187  1.0000
  S   S148      1.0  0.30544  0.76006  0.60548  1.0000
  S   S149      1.0  0.25708  0.75535  0.66046  1.0000
  Fe  Fe76      1.0  0.29906  0.69626  0.61445  1.0000
  S   S150      1.0  0.32438  0.71116  0.58692  1.0000
  S   S151      1.0  0.29496  0.65966  0.61605  1.0000
  Fe  Fe77      1.0  0.33164  0.72995  0.61363  1.0000
  S   S152      1.0  0.36785  0.73217  0.61833  1.0000
  Fe  Fe78      1.0  0.29584  0.73953  0.58116  1.0000
  S   S153      1.0  0.28776  0.75539  0.54616  1.0000
  S   S154      1.0  0.30865  0.71248  0.64162  1.0000
  S   S155      1.0  0.26984  0.72340  0.60704  1.0000
  H   H1203     1.0  0.38081  0.57433  0.69858  1.0000
  S   S156      1.0  0.38328  0.74690  0.71528  1.0000
  C   C664      1.0  0.37180  0.73373  0.64618  1.0000
  C   C665      1.0  0.39398  0.72983  0.65208  1.0000
  C   C666      1.0  0.39758  0.73241  0.67385  1.0000
  C   C667      1.0  0.37901  0.73931  0.68961  1.0000
  C   C668      1.0  0.35680  0.74238  0.68399  1.0000
  C   C669      1.0  0.35316  0.73947  0.66236  1.0000
  H   H1204     1.0  0.40843  0.72528  0.63962  1.0000
  H   H1205     1.0  0.41479  0.73009  0.67808  1.0000
  H   H1206     1.0  0.34240  0.74751  0.69621  1.0000
  H   H1207     1.0  0.33601  0.74259  0.65793  1.0000
  C   C670      1.0  0.28162  0.73817  0.52740  1.0000
  H   H1208     1.0  0.36220  0.81711  0.71130  1.0000
  H   H1209     1.0  0.48587  0.76032  0.72909  1.0000
  H   H1210     1.0  0.12228  0.82542  0.69252  1.0000
  C   C671      1.0  0.27939  0.70127  0.51718  1.0000
  C   C672      1.0  0.28390  0.71455  0.53266  1.0000
  H   H1211     1.0  0.47046  0.77886  0.70850  1.0000
  H   H1212     1.0  0.28127  0.68300  0.52140  1.0000
  H   H1213     1.0  0.28923  0.70650  0.54863  1.0000
  H   H1214     1.0  0.40035  0.52513  0.65582  1.0000
  C   C673      1.0  0.31864  0.60477  0.67172  1.0000
  C   C674      1.0  0.31907  0.59985  0.64986  1.0000
  C   C675      1.0  0.31236  0.61702  0.63280  1.0000
  C   C676      1.0  0.30618  0.63944  0.63716  1.0000
  C   C677      1.0  0.30680  0.64467  0.65877  1.0000
  C   C678      1.0  0.31252  0.62722  0.67622  1.0000
  H   H1215     1.0  0.32383  0.58259  0.64625  1.0000
  H   H1216     1.0  0.31174  0.61288  0.61617  1.0000
  H   H1217     1.0  0.30191  0.66193  0.66225  1.0000
  H   H1218     1.0  0.31244  0.63118  0.69302  1.0000
  C   C679      1.0  0.26511  0.82520  0.67640  1.0000
  C   C680      1.0  0.25314  0.81039  0.69242  1.0000
  C   C681      1.0  0.25056  0.78909  0.68727  1.0000
  C   C682      1.0  0.26048  0.78222  0.66639  1.0000
  C   C683      1.0  0.27232  0.79708  0.65038  1.0000
  C   C684      1.0  0.27443  0.81858  0.65528  1.0000
  H   H1219     1.0  0.24536  0.81555  0.70850  1.0000
  H   H1220     1.0  0.24065  0.77805  0.69939  1.0000
  H   H1221     1.0  0.27944  0.79225  0.63400  1.0000
  H   H1222     1.0  0.28336  0.83010  0.64267  1.0000
  S   S157      1.0  0.49427  0.70319  0.73528  1.0000
  C   C685      1.0  0.35648  0.67521  0.72207  1.0000
  C   C686      1.0  0.36159  0.52431  0.68975  1.0000
  H   H1223     1.0  0.38353  0.63086  0.71525  1.0000
  H   H1224     1.0  0.20433  0.83144  0.73771  1.0000
  H   H1225     1.0  0.38554  0.68186  0.64374  1.0000
  N   N39       1.0  0.33715  0.81773  0.68897  1.0000
  C   C687      1.0  0.33429  0.84290  0.68079  1.0000
  C   C688      1.0  0.33307  0.80475  0.67086  1.0000
  C   C689      1.0  0.31919  0.81359  0.70930  1.0000
  C   C690      1.0  0.36026  0.80931  0.69637  1.0000
  C   C691      1.0  0.38125  0.81240  0.67817  1.0000
  C   C692      1.0  0.33808  0.85846  0.69752  1.0000
  C   C693      1.0  0.31640  0.78840  0.71821  1.0000
  C   C694      1.0  0.34002  0.81454  0.64579  1.0000
  C   C695      1.0  0.33933  0.79738  0.62996  1.0000
  C   C696      1.0  0.40351  0.80607  0.68852  1.0000
  H   H1226     1.0  0.28377  0.54955  0.68787  1.0000
  H   H1227     1.0  0.31684  0.84846  0.67596  1.0000
  H   H1228     1.0  0.34612  0.84712  0.66516  1.0000
  H   H1229     1.0  0.34163  0.78697  0.67359  1.0000
  H   H1230     1.0  0.31454  0.80349  0.67207  1.0000
  H   H1231     1.0  0.30213  0.82245  0.70547  1.0000
  H   H1232     1.0  0.03071  0.72163  0.72951  1.0000
  H   H1233     1.0  0.30864  0.50925  0.71057  1.0000
  H   H1234     1.0  0.36177  0.79085  0.70234  1.0000
  H   H1235     1.0  0.38074  0.83016  0.66978  1.0000
  H   H1236     1.0  0.38199  0.80094  0.66534  1.0000
  N   N40       1.0  0.34548  0.50879  0.70361  1.0000
  H   H1237     1.0  0.28069  0.79561  0.73284  1.0000
  H   H1238     1.0  0.39256  0.49867  0.69096  1.0000
  H   H1239     1.0  0.31199  0.77967  0.70503  1.0000
  H   H1240     1.0  0.32779  0.82987  0.64105  1.0000
  H   H1241     1.0  0.35742  0.81942  0.64260  1.0000
  H   H1242     1.0  0.35281  0.78261  0.63259  1.0000
  H   H1243     1.0  0.32239  0.79133  0.63294  1.0000
  H   H1244     1.0  0.34244  0.80537  0.61210  1.0000
  H   H1245     1.0  0.32132  0.51471  0.66655  1.0000
  H   H1246     1.0  0.35606  0.85511  0.70102  1.0000
  H   H1247     1.0  0.40527  0.78808  0.69653  1.0000
  H   H1248     1.0  0.32415  0.54320  0.66965  1.0000
  H   H1249     1.0  0.17798  0.82634  0.68348  1.0000
  H   H1250     1.0  0.20950  0.85009  0.67649  1.0000
  H   H1251     1.0  0.37723  0.65742  0.61684  1.0000
  H   H1252     1.0  0.26479  0.75283  0.72277  1.0000
  C   C697      1.0  0.33314  0.88346  0.68778  1.0000
  H   H1253     1.0  0.19285  0.77669  0.70047  1.0000
  C   C698      1.0  0.37996  0.58936  0.70726  1.0000
  H   H1254     1.0  0.42014  0.63162  0.68358  1.0000
  H   H1255     1.0  0.35482  0.63155  0.71081  1.0000
  C   C699      1.0  0.27459  0.74835  0.50661  1.0000
  H   H1256     1.0  0.26392  0.52144  0.73494  1.0000
  N   N41       1.0  0.22417  0.66507  0.65986  1.0000
  C   C700      1.0  0.22723  0.64100  0.67171  1.0000
  C   C701      1.0  0.19982  0.67573  0.66632  1.0000
  C   C702      1.0  0.22755  0.66397  0.63472  1.0000
  C   C703      1.0  0.24111  0.67924  0.66475  1.0000
  C   C704      1.0  0.24914  0.67372  0.68842  1.0000
  C   C705      1.0  0.24962  0.62614  0.66326  1.0000
  C   C706      1.0  0.22213  0.68679  0.61940  1.0000
  C   C707      1.0  0.19191  0.67720  0.69176  1.0000
  C   C708      1.0  0.16624  0.68535  0.69635  1.0000
  C   C709      1.0  0.26273  0.69166  0.69266  1.0000
  C   C710      1.0  0.25588  0.60592  0.68080  1.0000
  C   C711      1.0  0.23183  0.68507  0.59467  1.0000
  H   H1257     1.0  0.21283  0.63209  0.66985  1.0000
  H   H1258     1.0  0.22639  0.64054  0.69018  1.0000
  H   H1259     1.0  0.19693  0.69348  0.65775  1.0000
  H   H1260     1.0  0.18780  0.66635  0.66037  1.0000
  H   H1261     1.0  0.21696  0.65187  0.63077  1.0000
  H   H1262     1.0  0.24562  0.65716  0.62889  1.0000
  H   H1263     1.0  0.25709  0.67772  0.65239  1.0000
  H   H1264     1.0  0.23409  0.69759  0.66224  1.0000
  H   H1265     1.0  0.26037  0.65714  0.68995  1.0000
  H   H1266     1.0  0.23465  0.67278  0.70214  1.0000
  H   H1267     1.0  0.24777  0.61964  0.64756  1.0000
  H   H1268     1.0  0.26393  0.63621  0.65941  1.0000
  H   H1269     1.0  0.22945  0.70048  0.62474  1.0000
  H   H1270     1.0  0.20333  0.69170  0.62026  1.0000
  H   H1271     1.0  0.19515  0.66063  0.70246  1.0000
  H   H1272     1.0  0.20079  0.68967  0.69721  1.0000
  H   H1273     1.0  0.40035  0.66299  0.70347  1.0000
  H   H1274     1.0  0.19271  0.79767  0.72708  1.0000
  C   C712      1.0  0.14286  0.81030  0.66411  1.0000
  H   H1275     1.0  0.26810  0.68714  0.70973  1.0000
  H   H1276     1.0  0.27826  0.69254  0.68000  1.0000
  H   H1277     1.0  0.25217  0.70861  0.69177  1.0000
  H   H1278     1.0  0.27112  0.59487  0.67360  1.0000
  H   H1279     1.0  0.26016  0.61203  0.69576  1.0000
  H   H1280     1.0  0.24151  0.59577  0.68609  1.0000
  H   H1281     1.0  0.22746  0.70157  0.58411  1.0000
  H   H1282     1.0  0.25078  0.68092  0.59269  1.0000
  H   H1283     1.0  0.22459  0.67179  0.58840  1.0000
  H   H1284     1.0  0.33228  0.77891  0.72420  1.0000
  H   H1285     1.0  0.37216  0.68225  0.72343  1.0000
  H   H1286     1.0  0.48288  0.75062  0.70311  1.0000
  H   H1287     1.0  0.21463  0.73972  0.60938  1.0000
  H   H1288     1.0  0.43744  0.67707  0.66429  1.0000
  H   H1289     1.0  0.21397  0.72598  0.70760  1.0000
  H   H1290     1.0  0.21148  0.76343  0.67949  1.0000
  H   H1291     1.0  0.36517  0.68659  0.61083  1.0000
  C   C713      1.0  0.20192  0.75881  0.63737  1.0000
  H   H1292     1.0  0.33809  0.66847  0.69615  1.0000
  H   H1293     1.0  0.36454  0.58976  0.72027  1.0000
  N   N42       1.0  0.18086  0.78321  0.66810  1.0000
  S   S158      1.0  0.43505  0.69458  0.72338  1.0000
  H   H1294     1.0  0.34690  0.66607  0.62467  1.0000
  H   H1295     1.0  0.36513  0.60995  0.67968  1.0000
  C   C714      1.0  0.38744  0.51710  0.69156  1.0000
  C   C715      1.0  0.33604  0.69144  0.73133  1.0000
  H   H1296     1.0  0.39609  0.68114  0.67810  1.0000
  C   C716      1.0  0.19796  0.74748  0.61776  1.0000
  C   C717      1.0  0.40234  0.52983  0.67234  1.0000
  C   C718      1.0  0.19309  0.76774  0.68584  1.0000
  H   H1297     1.0  0.31760  0.53553  0.71079  1.0000
  H   H1298     1.0  0.41830  0.80815  0.67506  1.0000
  C   C719      1.0  0.27263  0.71141  0.49628  1.0000
  H   H1299     1.0  0.31977  0.68490  0.73105  1.0000
  H   H1300     1.0  0.39559  0.58749  0.71546  1.0000
  H   H1301     1.0  0.44289  0.65955  0.69065  1.0000
  H   H1302     1.0  0.35985  0.52596  0.67151  1.0000
  H   H1303     1.0  0.45392  0.64926  0.66415  1.0000
  C   C720      1.0  0.17903  0.77084  0.64884  1.0000
  H   H1304     1.0  0.21026  0.74548  0.64945  1.0000
  H   H1305     1.0  0.15631  0.67294  0.69207  1.0000
  H   H1306     1.0  0.28642  0.54202  0.65985  1.0000
  H   H1307     1.0  0.17135  0.78286  0.63525  1.0000
  C   C721      1.0  0.15705  0.79155  0.67884  1.0000
  H   H1308     1.0  0.15761  0.79774  0.69510  1.0000
  H   H1309     1.0  0.21408  0.77108  0.63037  1.0000
  H   H1310     1.0  0.16175  0.70216  0.68639  1.0000
  H   H1311     1.0  0.18689  0.73402  0.62394  1.0000
  S   S159      1.0  0.25151  0.94087  0.73610  1.0000
  H   H1312     1.0  0.20497  0.81072  0.68945  1.0000
  C   C722      1.0  0.20715  0.83949  0.66383  1.0000
  H   H1313     1.0  0.18493  0.73423  0.68211  1.0000
  H   H1314     1.0  0.15174  0.82542  0.65842  1.0000
  C   C723      1.0  0.35069  0.74075  0.50764  1.0000
  H   H1315     1.0  0.39515  0.61047  0.67880  1.0000
  H   H1316     1.0  0.32659  0.85598  0.71368  1.0000
  C   C724      1.0  0.11977  0.81817  0.67746  1.0000
  C   C725      1.0  0.19431  0.80265  0.65895  1.0000
  Fe  Fe79      1.0  0.40871  0.72298  0.73430  1.0000
  H   H1317     1.0  0.24033  0.73776  0.72857  1.0000
  H   H1318     1.0  0.19609  0.74292  0.72767  1.0000
  H   H1319     1.0  0.10978  0.83147  0.66664  1.0000
  C   C726      1.0  0.32133  0.52029  0.70181  1.0000
  H   H1320     1.0  0.21247  0.79610  0.65325  1.0000
  C   C727      1.0  0.19608  0.73211  0.71443  1.0000
  H   H1321     1.0  0.19673  0.85014  0.65142  1.0000
  C   C728      1.0  0.26854  0.50411  0.74242  1.0000
  H   H1322     1.0  0.10977  0.80377  0.68313  1.0000
  H   H1323     1.0  0.25855  0.98724  0.72620  1.0000
  H   H1324     1.0  0.16706  0.75803  0.65442  1.0000
  C   C729      1.0  0.31557  0.52827  0.67744  1.0000
  C   C730      1.0  0.28990  0.53565  0.67739  1.0000
  C   C731      1.0  0.19521  0.81937  0.67571  1.0000
  H   H1325     1.0  0.16503  0.74851  0.70258  1.0000
  H   H1326     1.0  0.39759  0.54845  0.67195  1.0000
  H   H1327     1.0  0.14668  0.77735  0.68363  1.0000
  H   H1328     1.0  0.13948  0.80383  0.64899  1.0000
  H   H1329     1.0  0.18741  0.71733  0.72253  1.0000
  H   H1330     1.0  0.18985  0.76018  0.60495  1.0000
  H   H1331     1.0  0.22427  0.83358  0.65490  1.0000
  H   H1332     1.0  0.40397  0.81717  0.70137  1.0000
  H   H1333     1.0  0.35635  0.68981  0.68741  1.0000
  N   N43       1.0  0.37365  0.65529  0.68685  1.0000
  C   C732      1.0  0.36844  0.65381  0.66357  1.0000
  C   C733      1.0  0.37250  0.63261  0.70175  1.0000
  C   C734      1.0  0.35542  0.67260  0.69711  1.0000
  C   C735      1.0  0.39651  0.66312  0.68605  1.0000
  C   C736      1.0  0.41743  0.64891  0.67407  1.0000
  C   C737      1.0  0.36871  0.67564  0.64625  1.0000
  C   C738      1.0  0.18330  0.74529  0.69541  1.0000
  C   C739      1.0  0.37861  0.61083  0.69004  1.0000
  C   C740      1.0  0.43920  0.65943  0.67326  1.0000
  C   C741      1.0  0.36422  0.67105  0.62331  1.0000
  H   H1334     1.0  0.35518  0.68924  0.65175  1.0000
  H   H1335     1.0  0.35133  0.64835  0.66496  1.0000
  H   H1336     1.0  0.38061  0.64062  0.65546  1.0000
  H   H1337     1.0  0.36292  0.75334  0.50338  1.0000
  H   H1338     1.0  0.16129  0.68694  0.71460  1.0000
  S   S160      1.0  0.26794  0.57427  0.73116  1.0000
  S   S161      1.0  0.28152  0.87694  0.73290  1.0000
  H   H1339     1.0  0.32281  0.82082  0.72392  1.0000
  H   H1340     1.0  0.36755  0.49924  0.72979  1.0000
  C   C742      1.0  0.48536  0.76551  0.71070  1.0000
  H   H1341     1.0  0.33794  0.74564  0.52217  1.0000
  H   H1342     1.0  0.34691  0.52364  0.73346  1.0000
  H   H1343     1.0  0.27258  0.76662  0.50251  1.0000
  C   C743      1.0  0.18188  0.80640  0.73985  1.0000
  S   S162      1.0  0.23181  0.63582  0.73728  1.0000
  H   H1344     1.0  0.28029  0.52116  0.68405  1.0000
  H   H1345     1.0  0.35998  0.72372  0.51293  1.0000
  C   C744      1.0  0.29717  0.78676  0.73808  1.0000
  C   C745      1.0  0.25329  0.74394  0.73636  1.0000
  S   S163      1.0  0.29229  0.61672  0.74021  1.0000
  C   C746      1.0  0.34956  0.50650  0.72792  1.0000
  S   S164      1.0  0.15285  0.77505  0.74158  1.0000
  H   H1346     1.0  0.32618  0.72779  0.49315  1.0000
  C   C747      1.0  0.26592  0.98025  0.74142  1.0000
  H   H1347     1.0  0.20800  0.68035  0.74112  1.0000
  Fe  Fe80      1.0  0.23262  0.72765  0.91254  1.0000
  S   S165      1.0  0.23809  0.75385  0.93286  1.0000
  S   S166      1.0  0.20019  0.71234  0.91521  1.0000
  Fe  Fe81      1.0  0.28102  0.72470  0.88710  1.0000
  S   S167      1.0  0.29098  0.75091  0.90479  1.0000
  S   S168      1.0  0.30054  0.70507  0.85973  1.0000
  Fe  Fe82      1.0  0.27245  0.73311  0.93647  1.0000
  S   S169      1.0  0.28781  0.71967  0.96880  1.0000
  Fe  Fe83      1.0  0.25599  0.76947  0.89981  1.0000
  S   S170      1.0  0.24833  0.80663  0.88722  1.0000
  S   S171      1.0  0.26531  0.70538  0.91889  1.0000
  S   S172      1.0  0.24772  0.74485  0.87934  1.0000
  Fe  Fe84      1.0  0.12734  0.70786  0.79412  1.0000
  S   S173      1.0  0.10091  0.72057  0.82184  1.0000
  S   S174      1.0  0.14005  0.67031  0.79739  1.0000
  Fe  Fe85      1.0  0.13067  0.75524  0.76901  1.0000
  S   S175      1.0  0.10414  0.77134  0.79433  1.0000
  H   H1348     1.0  0.39110  0.64736  0.90885  1.0000
  Fe  Fe86      1.0  0.12279  0.74785  0.82007  1.0000
  S   S176      1.0  0.13315  0.76409  0.84719  1.0000
  Fe  Fe87      1.0  0.08452  0.74271  0.79345  1.0000
  S   S177      1.0  0.04552  0.74998  0.79712  1.0000
  S   S178      1.0  0.15039  0.73340  0.79474  1.0000
  S   S179      1.0  0.10973  0.72821  0.76566  1.0000
  Fe  Fe88      1.0  0.27671  0.55697  0.76501  1.0000
  H   H1349     1.0  0.32865  0.77497  0.83850  1.0000
  S   S180      1.0  0.24068  0.88173  0.77636  1.0000
  S   S181      1.0  0.29157  0.82985  0.78545  1.0000
  Fe  Fe89      1.0  0.29878  0.59645  0.77327  1.0000
  S   S182      1.0  0.31443  0.61353  0.79626  1.0000
  C   C748      1.0  0.28576  0.98530  0.77187  1.0000
  H   H1350     1.0  0.32469  0.75258  0.76721  1.0000
  H   H1351     1.0  0.34929  0.73472  0.75560  1.0000
  S   S183      1.0  0.26300  0.58784  0.78253  1.0000
  Fe  Fe90      1.0  0.41477  0.71021  0.78369  1.0000
  S   S184      1.0  0.44193  0.68058  0.77729  1.0000
  S   S185      1.0  0.40152  0.72133  0.81795  1.0000
  H   H1352     1.0  0.41971  0.67165  0.84094  1.0000
  C   C749      1.0  0.21111  0.76948  0.98924  1.0000
  H   H1353     1.0  0.48742  0.73312  0.77005  1.0000
  S   S186      1.0  0.27046  0.52150  0.78158  1.0000
  H   H1354     1.0  0.20472  0.78877  0.90204  1.0000
  C   C750      1.0  0.27237  0.49947  0.76498  1.0000
  H   H1355     1.0  0.31699  0.63392  0.83828  1.0000
  C   C751      1.0  0.00437  0.74855  0.78341  1.0000
  H   H1356     1.0  0.19640  0.76838  0.98064  1.0000
  C   C752      1.0  0.21394  0.79459  0.98607  1.0000
  H   H1357     1.0  0.16554  0.62611  0.79547  1.0000
  H   H1358     1.0  0.30102  0.79436  0.75236  1.0000
  H   H1359     1.0  0.35730  0.77702  0.84314  1.0000
  C   C753      1.0  0.34171  0.62026  0.78442  1.0000
  C   C754      1.0  0.35586  0.60670  0.76966  1.0000
  C   C755      1.0  0.06046  0.68317  0.80474  1.0000
  H   H1360     1.0  0.38990  0.67263  0.87531  1.0000
  C   C756      1.0  0.37118  0.64478  0.78016  1.0000
  C   C757      1.0  0.34951  0.63913  0.78995  1.0000
  H   H1361     1.0  0.20949  0.74791  0.76690  1.0000
  C   C758      1.0  0.15493  0.82869  0.77391  1.0000
  H   H1362     1.0  0.00872  0.63651  0.80788  1.0000
  H   H1363     1.0  0.39989  0.66777  0.82267  1.0000
  H   H1364     1.0  0.23120  0.99038  0.78020  1.0000
  H   H1365     1.0  0.20049  0.80017  0.92830  1.0000
  Fe  Fe91      1.0  0.25747  0.60583  0.74800  1.0000
  H   H1366     1.0  0.03343  0.66090  0.78684  1.0000
  C   C759      1.0  0.27634  0.94797  0.76882  1.0000
  C   C760      1.0  0.28638  0.96201  0.77978  1.0000
  H   H1367     1.0  0.29441  0.95486  0.79460  1.0000
  C   C761      1.0  0.16633  0.66119  0.78153  1.0000
  C   C762      1.0  0.17844  0.67651  0.76631  1.0000
  H   H1368     1.0  0.37413  0.75031  0.77661  1.0000
  C   C763      1.0  0.20747  0.64535  0.75553  1.0000
  C   C764      1.0  0.19562  0.63012  0.77104  1.0000
  H   H1369     1.0  0.02726  0.69528  0.82093  1.0000
  H   H1370     1.0  0.17177  0.69438  0.76429  1.0000
  C   C765      1.0  0.34175  0.74352  0.77039  1.0000
  H   H1371     1.0  0.06135  0.69831  0.79166  1.0000
  H   H1372     1.0  0.32432  0.70867  0.90978  1.0000
  H   H1373     1.0  0.36391  0.61861  0.87486  1.0000
  H   H1374     1.0  0.39849  0.77563  0.76873  1.0000
  H   H1375     1.0  0.43811  0.77870  0.77327  1.0000
  H   H1376     1.0  0.31517  0.61907  0.86661  1.0000
  H   H1377     1.0  0.32738  0.68993  0.93586  1.0000
  H   H1378     1.0  0.33963  0.73061  0.78552  1.0000
  C   C766      1.0  0.21983  0.94992  0.79895  1.0000
  H   H1379     1.0  0.33048  0.51132  0.77298  1.0000
  C   C767      1.0  0.21334  0.98962  0.77747  1.0000
  H   H1380     1.0  0.32586  0.65818  0.86290  1.0000
  C   C768      1.0  0.02829  0.74398  0.77826  1.0000
  C   C769      1.0  0.35528  0.81051  0.77618  1.0000
  C   C770      1.0  0.32807  0.71095  0.84781  1.0000
  C   C771      1.0  0.33980  0.72446  0.85736  1.0000
  C   C772      1.0  0.36247  0.72735  0.84825  1.0000
  C   C773      1.0  0.37323  0.71725  0.82926  1.0000
  C   C774      1.0  0.36136  0.70385  0.81977  1.0000
  C   C775      1.0  0.33891  0.70067  0.82902  1.0000
  H   H1381     1.0  0.33161  0.73232  0.87199  1.0000
  H   H1382     1.0  0.37171  0.73739  0.85596  1.0000
  H   H1383     1.0  0.36964  0.69526  0.80576  1.0000
  H   H1384     1.0  0.33004  0.68992  0.82175  1.0000
  C   C776      1.0  0.18237  0.72603  0.89520  1.0000
  C   C777      1.0  0.18525  0.74780  0.88419  1.0000
  C   C778      1.0  0.17034  0.75905  0.86906  1.0000
  C   C779      1.0  0.15276  0.74846  0.86446  1.0000
  C   C780      1.0  0.15015  0.72645  0.87500  1.0000
  C   C781      1.0  0.16486  0.71531  0.89050  1.0000
  H   H1385     1.0  0.19856  0.75620  0.88785  1.0000
  H   H1386     1.0  0.17230  0.77605  0.86096  1.0000
  H   H1387     1.0  0.13641  0.71831  0.87168  1.0000
  H   H1388     1.0  0.16254  0.69848  0.89899  1.0000
  C   C782      1.0  0.25945  0.81277  0.85865  1.0000
  C   C783      1.0  0.27302  0.79591  0.84716  1.0000
  C   C784      1.0  0.28244  0.80119  0.82454  1.0000
  C   C785      1.0  0.27829  0.82328  0.81328  1.0000
  C   C786      1.0  0.26436  0.84005  0.82463  1.0000
  C   C787      1.0  0.25504  0.83481  0.84734  1.0000
  H   H1389     1.0  0.27680  0.77895  0.85587  1.0000
  H   H1390     1.0  0.29317  0.78820  0.81587  1.0000
  H   H1391     1.0  0.26146  0.85723  0.81617  1.0000
  H   H1392     1.0  0.24481  0.84793  0.85631  1.0000
  H   H1393     1.0  0.42477  0.64719  0.82620  1.0000
  H   H1394     1.0  0.23362  0.73007  0.77575  1.0000
  N   N44       1.0  0.16401  0.84224  0.86732  1.0000
  C   C788      1.0  0.15408  0.83646  0.84784  1.0000
  C   C789      1.0  0.18468  0.85446  0.85875  1.0000
  C   C790      1.0  0.17201  0.82009  0.88122  1.0000
  C   C791      1.0  0.14646  0.85603  0.88237  1.0000
  C   C792      1.0  0.13404  0.87827  0.87071  1.0000
  C   C793      1.0  0.13237  0.82445  0.85414  1.0000
  C   C794      1.0  0.18394  0.82195  0.90171  1.0000
  C   C795      1.0  0.18457  0.87018  0.83575  1.0000
  H   H1395     1.0  0.37632  0.83359  0.78551  1.0000
  C   C796      1.0  0.11441  0.88870  0.88704  1.0000
  C   C797      1.0  0.12274  0.82171  0.83297  1.0000
  C   C798      1.0  0.19205  0.79845  0.91372  1.0000
  H   H1396     1.0  0.16726  0.82548  0.83779  1.0000
  H   H1397     1.0  0.14948  0.85174  0.83575  1.0000
  H   H1398     1.0  0.18767  0.86456  0.87162  1.0000
  H   H1399     1.0  0.20060  0.84207  0.85649  1.0000
  H   H1400     1.0  0.18419  0.80900  0.87028  1.0000
  H   H1401     1.0  0.15747  0.81051  0.88828  1.0000
  H   H1402     1.0  0.13341  0.84548  0.89179  1.0000
  H   H1403     1.0  0.15455  0.86120  0.89570  1.0000
  H   H1404     1.0  0.12663  0.87550  0.85590  1.0000
  H   H1405     1.0  0.14611  0.89089  0.86532  1.0000
  H   H1406     1.0  0.13629  0.80724  0.86347  1.0000
  H   H1407     1.0  0.11861  0.83429  0.86462  1.0000
  H   H1408     1.0  0.17198  0.83100  0.91438  1.0000
  H   H1409     1.0  0.19907  0.83102  0.89635  1.0000
  H   H1410     1.0  0.18696  0.85973  0.82177  1.0000
  H   H1411     1.0  0.16835  0.88180  0.83477  1.0000
  H   H1412     1.0  0.21773  0.80080  0.96776  1.0000
  H   H1413     1.0  0.13204  0.80425  0.77546  1.0000
  C   C799      1.0  0.14801  0.80977  0.76746  1.0000
  H   H1414     1.0  0.10131  0.87707  0.89252  1.0000
  C   C800      1.0  0.40116  0.78652  0.78087  1.0000
  H   H1415     1.0  0.35944  0.77186  0.75762  1.0000
  H   H1416     1.0  0.13566  0.81140  0.82202  1.0000
  H   H1417     1.0  0.10747  0.81275  0.83789  1.0000
  H   H1418     1.0  0.11753  0.83850  0.82330  1.0000
  H   H1419     1.0  0.06894  0.68584  0.81894  1.0000
  H   H1420     1.0  0.17745  0.78876  0.92000  1.0000
  C   C801      1.0  0.26588  0.95713  0.74968  1.0000
  H   H1421     1.0  0.34341  0.71351  0.92816  1.0000
  H   H1422     1.0  0.31427  0.81053  0.85616  1.0000
  H   H1423     1.0  0.36763  0.67691  0.92158  1.0000
  H   H1424     1.0  0.32837  0.77793  0.79334  1.0000
  H   H1425     1.0  0.34601  0.85120  0.74794  1.0000
  C   C802      1.0  0.35729  0.76021  0.77365  1.0000
  H   H1426     1.0  0.34826  0.75950  0.80914  1.0000
  H   H1427     1.0  0.20245  0.89558  0.84476  1.0000
  H   H1428     1.0  0.32653  0.81102  0.81312  1.0000
  C   C803      1.0  0.16141  0.79858  0.75032  1.0000
  N   N45       1.0  0.36445  0.65015  0.88771  1.0000
  Fe  Fe92      1.0  0.45611  0.70404  0.74739  1.0000
  C   C804      1.0  0.38520  0.63135  0.76511  1.0000
  H   H1429     1.0  0.38889  0.60110  0.74964  1.0000
  S   S187      1.0  0.41166  0.63868  0.75101  1.0000
  H   H1430     1.0  0.35527  0.64105  0.93670  1.0000
  H   H1431     1.0  0.23617  0.95299  0.80363  1.0000
  S   S188      1.0  0.24697  0.83809  0.74765  1.0000
  C   C805      1.0  0.33066  0.79980  0.85937  1.0000
  H   H1432     1.0  0.03577  0.66516  0.82693  1.0000
  S   S189      1.0  0.31305  0.56445  0.75846  1.0000
  H   H1433     1.0  0.42847  0.78951  0.79978  1.0000
  C   C806      1.0  0.27553  0.99436  0.75259  1.0000
  H   H1434     1.0  0.26450  0.72960  0.79032  1.0000
  C   C807      1.0  0.17541  0.83641  0.76347  1.0000
  C   C808      1.0  0.24169  0.76015  0.75317  1.0000
  S   S190      1.0  0.39106  0.70105  0.76269  1.0000
  C   C809      1.0  0.34385  0.80329  0.81698  1.0000
  Fe  Fe93      1.0  0.41911  0.67342  0.75397  1.0000
  C   C810      1.0  0.38207  0.78629  0.80153  1.0000
  C   C811      1.0  0.39780  0.64557  0.85488  1.0000
  H   H1435     1.0  0.27032  0.76646  0.97594  1.0000
  H   H1436     1.0  0.36558  0.86641  0.75715  1.0000
  H   H1437     1.0  0.38654  0.79758  0.81256  1.0000
  H   H1438     1.0  0.35184  0.81750  0.82066  1.0000
  C   C812      1.0  0.17502  0.63803  0.78393  1.0000
  C   C813      1.0  0.03772  0.73441  0.75867  1.0000
  H   H1439     1.0  0.35013  0.59189  0.76566  1.0000
  H   H1440     1.0  0.33973  0.61198  0.84584  1.0000
  H   H1441     1.0  0.00353  0.65113  0.83156  1.0000
  H   H1442     1.0  0.10613  0.90490  0.87847  1.0000
  H   H1443     1.0  0.21216  0.93753  0.81246  1.0000
  C   C814      1.0  0.36227  0.84929  0.75515  1.0000
  C   C815      1.0  0.34071  0.78690  0.83944  1.0000
  C   C816      1.0  0.03557  0.67988  0.81338  1.0000
  H   H1444     1.0  0.01862  0.65680  0.75701  1.0000
  H   H1445     1.0  0.05611  0.73093  0.75448  1.0000
  H   H1446     1.0  0.13807  0.98972  0.77611  1.0000
  H   H1447     1.0  0.25543  0.76693  0.75904  1.0000
  H   H1448     1.0  0.35364  0.61586  0.92494  1.0000
  H   H1449     1.0  0.36595  0.69665  0.89605  1.0000
  H   H1450     1.0  0.27647  0.93017  0.77530  1.0000
  H   H1451     1.0  0.33868  0.64964  0.80144  1.0000
  H   H1452     1.0  0.33358  0.66007  0.91018  1.0000
  H   H1453     1.0  0.02499  0.69062  0.78033  1.0000
  H   H1454     1.0  0.22694  0.76039  0.98081  1.0000
  N   N46       1.0  0.22174  0.75836  0.79483  1.0000
  C   C817      1.0  0.22609  0.74813  0.77303  1.0000
  C   C818      1.0  0.20591  0.74534  0.81256  1.0000
  C   C819      1.0  0.20978  0.78224  0.78966  1.0000
  C   C820      1.0  0.24359  0.75958  0.80383  1.0000
  C   C821      1.0  0.26060  0.73736  0.80613  1.0000
  C   C822      1.0  0.20275  0.79601  0.80996  1.0000
  C   C823      1.0  0.20729  0.71956  0.81173  1.0000
  C   C824      1.0  0.19334  0.70801  0.83250  1.0000
  C   C825      1.0  0.28340  0.74180  0.81160  1.0000
  C   C826      1.0  0.21875  0.81339  0.81010  1.0000
  H   H1455     1.0  0.20858  0.74726  0.82992  1.0000
  H   H1456     1.0  0.18761  0.75249  0.81159  1.0000
  H   H1457     1.0  0.19382  0.78178  0.78251  1.0000
  H   H1458     1.0  0.22016  0.79244  0.77604  1.0000
  H   H1459     1.0  0.25283  0.77310  0.79339  1.0000
  H   H1460     1.0  0.23971  0.76508  0.82092  1.0000
  C   C827      1.0  0.35202  0.63395  0.87930  1.0000
  H   H1461     1.0  0.25362  0.72504  0.82015  1.0000
  H   H1462     1.0  0.20141  0.78519  0.82657  1.0000
  H   H1463     1.0  0.18541  0.80554  0.80853  1.0000
  H   H1464     1.0  0.20030  0.71678  0.79661  1.0000
  H   H1465     1.0  0.22511  0.71101  0.81079  1.0000
  H   H1466     1.0  0.17521  0.71598  0.83390  1.0000
  H   H1467     1.0  0.19377  0.68988  0.83095  1.0000
  H   H1468     1.0  0.20033  0.70922  0.84814  1.0000
  H   H1469     1.0  0.29101  0.75445  0.79834  1.0000
  H   H1470     1.0  0.28106  0.74798  0.82827  1.0000
  H   H1471     1.0  0.29556  0.72580  0.81228  1.0000
  H   H1472     1.0  0.21866  0.82598  0.79459  1.0000
  H   H1473     1.0  0.21295  0.82256  0.82489  1.0000
  H   H1474     1.0  0.23650  0.80516  0.81129  1.0000
  N   N47       1.0  0.24260  0.64414  0.83012  1.0000
  C   C828      1.0  0.21994  0.63555  0.83852  1.0000
  C   C829      1.0  0.24545  0.66296  0.84285  1.0000
  C   C830      1.0  0.24237  0.65387  0.80546  1.0000
  C   C831      1.0  0.26253  0.62542  0.83154  1.0000
  C   C832      1.0  0.26452  0.61118  0.85497  1.0000
  C   C833      1.0  0.21553  0.61524  0.82778  1.0000
  C   C834      1.0  0.26269  0.66673  0.79404  1.0000
  C   C835      1.0  0.23549  0.66122  0.86826  1.0000
  C   C836      1.0  0.24363  0.67870  0.87965  1.0000
  C   C837      1.0  0.28141  0.58945  0.85284  1.0000
  C   C838      1.0  0.19199  0.60839  0.83731  1.0000
  C   C839      1.0  0.26028  0.67578  0.76933  1.0000
  H   H1475     1.0  0.20564  0.64959  0.83583  1.0000
  H   H1476     1.0  0.21778  0.63006  0.85700  1.0000
  H   H1477     1.0  0.26389  0.66502  0.84120  1.0000
  H   H1478     1.0  0.23693  0.67949  0.83523  1.0000
  H   H1479     1.0  0.22626  0.66572  0.80327  1.0000
  H   H1480     1.0  0.24243  0.64026  0.79500  1.0000
  H   H1481     1.0  0.26262  0.61372  0.81906  1.0000
  H   H1482     1.0  0.27889  0.63250  0.82647  1.0000
  H   H1483     1.0  0.24801  0.60599  0.86351  1.0000
  H   H1484     1.0  0.27106  0.62110  0.86588  1.0000
  H   H1485     1.0  0.21605  0.61951  0.80928  1.0000
  H   H1486     1.0  0.22848  0.60021  0.83126  1.0000
  H   H1487     1.0  0.27920  0.65534  0.79422  1.0000
  H   H1488     1.0  0.26360  0.68142  0.80263  1.0000
  H   H1489     1.0  0.21648  0.66466  0.87014  1.0000
  H   H1490     1.0  0.24038  0.64430  0.87762  1.0000
  H   H1491     1.0  0.23800  0.69619  0.87165  1.0000
  H   H1492     1.0  0.23623  0.67705  0.89777  1.0000
  H   H1493     1.0  0.26256  0.67590  0.87859  1.0000
  H   H1494     1.0  0.28335  0.58000  0.86989  1.0000
  H   H1495     1.0  0.27510  0.57836  0.84289  1.0000
  H   H1496     1.0  0.29846  0.59343  0.84434  1.0000
  H   H1497     1.0  0.19096  0.60252  0.85575  1.0000
  H   H1498     1.0  0.17832  0.62292  0.83427  1.0000
  H   H1499     1.0  0.18897  0.59434  0.82882  1.0000
  H   H1500     1.0  0.26054  0.66153  0.75964  1.0000
  H   H1501     1.0  0.24402  0.68747  0.76801  1.0000
  H   H1502     1.0  0.27481  0.68510  0.76158  1.0000
  H   H1503     1.0  0.32726  0.78754  0.87488  1.0000
  C   C840      1.0  0.37882  0.63691  0.90502  1.0000
  H   H1504     1.0  0.12087  0.89229  0.90214  1.0000
  H   H1505     1.0  0.37704  0.65936  0.78439  1.0000
  C   C841      1.0  0.41132  0.65894  0.83504  1.0000
  C   C842      1.0  0.38175  0.61356  0.94352  1.0000
  H   H1506     1.0  0.33728  0.67833  0.88459  1.0000
  C   C843      1.0  0.42472  0.77836  0.78830  1.0000
  C   C844      1.0  0.27338  0.75665  0.99202  1.0000
  C   C845      1.0  0.36029  0.83450  0.77817  1.0000
  N   N48       1.0  0.35761  0.79309  0.79688  1.0000
  H   H1507     1.0  0.36634  0.80476  0.76107  1.0000
  H   H1508     1.0  0.22077  0.87371  0.83045  1.0000
  C   C846      1.0  0.18879  0.82533  0.74626  1.0000
  H   H1509     1.0  0.20315  0.89573  0.81485  1.0000
  H   H1510     1.0  0.18733  0.96774  0.79203  1.0000
  C   C847      1.0  0.32708  0.62601  0.85208  1.0000
  H   H1511     1.0  0.33760  0.81259  0.77181  1.0000
  H   H1512     1.0  0.38408  0.76905  0.81145  1.0000
  H   H1513     1.0  0.36978  0.67343  0.85691  1.0000
  H   H1514     1.0  0.07003  0.66801  0.79750  1.0000
  Fe  Fe94      1.0  0.26881  0.85501  0.76453  1.0000
  C   C848      1.0  0.36543  0.62726  0.92773  1.0000
  C   C849      1.0  0.33663  0.70023  0.92144  1.0000
  H   H1515     1.0  0.37177  0.60695  0.95966  1.0000
  H   H1516     1.0  0.39186  0.59892  0.93576  1.0000
  C   C850      1.0  0.33916  0.64384  0.85879  1.0000
  C   C851      1.0  0.37773  0.61196  0.76050  1.0000
  H   H1517     1.0  0.34601  0.84318  0.78925  1.0000
  C   C852      1.0  0.35624  0.68532  0.90907  1.0000
  C   C853      1.0  0.19890  0.66856  0.75321  1.0000
  C   C854      1.0  0.02321  0.67591  0.79391  1.0000
  H   H1518     1.0  0.14434  0.83750  0.78690  1.0000
  H   H1519     1.0  0.38976  0.62218  0.89804  1.0000
  C   C855      1.0  0.20396  0.88466  0.83132  1.0000
  H   H1520     1.0  0.35100  0.64984  0.84376  1.0000
  C   C856      1.0  0.37999  0.66162  0.86871  1.0000
  H   H1521     1.0  0.20192  0.61216  0.77258  1.0000
  H   H1522     1.0  0.33899  0.62742  0.89301  1.0000
  H   H1523     1.0  0.38956  0.63364  0.84776  1.0000
  H   H1524     1.0  0.41026  0.63558  0.86566  1.0000
  H   H1525     1.0  0.34284  0.81073  0.86237  1.0000
  H   H1526     1.0  0.22343  0.94237  0.78294  1.0000
  S   S191      1.0  0.18413  0.85955  0.77256  1.0000
  H   H1527     1.0  0.42559  0.76069  0.79716  1.0000
  C   C857      1.0  0.34688  0.66801  0.89780  1.0000
  C   C858      1.0  0.34700  0.77275  0.79419  1.0000
  H   H1528     1.0  0.15437  0.71225  0.98880  1.0000
  H   H1529     1.0  0.00967  0.82184  0.77260  1.0000
  H   H1530     1.0  0.33740  0.69301  0.74910  1.0000
  H   H1531     1.0  0.39359  0.62442  0.94736  1.0000
  H   H1532     1.0  0.37658  0.84173  0.74332  1.0000
  C   C859      1.0  0.20329  0.97203  0.79641  1.0000
  Fe  Fe95      1.0  0.21958  0.86638  0.75686  1.0000
  C   C860      1.0  0.02329  0.72916  0.74457  1.0000
  H   H1533     1.0  0.15636  0.74113  0.97535  1.0000
  H   H1534     1.0  0.26389  0.72923  0.74487  1.0000
  H   H1535     1.0  0.19870  0.73369  0.97433  1.0000
  S   S192      1.0  0.43082  0.73444  0.75571  1.0000
  H   H1536     1.0  0.16920  0.71762  0.96052  1.0000
  H   H1537     1.0  0.40171  0.80394  0.77177  1.0000
  C   C861      1.0  0.16552  0.72354  0.97738  1.0000
  H   H1538     1.0  0.24150  0.68515  0.98598  1.0000
  H   H1539     1.0  0.19694  0.70524  0.98705  1.0000
  H   H1540     1.0  0.19981  0.97825  0.81304  1.0000
  H   H1541     1.0  0.21499  0.98178  0.76181  1.0000
  H   H1542     1.0  0.00123  0.80131  0.79648  1.0000
  H   H1543     1.0  0.00232  0.83006  0.80050  1.0000
  H   H1544     1.0  0.29535  0.76866  0.74392  1.0000
  C   C862      1.0  0.18796  0.72286  0.98666  1.0000
  Fe  Fe96      1.0  0.25146  0.90260  0.74317  1.0000
  H   H1545     1.0  0.23132  0.77462  0.74398  1.0000
  Fe  Fe97      1.0  0.88995  0.23281  0.21028  1.0000
  S   S193      1.0  0.86391  0.25593  0.19065  1.0000
  S   S194      1.0  0.91913  0.20713  0.19857  1.0000
  H   H1546     1.0  0.65287  0.33136  0.20529  1.0000
  H   H1547     1.0  0.62484  0.17360  0.18996  1.0000
  H   H1548     1.0  0.84380  0.20011  0.19812  1.0000
  H   H1549     1.0  0.84238  0.05257  0.16868  1.0000
  S   S195      1.0  0.76167  0.08154  0.21607  1.0000
  C   C863      1.0  0.67408  0.27924  0.15243  1.0000
  H   H1550     1.0  0.64811  0.33851  0.17673  1.0000
  Fe  Fe98      1.0  0.79137  0.10108  0.21076  1.0000
  S   S196      1.0  0.81075  0.11636  0.17864  1.0000
  H   H1551     1.0  0.69049  0.37594  0.18222  1.0000
  Fe  Fe99      1.0  0.79887  0.23383  0.09893  1.0000
  S   S197      1.0  0.77431  0.22415  0.12949  1.0000
  S   S198      1.0  0.83635  0.22701  0.10322  1.0000
  Fe  Fe100     1.0  0.76107  0.24826  0.06904  1.0000
  S   S199      1.0  0.73352  0.24045  0.09801  1.0000
  S   S200      1.0  0.74785  0.26039  0.03535  1.0000
  Fe  Fe101     1.0  0.75272  0.25664  0.11852  1.0000
  S   S201      1.0  0.73550  0.27307  0.14891  1.0000
  Fe  Fe102     1.0  0.75737  0.20890  0.10644  1.0000
  S   S202      1.0  0.74318  0.17597  0.11685  1.0000
  S   S203      1.0  0.77835  0.26771  0.08902  1.0000
  S   S204      1.0  0.78385  0.21535  0.07645  1.0000
  S   S205      1.0  0.79011  0.02006  0.22647  1.0000
  C   C864      1.0  0.81418  0.17854  0.23080  1.0000
  H   H1552     1.0  0.66837  0.36781  0.20458  1.0000
  C   C865      1.0  0.85425  0.05263  0.18103  1.0000
  H   H1553     1.0  0.81855  0.14476  0.04540  1.0000
  S   S206      1.0  0.76829  0.38563  0.21729  1.0000
  C   C866      1.0  0.72929  0.14111  0.08234  1.0000
  Fe  Fe103     1.0  0.73986  0.37662  0.20184  1.0000
  S   S207      1.0  0.74561  0.37145  0.16503  1.0000
  S   S208      1.0  0.71431  0.40534  0.21360  1.0000
  H   H1554     1.0  0.71303  0.12020  0.11099  1.0000
  C   C867      1.0  0.67516  0.36701  0.18648  1.0000
  C   C868      1.0  0.72843  0.15786  0.00920  1.0000
  C   C869      1.0  0.74088  0.30002  0.15198  1.0000
  C   C870      1.0  0.74308  0.30417  0.17355  1.0000
  C   C871      1.0  0.74403  0.32612  0.17758  1.0000
  C   C872      1.0  0.74351  0.34407  0.15997  1.0000
  C   C873      1.0  0.74186  0.33996  0.13815  1.0000
  C   C874      1.0  0.74041  0.31790  0.13416  1.0000
  H   H1555     1.0  0.74344  0.29047  0.18741  1.0000
  H   H1556     1.0  0.74538  0.32910  0.19431  1.0000
  H   H1557     1.0  0.74146  0.35385  0.12442  1.0000
  H   H1558     1.0  0.73846  0.31483  0.11748  1.0000
  C   C875      1.0  0.75430  0.24350  0.01310  1.0000
  C   C876      1.0  0.77473  0.22862  0.01054  1.0000
  C   C877      1.0  0.68972  0.19405  0.16527  1.0000
  C   C878      1.0  0.68187  0.34238  0.18214  1.0000
  H   H1559     1.0  0.78692  0.22742  0.02223  1.0000
  H   H1560     1.0  0.73531  0.14927  0.24143  1.0000
  H   H1561     1.0  0.61621  0.32195  0.18828  1.0000
  C   C879      1.0  0.79339  0.13047  0.15871  1.0000
  C   C880      1.0  0.77229  0.12373  0.15780  1.0000
  C   C881      1.0  0.75740  0.13691  0.14355  1.0000
  C   C882      1.0  0.76341  0.15711  0.13087  1.0000
  C   C883      1.0  0.78508  0.16303  0.13075  1.0000
  C   C884      1.0  0.80014  0.14961  0.14456  1.0000
  H   H1562     1.0  0.76737  0.10859  0.16833  1.0000
  H   H1563     1.0  0.74097  0.13191  0.14301  1.0000
  H   H1564     1.0  0.79017  0.17818  0.12037  1.0000
  H   H1565     1.0  0.81663  0.15465  0.14499  1.0000
  C   C885      1.0  0.85661  0.24716  0.16653  1.0000
  C   C886      1.0  0.86982  0.22940  0.15607  1.0000
  C   C887      1.0  0.86361  0.22342  0.13653  1.0000
  C   C888      1.0  0.84391  0.23481  0.12765  1.0000
  C   C889      1.0  0.83068  0.25248  0.13820  1.0000
  C   C890      1.0  0.83711  0.25861  0.15748  1.0000
  H   H1566     1.0  0.88500  0.22049  0.16277  1.0000
  H   H1567     1.0  0.87402  0.20984  0.12834  1.0000
  H   H1568     1.0  0.81543  0.26132  0.13154  1.0000
  H   H1569     1.0  0.82670  0.27199  0.16571  1.0000
  C   C891      1.0  0.73732  0.18513  0.05143  1.0000
  S   S209      1.0  0.61202  0.24615  0.24086  1.0000
  N   N49       1.0  0.82347  0.32923  0.15450  1.0000
  C   C892      1.0  0.84690  0.32056  0.16128  1.0000
  C   C893      1.0  0.80500  0.31955  0.17187  1.0000
  C   C894      1.0  0.82294  0.32131  0.13213  1.0000
  C   C895      1.0  0.81882  0.35481  0.15116  1.0000
  C   C896      1.0  0.82030  0.36648  0.17172  1.0000
  C   C897      1.0  0.86762  0.32785  0.14435  1.0000
  C   C898      1.0  0.79925  0.32471  0.12376  1.0000
  C   C899      1.0  0.81008  0.31312  0.19665  1.0000
  C   C900      1.0  0.78848  0.30873  0.21298  1.0000
  C   C901      1.0  0.81494  0.39226  0.16634  1.0000
  C   C902      1.0  0.89003  0.31882  0.15390  1.0000
  C   C903      1.0  0.80140  0.31711  0.10052  1.0000
  H   H1570     1.0  0.84940  0.30167  0.16412  1.0000
  H   H1571     1.0  0.84861  0.32570  0.17763  1.0000
  H   H1572     1.0  0.78870  0.33140  0.17191  1.0000
  H   H1573     1.0  0.80092  0.30360  0.16744  1.0000
  H   H1574     1.0  0.82971  0.30292  0.13281  1.0000
  H   H1575     1.0  0.83435  0.33024  0.11842  1.0000
  H   H1576     1.0  0.83037  0.36208  0.13646  1.0000
  H   H1577     1.0  0.80124  0.36066  0.14678  1.0000
  H   H1578     1.0  0.83769  0.36254  0.17667  1.0000
  H   H1579     1.0  0.80754  0.36112  0.18616  1.0000
  H   H1580     1.0  0.86883  0.32084  0.12826  1.0000
  H   H1581     1.0  0.86639  0.34659  0.14073  1.0000
  H   H1582     1.0  0.79140  0.34273  0.12230  1.0000
  H   H1583     1.0  0.78735  0.31445  0.13536  1.0000
  H   H1584     1.0  0.82263  0.29739  0.19799  1.0000
  H   H1585     1.0  0.81725  0.32658  0.20245  1.0000
  H   H1586     1.0  0.77679  0.32488  0.21436  1.0000
  H   H1587     1.0  0.77954  0.29634  0.20730  1.0000
  H   H1588     1.0  0.79297  0.30185  0.23005  1.0000
  H   H1589     1.0  0.81609  0.40022  0.18138  1.0000
  H   H1590     1.0  0.82729  0.39890  0.15204  1.0000
  H   H1591     1.0  0.79727  0.39717  0.16201  1.0000
  H   H1592     1.0  0.90470  0.32380  0.14138  1.0000
  H   H1593     1.0  0.89035  0.32588  0.16969  1.0000
  H   H1594     1.0  0.89214  0.29997  0.15754  1.0000
  H   H1595     1.0  0.80912  0.29902  0.10106  1.0000
  H   H1596     1.0  0.78416  0.31893  0.09526  1.0000
  H   H1597     1.0  0.81214  0.32768  0.08771  1.0000
  H   H1598     1.0  0.66207  0.37592  0.17585  1.0000
  C   C904      1.0  0.63384  0.17850  0.20272  1.0000
  H   H1599     1.0  0.69668  0.28717  0.12095  1.0000
  H   H1600     1.0  0.71592  0.14649  0.05101  1.0000
  C   C905      1.0  0.71429  0.12393  0.19620  1.0000
  H   H1601     1.0  0.76377  0.15069  0.01274  1.0000
  H   H1602     1.0  0.87203  0.05126  0.17203  1.0000
  C   C906      1.0  0.72068  0.21704  0.16850  1.0000
  H   H1603     1.0  0.79513  0.25980  0.19246  1.0000
  H   H1604     1.0  0.68171  0.26340  0.12178  1.0000
  C   C907      1.0  0.79594  0.17598  0.19724  1.0000
  C   C908      1.0  0.73321  0.14385  0.05615  1.0000
  H   H1605     1.0  0.63953  0.16301  0.21408  1.0000
  H   H1606     1.0  0.78439  0.18836  0.03949  1.0000
  H   H1607     1.0  0.76655  0.25208  0.19735  1.0000
  H   H1608     1.0  0.68942  0.34250  0.16414  1.0000
  H   H1609     1.0  0.73422  0.20459  0.16076  1.0000
  H   H1610     1.0  0.66164  0.19578  0.20543  1.0000
  H   H1611     1.0  0.72775  0.11249  0.18706  1.0000
  H   H1612     1.0  0.71837  0.15352  0.17201  1.0000
  H   H1613     1.0  0.75949  0.17214  0.17617  1.0000
  C   C909      1.0  0.79298  0.22643  0.18401  1.0000
  H   H1614     1.0  0.77981  0.21844  0.17841  1.0000
  H   H1615     1.0  0.69915  0.12393  0.08604  1.0000
  H   H1616     1.0  0.73922  0.16691  0.20104  1.0000
  H   H1617     1.0  0.71478  0.23029  0.15491  1.0000
  S   S210      1.0  0.81344  0.07407  0.22985  1.0000
  H   H1618     1.0  0.67111  0.14605  0.19802  1.0000
  H   H1619     1.0  0.77734  0.13788  0.04956  1.0000
  H   H1620     1.0  0.75340  0.18009  0.01037  1.0000
  H   H1621     1.0  0.71421  0.22879  0.05271  1.0000
  C   C910      1.0  0.78306  0.25114  0.18591  1.0000
  C   C911      1.0  0.75977  0.00871  0.17491  1.0000
  C   C912      1.0  0.62255  0.30496  0.18301  1.0000
  H   H1622     1.0  0.66145  0.31508  0.14969  1.0000
  H   H1623     1.0  0.97709  0.16969  0.23132  1.0000
  H   H1624     1.0  0.81177  0.22359  0.21250  1.0000
  C   C913      1.0  0.77080  0.15601  0.05122  1.0000
  H   H1625     1.0  0.83344  0.03447  0.20767  1.0000
  C   C914      1.0  0.70895  0.25846  0.21546  1.0000
  H   H1626     1.0  0.68882  0.16316  0.20600  1.0000
  H   H1627     1.0  0.76883  0.16850  0.22508  1.0000
  C   C915      1.0  0.70329  0.21521  0.05894  1.0000
  H   H1628     1.0  0.73853  0.18514  0.06956  1.0000
  H   H1629     1.0  0.71916  0.15669  0.08824  1.0000
  H   H1630     1.0  0.77037  0.15777  0.06933  1.0000
  H   H1631     1.0  0.69535  0.33476  0.19278  1.0000
  H   H1632     1.0  0.82509  0.17338  0.03751  1.0000
  H   H1633     1.0  0.64741  0.20740  0.18172  1.0000
  C   C916      1.0  0.71248  0.19427  0.04723  1.0000
  H   H1634     1.0  0.68800  0.21830  0.18917  1.0000
  H   H1635     1.0  0.70727  0.19267  0.19495  1.0000
  Fe  Fe104     1.0  0.90639  0.18422  0.22949  1.0000
  H   H1636     1.0  0.68568  0.22185  0.05521  1.0000
  H   H1637     1.0  0.66294  0.13952  0.12741  1.0000
  H   H1638     1.0  0.84879  0.36268  0.21307  1.0000
  C   C917      1.0  0.83865  0.36677  0.22929  1.0000
  H   H1639     1.0  0.70072  0.18156  0.05373  1.0000
  H   H1640     1.0  0.84996  0.06908  0.18785  1.0000
  H   H1641     1.0  0.70931  0.24038  0.22281  1.0000
  H   H1642     1.0  0.68124  0.20816  0.15388  1.0000
  H   H1643     1.0  0.67434  0.15768  0.10294  1.0000
  C   C918      1.0  0.71599  0.12136  0.09226  1.0000
  H   H1644     1.0  0.70392  0.18543  0.15414  1.0000
  H   H1645     1.0  0.77997  0.26015  0.16895  1.0000
  H   H1646     1.0  0.74147  0.12720  0.05091  1.0000
  H   H1647     1.0  0.74566  0.13759  0.08945  1.0000
  Fe  Fe105     1.0  0.93934  0.21950  0.22154  1.0000
  H   H1648     1.0  0.72824  0.22515  0.18022  1.0000
  C   C919      1.0  0.64407  0.29405  0.19413  1.0000
  C   C920      1.0  0.68463  0.29349  0.19854  1.0000
  C   C921      1.0  0.68561  0.26792  0.20799  1.0000
  C   C922      1.0  0.70072  0.20527  0.18135  1.0000
  C   C923      1.0  0.60309  0.29058  0.19016  1.0000
  H   H1649     1.0  0.63986  0.29505  0.21255  1.0000
  H   H1650     1.0  0.64658  0.27564  0.19295  1.0000
  H   H1651     1.0  0.70139  0.29605  0.18847  1.0000
  H   H1652     1.0  0.68375  0.30204  0.21376  1.0000
  H   H1653     1.0  0.68763  0.26706  0.15988  1.0000
  C   C924      1.0  0.70450  0.14329  0.17936  1.0000
  H   H1654     1.0  0.68264  0.25757  0.19559  1.0000
  H   H1655     1.0  0.79243  0.16825  0.01974  1.0000
  H   H1656     1.0  0.70283  0.21089  0.07754  1.0000
  H   H1657     1.0  0.81031  0.16518  0.06524  1.0000
  H   H1658     1.0  0.58790  0.29895  0.18213  1.0000
  H   H1659     1.0  0.60826  0.27347  0.18488  1.0000
  H   H1660     1.0  0.59814  0.28880  0.20876  1.0000
  H   H1661     1.0  0.67226  0.26564  0.22293  1.0000
  H   H1662     1.0  0.71204  0.19952  0.02884  1.0000
  H   H1663     1.0  0.55855  0.29433  0.23369  1.0000
  N   N50       1.0  0.66562  0.30437  0.18492  1.0000
  C   C925      1.0  0.84780  0.16517  0.19165  1.0000
  C   C926      1.0  0.87148  0.16710  0.17821  1.0000
  H   H1664     1.0  0.83148  0.19580  0.17458  1.0000
  H   H1665     1.0  0.83944  0.15426  0.18329  1.0000
  H   H1666     1.0  0.85029  0.15644  0.20879  1.0000
  H   H1667     1.0  0.87003  0.17463  0.16043  1.0000
  H   H1668     1.0  0.88078  0.17772  0.18597  1.0000
  H   H1669     1.0  0.88162  0.14996  0.17826  1.0000
  H   H1670     1.0  0.74147  0.01553  0.17421  1.0000
  H   H1671     1.0  0.76484  0.01273  0.19054  1.0000
  C   C927      1.0  0.85155  0.03277  0.19998  1.0000
  H   H1672     1.0  0.84966  0.09311  0.24119  1.0000
  H   H1673     1.0  0.84074  0.29921  0.23385  1.0000
  S   S211      1.0  0.74600  0.44986  0.22816  1.0000
  C   C928      1.0  0.61644  0.19348  0.21732  1.0000
  H   H1674     1.0  0.88563  0.02922  0.20872  1.0000
  H   H1675     1.0  0.85526  0.01699  0.19201  1.0000
  S   S212      1.0  0.67437  0.21363  0.24051  1.0000
  H   H1676     1.0  0.64691  0.16674  0.11834  1.0000
  S   S213      1.0  0.91094  0.24720  0.23082  1.0000
  H   H1677     1.0  0.72750  0.13934  0.01288  1.0000
  C   C929      1.0  0.66429  0.15743  0.12006  1.0000
  C   C930      1.0  0.65437  0.19109  0.19136  1.0000
  C   C931      1.0  0.76747  0.48291  0.23829  1.0000
  C   C932      1.0  0.99098  0.15855  0.23957  1.0000
  H   H1678     1.0  0.60984  0.20943  0.20704  1.0000
  H   H1679     1.0  0.86562  0.04991  0.22204  1.0000
  H   H1680     1.0  0.65528  0.15406  0.16492  1.0000
  H   H1681     1.0  0.81524  0.15972  0.23235  1.0000
  H   H1682     1.0  0.83115  0.18147  0.23436  1.0000
  H   H1683     1.0  0.64621  0.18280  0.15471  1.0000
  H   H1684     1.0  0.88224  0.11126  0.21959  1.0000
  H   H1685     1.0  0.72323  0.25709  0.99903  1.0000
  S   S214      1.0  0.87562  0.20886  0.23934  1.0000
  S   S215      1.0  0.90379  0.14797  0.22659  1.0000
  C   C933      1.0  0.68371  0.15791  0.19095  1.0000
  N   N51       1.0  0.67281  0.17812  0.17630  1.0000
  C   C934      1.0  0.67624  0.16868  0.13489  1.0000
  H   H1686     1.0  0.77023  0.01730  0.16016  1.0000
  H   H1687     1.0  0.99906  0.14577  0.22831  1.0000
  C   C935      1.0  0.86786  0.03233  0.21771  1.0000
  H   H1688     1.0  0.78388  0.21581  0.21906  1.0000
  H   H1689     1.0  0.69342  0.15889  0.13604  1.0000
  C   C936      1.0  0.70843  0.17775  0.24189  1.0000
  S   S216      1.0  0.72859  0.35135  0.23139  1.0000
  H   H1690     1.0  0.72258  0.25938  0.20070  1.0000
  H   H1691     1.0  0.70083  0.11378  0.20530  1.0000
  H   H1692     1.0  0.65753  0.27251  0.15712  1.0000
  C   C937      1.0  0.75762  0.16498  0.19432  1.0000
  N   N52       1.0  0.74710  0.16225  0.04435  1.0000
  C   C938      1.0  0.83329  0.18892  0.19246  1.0000
  H   H1693     1.0  0.66654  0.29183  0.11816  1.0000
  C   C939      1.0  0.67289  0.30277  0.16006  1.0000
  C   C940      1.0  0.68009  0.28059  0.12676  1.0000
  H   H1694     1.0  0.69014  0.30803  0.15450  1.0000
  H   H1695     1.0  0.79689  0.18119  0.17863  1.0000
  H   H1696     1.0  0.80308  0.15769  0.19920  1.0000
  S   S217      1.0  0.97657  0.22341  0.20743  1.0000
  H   H1697     1.0  0.72212  0.13063  0.20871  1.0000
  H   H1698     1.0  0.67870  0.18588  0.12591  1.0000
  C   C941      1.0  0.78939  0.17019  0.03795  1.0000
  C   C942      1.0  0.81219  0.16283  0.04715  1.0000
  C   C943      1.0  0.74919  0.16321  0.01893  1.0000
  C   C944      1.0  0.66083  0.32926  0.18769  1.0000
  H   H1699     1.0  0.62629  0.30688  0.16432  1.0000
  H   H1700     1.0  0.80782  0.22625  0.17064  1.0000
  H   H1701     1.0  0.76416  0.14660  0.19609  1.0000
  H   H1702     1.0  0.72589  0.10512  0.08765  1.0000
  N   N53       1.0  0.81022  0.18936  0.20708  1.0000
  C   C945      1.0  0.77043  0.17715  0.20750  1.0000
  H   H1703     1.0  0.76168  0.19480  0.20732  1.0000
  C   C946      1.0  0.66168  0.17058  0.15847  1.0000
  H   H1704     1.0  0.55174  0.23802  0.22901  1.0000
  C   C947      1.0  0.79978  0.21391  0.20689  1.0000
  H   H1705     1.0  0.74771  0.19835  0.04233  1.0000
  H   H1706     1.0  0.51824  0.24449  0.20791  1.0000
  Fe  Fe106     1.0  0.74195  0.41268  0.23143  1.0000
  H   H1707     1.0  0.69927  0.13533  0.16610  1.0000
  H   H1708     1.0  0.71262  0.26809  0.22833  1.0000
  C   C948      1.0  0.87335  0.11744  0.23492  1.0000
  H   H1709     1.0  0.82237  0.37751  0.22569  1.0000
  C   C949      1.0  0.51723  0.23474  0.22457  1.0000
  H   H1710     1.0  0.75881  0.49390  0.22540  1.0000
  C   C950      1.0  0.53620  0.23117  0.23651  1.0000
  H   H1711     1.0  0.62441  0.19762  0.23125  1.0000
  H   H1712     1.0  0.52146  0.28326  0.23114  1.0000
  H   H1713     1.0  0.71961  0.18997  0.23374  1.0000
  H   H1714     1.0  0.82220  0.33689  0.23677  1.0000
  C   C951      1.0  0.73899  0.24547  0.99729  1.0000
  H   H1715     1.0  0.84832  0.37663  0.23752  1.0000
  S   S218      1.0  0.77853  0.11995  0.24035  1.0000
  H   H1716     1.0  0.82269  0.26407  0.22954  1.0000
  H   H1717     1.0  0.86586  0.32625  0.23261  1.0000
  C   C952      1.0  0.99749  0.23328  0.21969  1.0000
  H   H1718     1.0  0.71197  0.16685  0.01647  1.0000
  H   H1719     1.0  0.60175  0.18434  0.22500  1.0000
  C   C953      1.0  0.99303  0.23971  0.24134  1.0000
  Fe  Fe107     1.0  0.78311  0.05518  0.23730  1.0000
  N   N54       1.0  0.86472  0.01540  0.23897  1.0000
  H   H1720     1.0  0.90107  0.00698  0.23953  1.0000
  C   C954      1.0  0.88025  0.13585  0.24226  1.0000
  H   H1721     1.0  0.68093  0.28316  0.36342  1.0000
  C   C955      1.0  0.64227  0.31435  0.30887  1.0000
  H   H1722     1.0  0.63659  0.31940  0.34404  1.0000
  C   C956      1.0  0.54824  0.28707  0.24931  1.0000
  H   H1723     1.0  0.76650  0.46732  0.31519  1.0000
  H   H1724     1.0  0.72103  0.16660  0.29043  1.0000
  Fe  Fe108     1.0  0.89864  0.22114  0.25915  1.0000
  S   S219      1.0  0.88728  0.23102  0.29416  1.0000
  C   C957      1.0  0.84115  0.31114  0.28688  1.0000
  H   H1725     1.0  0.71738  0.31063  0.43403  1.0000
  S   S220      1.0  0.77005  0.06993  0.26972  1.0000
  Fe  Fe109     1.0  0.64122  0.22866  0.25927  1.0000
  S   S221      1.0  0.61888  0.21122  0.28782  1.0000
  H   H1726     1.0  0.84993  0.32326  0.29327  1.0000
  H   H1727     1.0  0.82370  0.35039  0.26084  1.0000
  S   S222      1.0  0.58737  0.26065  0.28997  1.0000
  C   C958      1.0  0.67393  0.38947  0.32277  1.0000
  Fe  Fe110     1.0  0.61843  0.24196  0.30450  1.0000
  S   S223      1.0  0.61599  0.23994  0.34229  1.0000
  Fe  Fe111     1.0  0.58939  0.23115  0.27109  1.0000
  H   H1728     1.0  0.55092  0.29554  0.26350  1.0000
  S   S224      1.0  0.64324  0.25800  0.27729  1.0000
  C   C959      1.0  0.62099  0.30258  0.31162  1.0000
  Fe  Fe112     1.0  0.72589  0.23383  0.39902  1.0000
  S   S225      1.0  0.73239  0.26233  0.41574  1.0000
  S   S226      1.0  0.69234  0.22024  0.40699  1.0000
  Fe  Fe113     1.0  0.77293  0.22856  0.37246  1.0000
  S   S227      1.0  0.78398  0.25679  0.38634  1.0000
  S   S228      1.0  0.79152  0.20778  0.34560  1.0000
  Fe  Fe114     1.0  0.76649  0.24190  0.42005  1.0000
  S   S229      1.0  0.78315  0.24502  0.45028  1.0000
  Fe  Fe115     1.0  0.74918  0.27509  0.38136  1.0000
  S   S230      1.0  0.74241  0.31221  0.36913  1.0000
  S   S231      1.0  0.75859  0.21180  0.40655  1.0000
  S   S232      1.0  0.73958  0.24849  0.36425  1.0000
  H   H1729     1.0  0.72794  0.18123  0.38631  1.0000
  S   S233      1.0  0.66948  0.37973  0.26180  1.0000
  S   S234      1.0  0.77824  0.33463  0.26550  1.0000
  S   S235      1.0  0.73102  0.39046  0.26352  1.0000
  C   C960      1.0  0.79196  0.47793  0.26756  1.0000
  H   H1730     1.0  0.71281  0.20252  0.27685  1.0000
  C   C961      1.0  0.68195  0.29644  0.39395  1.0000
  H   H1731     1.0  0.88651  0.30649  0.29222  1.0000
  C   C962      1.0  0.76115  0.21716  0.48494  1.0000
  C   C963      1.0  0.79008  0.45465  0.27134  1.0000
  H   H1732     1.0  0.68052  0.33203  0.25429  1.0000
  H   H1733     1.0  0.81354  0.30893  0.32815  1.0000
  H   H1734     1.0  0.79884  0.44367  0.28416  1.0000
  C   C964      1.0  0.75236  0.31810  0.34037  1.0000
  C   C965      1.0  0.74698  0.33996  0.32914  1.0000
  C   C966      1.0  0.75493  0.34507  0.30613  1.0000
  C   C967      1.0  0.76840  0.32840  0.29434  1.0000
  C   C968      1.0  0.77415  0.30660  0.30569  1.0000
  C   C969      1.0  0.76595  0.30137  0.32869  1.0000
  H   H1735     1.0  0.73678  0.35300  0.33824  1.0000
  H   H1736     1.0  0.75110  0.36207  0.29770  1.0000
  H   H1737     1.0  0.78456  0.29365  0.29661  1.0000
  H   H1738     1.0  0.77030  0.28447  0.33737  1.0000
  H   H1739     1.0  0.75866  0.20751  0.47214  1.0000
  S   S236      1.0  0.82027  0.10183  0.28275  1.0000
  H   H1740     1.0  0.82650  0.28016  0.30153  1.0000
  C   C970      1.0  0.67804  0.32066  0.35581  1.0000
  C   C971      1.0  0.51483  0.20939  0.26742  1.0000
  S   S237      1.0  0.55807  0.21336  0.27408  1.0000
  H   H1741     1.0  0.66140  0.35259  0.30734  1.0000
  H   H1742     1.0  0.64933  0.35553  0.33573  1.0000
  C   C972      1.0  0.65109  0.31252  0.33187  1.0000
  H   H1743     1.0  0.91280  0.27084  0.28691  1.0000
  Fe  Fe116     1.0  0.70560  0.38076  0.24454  1.0000
  C   C973      1.0  0.63849  0.23441  0.35875  1.0000
  C   C974      1.0  0.63353  0.22491  0.38128  1.0000
  C   C975      1.0  0.65035  0.22057  0.39557  1.0000
  C   C976      1.0  0.67229  0.22609  0.38770  1.0000
  C   C977      1.0  0.67746  0.23576  0.36508  1.0000
  C   C978      1.0  0.66051  0.23988  0.35054  1.0000
  H   H1744     1.0  0.61653  0.22077  0.38775  1.0000
  H   H1745     1.0  0.64621  0.21307  0.41294  1.0000
  H   H1746     1.0  0.69441  0.23997  0.35881  1.0000
  H   H1747     1.0  0.66428  0.24744  0.33317  1.0000
  Fe  Fe117     1.0  0.75070  0.09783  0.24781  1.0000
  H   H1748     1.0  0.79779  0.34914  0.48703  1.0000
  H   H1749     1.0  0.72497  0.20907  0.31289  1.0000
  C   C979      1.0  0.73194  0.14015  0.31609  1.0000
  C   C980      1.0  0.67969  0.14609  0.26272  1.0000
  H   H1750     1.0  0.79427  0.36961  0.46222  1.0000
  C   C981      1.0  0.84162  0.26818  0.25623  1.0000
  C   C982      1.0  0.68507  0.18496  0.24787  1.0000
  H   H1751     1.0  0.77007  0.00817  0.27352  1.0000
  H   H1752     1.0  0.82850  0.26594  0.45182  1.0000
  H   H1753     1.0  0.73803  0.13744  0.33279  1.0000
  C   C983      1.0  0.77201  0.23653  0.47867  1.0000
  C   C984      1.0  0.89013  0.03591  0.25782  1.0000
  C   C985      1.0  0.83899  0.29031  0.30524  1.0000
  C   C986      1.0  0.53502  0.21850  0.25806  1.0000
  H   H1754     1.0  0.67753  0.44263  0.26881  1.0000
  C   C987      1.0  0.85988  0.22588  0.30757  1.0000
  C   C988      1.0  0.85114  0.23409  0.32810  1.0000
  C   C989      1.0  0.82955  0.22970  0.33939  1.0000
  C   C990      1.0  0.81694  0.21650  0.33049  1.0000
  C   C991      1.0  0.82559  0.20846  0.30993  1.0000
  C   C992      1.0  0.84691  0.21324  0.29843  1.0000
  H   H1755     1.0  0.86118  0.24372  0.33537  1.0000
  H   H1756     1.0  0.82305  0.23589  0.35530  1.0000
  H   H1757     1.0  0.81591  0.19820  0.30309  1.0000
  H   H1758     1.0  0.85360  0.20640  0.28296  1.0000
  H   H1759     1.0  0.77459  0.42780  0.26248  1.0000
  C   C993      1.0  0.86867  0.14380  0.26209  1.0000
  C   C994      1.0  0.85058  0.13299  0.27470  1.0000
  C   C995      1.0  0.84337  0.11488  0.26708  1.0000
  C   C996      1.0  0.87620  0.29296  0.26414  1.0000
  H   H1760     1.0  0.80585  0.26408  0.25733  1.0000
  H   H1761     1.0  0.62492  0.28436  0.31828  1.0000
  H   H1762     1.0  0.97616  0.23927  0.25091  1.0000
  N   N55       1.0  0.85267  0.30649  0.26367  1.0000
  H   H1763     1.0  0.69299  0.45790  0.24474  1.0000
  H   H1764     1.0  0.66057  0.39320  0.33721  1.0000
  C   C997      1.0  0.75061  0.30652  0.44584  1.0000
  C   C998      1.0  0.70775  0.20405  0.31347  1.0000
  N   N56       1.0  0.70805  0.17919  0.32225  1.0000
  C   C999      1.0  0.72627  0.16577  0.30740  1.0000
  H   H1765     1.0  0.51384  0.19941  0.28399  1.0000
  C   C1000     1.0  0.68208  0.45963  0.26125  1.0000
  H   H1766     1.0  0.77155  0.33798  0.46494  1.0000
  H   H1767     1.0  0.65429  0.29787  0.37531  1.0000
  H   H1768     1.0  0.82152  0.03820  0.29458  1.0000
  H   H1769     1.0  0.71667  0.13144  0.31757  1.0000
  C   C1001     1.0  0.68384  0.36435  0.32553  1.0000
  H   H1770     1.0  0.82336  0.31985  0.28607  1.0000
  H   H1771     1.0  0.71019  0.45564  0.27997  1.0000
  H   H1772     1.0  0.66848  0.13379  0.27061  1.0000
  H   H1773     1.0  0.78094  0.36845  0.35042  1.0000
  C   C1002     1.0  0.68864  0.23280  0.49050  1.0000
  H   H1774     1.0  0.87396  0.15795  0.26788  1.0000
  H   H1775     1.0  0.84387  0.04171  0.25666  1.0000
  H   H1776     1.0  0.76678  0.13619  0.29809  1.0000
  H   H1777     1.0  0.60693  0.31069  0.32332  1.0000
  H   H1778     1.0  0.61494  0.30384  0.29503  1.0000
  H   H1779     1.0  0.69133  0.36050  0.34155  1.0000
  H   H1780     1.0  0.79310  0.29191  0.44624  1.0000
  H   H1781     1.0  0.74169  0.47939  0.28190  1.0000
  H   H1782     1.0  0.62262  0.38437  0.25707  1.0000
  H   H1783     1.0  0.66636  0.39431  0.30679  1.0000
  C   C1003     1.0  0.68538  0.17148  0.32169  1.0000
  H   H1784     1.0  0.71918  0.32926  0.45422  1.0000
  C   C1004     1.0  0.70094  0.21164  0.28949  1.0000
  C   C1005     1.0  0.66385  0.18573  0.33298  1.0000
  C   C1006     1.0  0.70200  0.23692  0.28221  1.0000
  C   C1007     1.0  0.64250  0.17452  0.33391  1.0000
  H   H1785     1.0  0.68532  0.15371  0.33018  1.0000
  H   H1786     1.0  0.68276  0.17093  0.30398  1.0000
  H   H1787     1.0  0.70004  0.18649  0.35682  1.0000
  H   H1788     1.0  0.69614  0.21452  0.32526  1.0000
  H   H1789     1.0  0.68330  0.20853  0.28887  1.0000
  H   H1790     1.0  0.66536  0.18758  0.35056  1.0000
  H   H1791     1.0  0.66090  0.20293  0.32332  1.0000
  H   H1792     1.0  0.69095  0.24706  0.29464  1.0000
  H   H1793     1.0  0.71990  0.24043  0.28046  1.0000
  H   H1794     1.0  0.64043  0.17137  0.31681  1.0000
  H   H1795     1.0  0.64360  0.15815  0.34534  1.0000
  H   H1796     1.0  0.62713  0.18582  0.34049  1.0000
  N   N57       1.0  0.85042  0.14624  0.35831  1.0000
  C   C1008     1.0  0.85096  0.12482  0.37505  1.0000
  C   C1009     1.0  0.83286  0.14680  0.34269  1.0000
  C   C1010     1.0  0.87364  0.14574  0.34397  1.0000
  C   C1011     1.0  0.84607  0.16734  0.36974  1.0000
  C   C1012     1.0  0.82497  0.16951  0.38821  1.0000
  C   C1013     1.0  0.86882  0.12152  0.39169  1.0000
  C   C1014     1.0  0.87600  0.16535  0.32407  1.0000
  C   C1015     1.0  0.81084  0.13605  0.35245  1.0000
  C   C1016     1.0  0.79416  0.14038  0.33509  1.0000
  C   C1017     1.0  0.82425  0.19023  0.40007  1.0000
  C   C1018     1.0  0.86581  0.10075  0.40945  1.0000
  C   C1019     1.0  0.89935  0.16210  0.30956  1.0000
  H   H1797     1.0  0.85434  0.10975  0.36583  1.0000
  H   H1798     1.0  0.83404  0.12368  0.38548  1.0000
  H   H1799     1.0  0.82754  0.16453  0.33504  1.0000
  H   H1800     1.0  0.84056  0.13741  0.32825  1.0000
  H   H1801     1.0  0.87836  0.12942  0.33676  1.0000
  H   H1802     1.0  0.88718  0.14650  0.35433  1.0000
  H   H1803     1.0  0.86137  0.16917  0.37727  1.0000
  H   H1804     1.0  0.84375  0.18274  0.35706  1.0000
  H   H1805     1.0  0.82512  0.15453  0.40143  1.0000
  H   H1806     1.0  0.80902  0.17190  0.38054  1.0000
  H   H1807     1.0  0.88647  0.11873  0.38261  1.0000
  H   H1808     1.0  0.86709  0.13643  0.40076  1.0000
  H   H1809     1.0  0.87431  0.18180  0.33060  1.0000
  H   H1810     1.0  0.86292  0.16643  0.31274  1.0000
  H   H1811     1.0  0.81507  0.11736  0.35655  1.0000
  H   H1812     1.0  0.80192  0.14281  0.36793  1.0000
  H   H1813     1.0  0.77832  0.13300  0.34250  1.0000
  H   H1814     1.0  0.80189  0.13234  0.31983  1.0000
  H   H1815     1.0  0.83982  0.18897  0.40828  1.0000
  H   H1816     1.0  0.82285  0.20602  0.38783  1.0000
  H   H1817     1.0  0.80909  0.19134  0.41333  1.0000
  H   H1818     1.0  0.84870  0.10295  0.41982  1.0000
  H   H1819     1.0  0.86773  0.08519  0.40125  1.0000
  H   H1820     1.0  0.87904  0.09849  0.42087  1.0000
  H   H1821     1.0  0.90165  0.14628  0.30172  1.0000
  H   H1822     1.0  0.90051  0.17663  0.29581  1.0000
  H   H1823     1.0  0.91332  0.16149  0.31981  1.0000
  H   H1824     1.0  0.84188  0.13892  0.29011  1.0000
  C   C1020     1.0  0.66530  0.34912  0.32501  1.0000
  H   H1825     1.0  0.81171  0.01149  0.30660  1.0000
  C   C1021     1.0  0.78161  0.34928  0.38396  1.0000
  H   H1826     1.0  0.76295  0.34882  0.38548  1.0000
  H   H1827     1.0  0.75055  0.17208  0.33878  1.0000
  H   H1828     1.0  0.92688  0.02578  0.25752  1.0000
  H   H1829     1.0  0.51406  0.28324  0.28277  1.0000
  C   C1022     1.0  0.80034  0.17157  0.27299  1.0000
  H   H1830     1.0  0.78893  0.33838  0.35053  1.0000
  H   H1831     1.0  0.84267  0.30663  0.33389  1.0000
  H   H1832     1.0  0.69791  0.36196  0.31133  1.0000
  C   C1023     1.0  0.71278  0.17543  0.34642  1.0000
  H   H1833     1.0  0.68765  0.27946  0.32103  1.0000
  C   C1024     1.0  0.81664  0.02243  0.29054  1.0000
  C   C1025     1.0  0.73646  0.18050  0.35002  1.0000
  H   H1834     1.0  0.65550  0.30593  0.29668  1.0000
  H   H1835     1.0  0.74253  0.47099  0.33740  1.0000
  C   C1026     1.0  0.75078  0.12859  0.29980  1.0000
  H   H1836     1.0  0.74244  0.17341  0.30405  1.0000
  H   H1837     1.0  0.79743  0.31779  0.46574  1.0000
  H   H1838     1.0  0.92814  0.29482  0.28311  1.0000
  H   H1839     1.0  0.84197  0.26112  0.27416  1.0000
  C   C1027     1.0  0.75502  0.47985  0.32492  1.0000
  H   H1840     1.0  0.79838  0.15380  0.27180  1.0000
  H   H1841     1.0  0.81767  0.17203  0.27705  1.0000
  H   H1842     1.0  0.78751  0.17766  0.28691  1.0000
  H   H1843     1.0  0.74528  0.13018  0.28290  1.0000
  H   H1844     1.0  0.75815  0.17597  0.37627  1.0000
  H   H1845     1.0  0.80910  0.35539  0.35620  1.0000
  C   C1028     1.0  0.74101  0.17232  0.37430  1.0000
  H   H1846     1.0  0.98323  0.14985  0.25590  1.0000
  C   C1029     1.0  0.72453  0.31191  0.44957  1.0000
  N   N58       1.0  0.78684  0.32133  0.42093  1.0000
  C   C1030     1.0  0.79847  0.29773  0.42813  1.0000
  C   C1031     1.0  0.76109  0.32198  0.42498  1.0000
  C   C1032     1.0  0.79404  0.32694  0.39577  1.0000
  C   C1033     1.0  0.79401  0.33884  0.43257  1.0000
  C   C1034     1.0  0.79012  0.33505  0.45872  1.0000
  H   H1847     1.0  0.83198  0.29729  0.40646  1.0000
  H   H1848     1.0  0.85091  0.00524  0.28639  1.0000
  C   C1035     1.0  0.80129  0.35186  0.46827  1.0000
  Fe  Fe118     1.0  0.61234  0.27412  0.26124  1.0000
  H   H1849     1.0  0.75702  0.30799  0.46160  1.0000
  H   H1850     1.0  0.79292  0.28547  0.41890  1.0000
  H   H1851     1.0  0.66610  0.47126  0.25841  1.0000
  H   H1852     1.0  0.75247  0.33971  0.42573  1.0000
  H   H1853     1.0  0.75521  0.31645  0.41047  1.0000
  H   H1854     1.0  0.79143  0.31290  0.38685  1.0000
  H   H1855     1.0  0.81260  0.32842  0.39204  1.0000
  H   H1856     1.0  0.81234  0.34065  0.42678  1.0000
  H   H1857     1.0  0.78454  0.35588  0.42761  1.0000
  C   C1036     1.0  0.82502  0.29429  0.42463  1.0000
  H   H1858     1.0  0.65508  0.30440  0.24987  1.0000
  H   H1859     1.0  0.83163  0.30579  0.43383  1.0000
  C   C1037     1.0  0.52295  0.29091  0.24628  1.0000
  C   C1038     1.0  0.76490  0.45982  0.24264  1.0000
  H   H1860     1.0  0.78424  0.36422  0.39126  1.0000
  H   H1861     1.0  0.91458  0.04814  0.27414  1.0000
  H   H1862     1.0  0.77887  0.18731  0.24825  1.0000
  C   C1039     1.0  0.83454  0.26999  0.43348  1.0000
  C   C1040     1.0  0.50818  0.27966  0.26730  1.0000
  C   C1041     1.0  0.91170  0.03193  0.26925  1.0000
  H   H1863     1.0  0.71054  0.15783  0.35441  1.0000
  H   H1864     1.0  0.65266  0.17458  0.26322  1.0000
  H   H1865     1.0  0.51340  0.26113  0.26696  1.0000
  S   S238      1.0  0.92867  0.19443  0.25160  1.0000
  C   C1042     1.0  0.69773  0.23227  0.46547  1.0000
  H   H1866     1.0  0.69332  0.24909  0.45547  1.0000
  H   H1867     1.0  0.68775  0.39993  0.32215  1.0000
  C   C1043     1.0  0.91587  0.28696  0.27591  1.0000
  H   H1868     1.0  0.74080  0.15373  0.37848  1.0000
  H   H1869     1.0  0.70661  0.32472  0.31583  1.0000
  C   C1044     1.0  0.70124  0.29030  0.31961  1.0000
  H   H1870     1.0  0.87526  0.27573  0.27346  1.0000
  Fe  Fe119     1.0  0.79869  0.09127  0.25994  1.0000
  H   H1871     1.0  0.69585  0.24220  0.26557  1.0000
  C   C1045     1.0  0.79078  0.35304  0.35876  1.0000
  H   H1872     1.0  0.72790  0.26613  0.30460  1.0000
  H   H1873     1.0  0.73303  0.29511  0.29716  1.0000
  H   H1874     1.0  0.75444  0.11025  0.30621  1.0000
  C   C1046     1.0  0.83789  0.29456  0.25257  1.0000
  H   H1875     1.0  0.73720  0.19905  0.34668  1.0000
  H   H1876     1.0  0.71195  0.28505  0.28445  1.0000
  H   H1877     1.0  0.78963  0.15889  0.33000  1.0000
  C   C1047     1.0  0.71963  0.28379  0.30022  1.0000
  H   H1878     1.0  0.65439  0.29406  0.33780  1.0000
  H   H1879     1.0  0.82740  0.28243  0.34112  1.0000
  N   N59       1.0  0.67174  0.32398  0.33207  1.0000
  C   C1048     1.0  0.67303  0.29834  0.37138  1.0000
  H   H1880     1.0  0.66860  0.33450  0.36532  1.0000
  C   C1049     1.0  0.69182  0.31577  0.31552  1.0000
  C   C1050     1.0  0.83011  0.29762  0.32849  1.0000
  H   H1881     1.0  0.69650  0.32199  0.35519  1.0000
  H   H1882     1.0  0.63731  0.33219  0.30164  1.0000
  H   H1883     1.0  0.68987  0.21960  0.45891  1.0000
  C   C1051     1.0  0.64810  0.32190  0.25118  1.0000
  H   H1884     1.0  0.85566  0.27951  0.30654  1.0000
  H   H1885     1.0  0.67838  0.28017  0.40443  1.0000
  H   H1886     1.0  0.68387  0.46970  0.29351  1.0000
  H   H1887     1.0  0.68776  0.32022  0.29789  1.0000
  H   H1888     1.0  0.67348  0.31066  0.40326  1.0000
  C   C1052     1.0  0.89349  0.30318  0.27475  1.0000
  H   H1889     1.0  0.70943  0.28661  0.33524  1.0000
  H   H1890     1.0  0.70067  0.29662  0.39120  1.0000
  H   H1891     1.0  0.89793  0.31921  0.26447  1.0000
  H   H1892     1.0  0.92375  0.28316  0.25877  1.0000
  H   H1893     1.0  0.86555  0.33893  0.25734  1.0000
  C   C1053     1.0  0.70299  0.13880  0.25625  1.0000
  C   C1054     1.0  0.77642  0.44563  0.25906  1.0000
  C   C1055     1.0  0.62470  0.32913  0.25025  1.0000
  S   S239      1.0  0.71357  0.10968  0.26037  1.0000
  H   H1894     1.0  0.81944  0.30037  0.25788  1.0000
  H   H1895     1.0  0.71738  0.29955  0.46345  1.0000
  C   C1056     1.0  0.67073  0.16916  0.25860  1.0000
  S   S240      1.0  0.60598  0.31081  0.24632  1.0000
  H   H1896     1.0  0.51765  0.30939  0.24267  1.0000
  H   H1897     1.0  0.85353  0.26794  0.43096  1.0000
  C   C1057     1.0  0.65324  0.36010  0.25584  1.0000
  C   C1058     1.0  0.79682  0.18682  0.25081  1.0000
  H   H1898     1.0  0.80157  0.02691  0.28132  1.0000
  H   H1899     1.0  0.59781  0.35747  0.25111  1.0000
  C   C1059     1.0  0.69500  0.46849  0.27709  1.0000
  H   H1900     1.0  0.82617  0.23971  0.25078  1.0000
  C   C1060     1.0  0.83654  0.00969  0.27630  1.0000
  H   H1901     1.0  0.55450  0.26866  0.25276  1.0000
  H   H1902     1.0  0.87573  0.04262  0.27006  1.0000
  H   H1903     1.0  0.72091  0.47422  0.30575  1.0000
  C   C1061     1.0  0.66250  0.33753  0.25354  1.0000
  H   H1904     1.0  0.70085  0.26489  0.48822  1.0000
  C   C1062     1.0  0.62988  0.36703  0.25516  1.0000
  H   H1905     1.0  0.78424  0.26348  0.49080  1.0000
  C   C1063     1.0  0.71737  0.15476  0.24620  1.0000
  H   H1906     1.0  0.79929  0.20422  0.25289  1.0000
  H   H1907     1.0  0.82904  0.25774  0.42424  1.0000
  H   H1908     1.0  0.82013  0.34933  0.46321  1.0000
  H   H1909     1.0  0.75490  0.28853  0.44292  1.0000
  H   H1910     1.0  0.71660  0.22739  0.46300  1.0000
  C   C1064     1.0  0.61581  0.35177  0.25189  1.0000
  H   H1911     1.0  0.90985  0.01936  0.28476  1.0000
  H   H1912     1.0  0.88463  0.00107  0.26623  1.0000
  H   H1913     1.0  0.82829  0.02592  0.24427  1.0000
  H   H1914     1.0  0.71667  0.48817  0.25240  1.0000
  S   S241      1.0  0.80806  0.48891  0.28425  1.0000
  C   C1065     1.0  0.72899  0.48803  0.29442  1.0000
  H   H1915     1.0  0.76566  0.48754  0.33423  1.0000
  Fe  Fe120     1.0  0.75499  0.36264  0.24791  1.0000
  C   C1066     1.0  0.88553  0.01360  0.25069  1.0000
  C   C1067     1.0  0.84318  0.02421  0.25344  1.0000
  H   H1916     1.0  0.99925  0.18560  0.25425  1.0000
  C   C1068     1.0  0.85477  0.10723  0.24709  1.0000
  H   H1917     1.0  0.88407  0.29023  0.24663  1.0000
  C   C1069     1.0  0.82285  0.25854  0.24792  1.0000
  H   H1918     1.0  0.89271  0.04914  0.24302  1.0000
  C   C1070     1.0  0.85570  0.32904  0.24933  1.0000
  C   C1071     1.0  0.83339  0.34512  0.24486  1.0000
  H   H1919     1.0  0.66984  0.23789  0.49211  1.0000
  H   H1920     1.0  0.85820  0.26179  0.24658  1.0000
  C   C1072     1.0  0.70283  0.49170  0.26664  1.0000
  C   C1073     1.0  0.78079  0.49200  0.25083  1.0000
  H   H1921     1.0  0.87796  0.06018  0.72386  1.0000
  N   N60       1.0  0.66966  0.31954  0.68807  1.0000
  H   H1922     1.0  0.52657  0.33560  0.73324  1.0000
  Fe  Fe121     1.0  0.75065  0.27548  0.60100  1.0000
  S   S242      1.0  0.72343  0.26369  0.58607  1.0000
  S   S243      1.0  0.75703  0.31157  0.58978  1.0000
  Fe  Fe122     1.0  0.76173  0.23026  0.62932  1.0000
  S   S244      1.0  0.73542  0.21458  0.61688  1.0000
  S   S245      1.0  0.78266  0.21377  0.65702  1.0000
  Fe  Fe123     1.0  0.74814  0.23194  0.58242  1.0000
  S   S246      1.0  0.74849  0.21214  0.55338  1.0000
  Fe  Fe124     1.0  0.71286  0.24732  0.62119  1.0000
  S   S247      1.0  0.67569  0.24804  0.63528  1.0000
  S   S248      1.0  0.77666  0.24497  0.59450  1.0000
  S   S249      1.0  0.73788  0.26191  0.63654  1.0000
  C   C1074     1.0  0.61489  0.29742  0.67890  1.0000
  Fe  Fe125     1.0  0.73975  0.38147  0.68789  1.0000
  S   S250      1.0  0.75282  0.34847  0.70694  1.0000
  S   S251      1.0  0.72253  0.38455  0.65696  1.0000
  Fe  Fe126     1.0  0.75897  0.40968  0.71634  1.0000
  S   S252      1.0  0.76478  0.44654  0.71324  1.0000
  Fe  Fe127     1.0  0.78486  0.36347  0.70578  1.0000
  N   N61       1.0  0.83684  0.41974  0.68420  1.0000
  S   S253      1.0  0.77275  0.39532  0.68398  1.0000
  S   S254      1.0  0.72458  0.39788  0.71883  1.0000
  H   H1923     1.0  0.84971  0.36774  0.64368  1.0000
  H   H1924     1.0  0.65329  0.25719  0.52282  1.0000
  H   H1925     1.0  0.62123  0.28178  0.54186  1.0000
  C   C1075     1.0  0.67701  0.35886  0.69520  1.0000
  S   S255      1.0  0.81822  0.34204  0.69544  1.0000
  C   C1076     1.0  0.68848  0.30906  0.70198  1.0000
  H   H1926     1.0  0.59848  0.30576  0.67315  1.0000
  C   C1077     1.0  0.74763  0.33113  0.60923  1.0000
  C   C1078     1.0  0.74822  0.32497  0.63251  1.0000
  C   C1079     1.0  0.74107  0.34134  0.64736  1.0000
  C   C1080     1.0  0.73272  0.36370  0.63901  1.0000
  C   C1081     1.0  0.73171  0.36958  0.61586  1.0000
  C   C1082     1.0  0.73952  0.35351  0.60101  1.0000
  H   H1927     1.0  0.75440  0.30772  0.63899  1.0000
  H   H1928     1.0  0.74162  0.33655  0.66524  1.0000
  H   H1929     1.0  0.72521  0.38677  0.60932  1.0000
  H   H1930     1.0  0.73903  0.35838  0.58308  1.0000
  C   C1083     1.0  0.67272  0.24031  0.66464  1.0000
  C   C1084     1.0  0.69208  0.23376  0.67560  1.0000
  C   C1085     1.0  0.68965  0.22768  0.69908  1.0000
  C   C1086     1.0  0.66791  0.22767  0.71166  1.0000
  C   C1087     1.0  0.64850  0.23439  0.70076  1.0000
  C   C1088     1.0  0.65092  0.24069  0.67725  1.0000
  H   H1931     1.0  0.70897  0.23319  0.66601  1.0000
  H   H1932     1.0  0.70468  0.22314  0.70747  1.0000
  H   H1933     1.0  0.63163  0.23408  0.71033  1.0000
  H   H1934     1.0  0.63590  0.24554  0.66880  1.0000
  C   C1089     1.0  0.75789  0.22185  0.52478  1.0000
  C   C1090     1.0  0.76828  0.24152  0.51846  1.0000
  C   C1091     1.0  0.80572  0.48150  0.66933  1.0000
  S   S256      1.0  0.86350  0.20910  0.72716  1.0000
  C   C1092     1.0  0.75440  0.20969  0.50795  1.0000
  H   H1935     1.0  0.77115  0.25092  0.53132  1.0000
  H   H1936     1.0  0.78201  0.25834  0.67888  1.0000
  H   H1937     1.0  0.74641  0.19443  0.51273  1.0000
  C   C1093     1.0  0.77638  0.13925  0.68325  1.0000
  C   C1094     1.0  0.77065  0.14868  0.66186  1.0000
  C   C1095     1.0  0.77279  0.17145  0.65351  1.0000
  C   C1096     1.0  0.78121  0.18477  0.66632  1.0000
  C   C1097     1.0  0.78812  0.17498  0.68719  1.0000
  C   C1098     1.0  0.78539  0.15236  0.69580  1.0000
  H   H1938     1.0  0.76405  0.13846  0.65199  1.0000
  H   H1939     1.0  0.76803  0.17865  0.63713  1.0000
  H   H1940     1.0  0.79499  0.18510  0.69698  1.0000
  H   H1941     1.0  0.78989  0.14522  0.71228  1.0000
  H   H1942     1.0  0.77382  0.49190  0.71027  1.0000
  H   H1943     1.0  0.78426  0.27133  0.63552  1.0000
  H   H1944     1.0  0.85967  0.31111  0.69410  1.0000
  H   H1945     1.0  0.79991  0.29456  0.62370  1.0000
  H   H1946     1.0  0.83122  0.11952  0.68543  1.0000
  H   H1947     1.0  0.61744  0.32594  0.69525  1.0000
  C   C1099     1.0  0.72649  0.30193  0.52749  1.0000
  C   C1100     1.0  0.70036  0.24920  0.50069  1.0000
  C   C1101     1.0  0.67903  0.32361  0.66319  1.0000
  C   C1102     1.0  0.67824  0.30464  0.64881  1.0000
  C   C1103     1.0  0.70090  0.28543  0.69722  1.0000
  C   C1104     1.0  0.70138  0.47266  0.71086  1.0000
  C   C1105     1.0  0.69068  0.30968  0.62488  1.0000
  H   H1948     1.0  0.65678  0.28804  0.68695  1.0000
  H   H1949     1.0  0.70228  0.31997  0.69925  1.0000
  H   H1950     1.0  0.69708  0.32698  0.66102  1.0000
  H   H1951     1.0  0.66035  0.30324  0.64718  1.0000
  H   H1952     1.0  0.68606  0.28785  0.65638  1.0000
  H   H1953     1.0  0.68867  0.27314  0.69904  1.0000
  H   H1954     1.0  0.71073  0.28659  0.67999  1.0000
  H   H1955     1.0  0.69807  0.27394  0.54826  1.0000
  H   H1956     1.0  0.91083  0.16073  0.73720  1.0000
  C   C1106     1.0  0.77556  0.24865  0.49550  1.0000
  H   H1957     1.0  0.68828  0.29679  0.61458  1.0000
  H   H1958     1.0  0.68396  0.32673  0.61667  1.0000
  H   H1959     1.0  0.70924  0.30883  0.62525  1.0000
  N   N62       1.0  0.88711  0.09394  0.72145  1.0000
  C   C1107     1.0  0.90647  0.09076  0.70238  1.0000
  H   H1960     1.0  0.72712  0.28120  0.50180  1.0000
  H   H1961     1.0  0.70897  0.27409  0.73139  1.0000
  C   C1108     1.0  0.86467  0.10462  0.71327  1.0000
  C   C1109     1.0  0.86592  0.12181  0.69117  1.0000
  C   C1110     1.0  0.90413  0.07324  0.68694  1.0000
  C   C1111     1.0  0.64603  0.17263  0.70289  1.0000
  H   H1962     1.0  0.78429  0.31940  0.73383  1.0000
  H   H1963     1.0  0.76807  0.24725  0.72680  1.0000
  C   C1112     1.0  0.92019  0.07602  0.66464  1.0000
  H   H1964     1.0  0.71573  0.47775  0.73952  1.0000
  H   H1965     1.0  0.92300  0.08514  0.70923  1.0000
  H   H1966     1.0  0.90888  0.10703  0.69146  1.0000
  H   H1967     1.0  0.90959  0.13327  0.71114  1.0000
  H   H1968     1.0  0.81264  0.48370  0.65108  1.0000
  C   C1113     1.0  0.89382  0.10789  0.73734  1.0000
  C   C1114     1.0  0.71799  0.27607  0.71382  1.0000
  H   H1969     1.0  0.87418  0.11320  0.67647  1.0000
  H   H1970     1.0  0.87575  0.13561  0.69205  1.0000
  H   H1971     1.0  0.90865  0.05574  0.69555  1.0000
  H   H1972     1.0  0.88636  0.07483  0.68310  1.0000
  H   H1973     1.0  0.68749  0.17921  0.71285  1.0000
  Fe  Fe128     1.0  0.74098  0.36566  0.73773  1.0000
  H   H1974     1.0  0.69230  0.21523  0.49925  1.0000
  H   H1975     1.0  0.62783  0.20079  0.68240  1.0000
  S   S257      1.0  0.66527  0.21809  0.74074  1.0000
  H   H1976     1.0  0.61765  0.17385  0.68393  1.0000
  H   H1977     1.0  0.91566  0.09292  0.65482  1.0000
  H   H1978     1.0  0.93824  0.07415  0.66780  1.0000
  H   H1979     1.0  0.91861  0.06279  0.65435  1.0000
  H   H1980     1.0  0.87261  0.40909  0.68750  1.0000
  H   H1981     1.0  0.70010  0.29874  0.50814  1.0000
  C   C1115     1.0  0.88427  0.07070  0.73445  1.0000
  H   H1982     1.0  0.81795  0.29015  0.65857  1.0000
  H   H1983     1.0  0.62470  0.28761  0.66558  1.0000
  C   C1116     1.0  0.76758  0.46250  0.73451  1.0000
  H   H1984     1.0  0.85505  0.09134  0.71011  1.0000
  H   H1985     1.0  0.71852  0.24159  0.50101  1.0000
  H   H1986     1.0  0.64626  0.35102  0.68586  1.0000
  H   H1987     1.0  0.78742  0.29663  0.66399  1.0000
  H   H1988     1.0  0.67387  0.21310  0.59683  1.0000
  H   H1989     1.0  0.66971  0.33934  0.65467  1.0000
  H   H1990     1.0  0.84847  0.23459  0.68598  1.0000
  C   C1117     1.0  0.80010  0.26148  0.67686  1.0000
  H   H1991     1.0  0.84603  0.25762  0.66338  1.0000
  H   H1992     1.0  0.65095  0.33937  0.71382  1.0000
  H   H1993     1.0  0.84338  0.14369  0.66949  1.0000
  H   H1994     1.0  0.81506  0.26636  0.62972  1.0000
  H   H1995     1.0  0.72120  0.25563  0.53659  1.0000
  C   C1118     1.0  0.83282  0.37797  0.64148  1.0000
  C   C1119     1.0  0.66498  0.38291  0.69740  1.0000
  C   C1120     1.0  0.78064  0.23333  0.72042  1.0000
  C   C1121     1.0  0.83152  0.26713  0.69703  1.0000
  H   H1996     1.0  0.71743  0.14956  0.72545  1.0000
  H   H1997     1.0  0.61100  0.28559  0.69456  1.0000
  H   H1998     1.0  0.68160  0.30786  0.72032  1.0000
  H   H1999     1.0  0.65916  0.24043  0.56603  1.0000
  C   C1122     1.0  0.84209  0.13266  0.68607  1.0000
  C   C1123     1.0  0.65971  0.34205  0.69609  1.0000
  C   C1124     1.0  0.80014  0.27853  0.63566  1.0000
  H   H2000     1.0  0.61100  0.18940  0.70781  1.0000
  C   C1125     1.0  0.87354  0.25727  0.68207  1.0000
  C   C1126     1.0  0.82068  0.46260  0.68240  1.0000
  H   H2001     1.0  0.63201  0.32655  0.66689  1.0000
  H   H2002     1.0  0.62641  0.30791  0.54966  1.0000
  H   H2003     1.0  0.72035  0.19004  0.72795  1.0000
  C   C1127     1.0  0.71050  0.48821  0.72389  1.0000
  C   C1128     1.0  0.65087  0.30473  0.69295  1.0000
  H   H2004     1.0  0.68744  0.35360  0.70925  1.0000
  H   H2005     1.0  0.81904  0.36847  0.65097  1.0000
  H   H2006     1.0  0.83373  0.14339  0.69913  1.0000
  H   H2007     1.0  0.84316  0.41090  0.63808  1.0000
  H   H2008     1.0  0.65291  0.38317  0.71336  1.0000
  H   H2009     1.0  0.69988  0.20509  0.57870  1.0000
  H   H2010     1.0  0.81347  0.46190  0.70052  1.0000
  H   H2011     1.0  0.68618  0.24616  0.57178  1.0000
  H   H2012     1.0  0.50674  0.26533  0.73587  1.0000
  H   H2013     1.0  0.64613  0.30048  0.71157  1.0000
  C   C1129     1.0  0.62846  0.31538  0.68312  1.0000
  H   H2014     1.0  0.77485  0.22879  0.70539  1.0000
  H   H2015     1.0  0.83230  0.18132  0.71675  1.0000
  H   H2016     1.0  0.66794  0.12773  0.70429  1.0000
  H   H2017     1.0  0.67795  0.39416  0.69751  1.0000
  C   C1130     1.0  0.89562  0.43876  0.65585  1.0000
  C   C1131     1.0  0.72132  0.16144  0.70980  1.0000
  H   H2018     1.0  0.71902  0.11829  0.70959  1.0000
  H   H2019     1.0  0.68865  0.35940  0.67904  1.0000
  N   N63       1.0  0.68805  0.15481  0.69012  1.0000
  C   C1132     1.0  0.70246  0.14666  0.66930  1.0000
  C   C1133     1.0  0.68298  0.13474  0.70774  1.0000
  C   C1134     1.0  0.66559  0.16732  0.68332  1.0000
  C   C1135     1.0  0.69934  0.17126  0.69940  1.0000
  C   C1136     1.0  0.63226  0.29546  0.53753  1.0000
  C   C1137     1.0  0.70869  0.16520  0.64926  1.0000
  H   H2020     1.0  0.88408  0.29360  0.72338  1.0000
  C   C1138     1.0  0.70188  0.11375  0.70949  1.0000
  H   H2021     1.0  0.65842  0.27774  0.55672  1.0000
  C   C1139     1.0  0.71881  0.15461  0.62785  1.0000
  H   H2022     1.0  0.71912  0.13698  0.67325  1.0000
  C   C1140     1.0  0.80173  0.28323  0.65938  1.0000
  H   H2023     1.0  0.66812  0.18408  0.67319  1.0000
  H   H2024     1.0  0.70327  0.18559  0.68611  1.0000
  H   H2025     1.0  0.86163  0.44539  0.64734  1.0000
  H   H2026     1.0  0.73371  0.15251  0.69761  1.0000
  C   C1141     1.0  0.84922  0.25299  0.68120  1.0000
  H   H2027     1.0  0.69372  0.17759  0.64498  1.0000
  H   H2028     1.0  0.72165  0.17456  0.65344  1.0000
  C   C1142     1.0  0.89832  0.13236  0.72754  1.0000
  H   H2029     1.0  0.70303  0.10449  0.69477  1.0000
  H   H2030     1.0  0.71447  0.30955  0.54115  1.0000
  H   H2031     1.0  0.69362  0.13448  0.66301  1.0000
  C   C1143     1.0  0.86130  0.42438  0.68093  1.0000
  C   C1144     1.0  0.80514  0.24003  0.71413  1.0000
  H   H2032     1.0  0.70585  0.14637  0.62214  1.0000
  H   H2033     1.0  0.72429  0.16797  0.61409  1.0000
  H   H2034     1.0  0.73394  0.14181  0.63085  1.0000
  C   C1145     1.0  0.69649  0.09723  0.73093  1.0000
  H   H2035     1.0  0.81870  0.14565  0.73752  1.0000
  H   H2036     1.0  0.74757  0.17236  0.72482  1.0000
  C   C1146     1.0  0.83098  0.40099  0.64963  1.0000
  H   H2037     1.0  0.70450  0.22205  0.53868  1.0000
  C   C1147     1.0  0.71442  0.28766  0.51566  1.0000
  H   H2038     1.0  0.74116  0.29132  0.53494  1.0000
  H   H2039     1.0  0.66618  0.27909  0.50485  1.0000
  C   C1148     1.0  0.62435  0.18490  0.69360  1.0000
  H   H2040     1.0  0.67286  0.19891  0.57295  1.0000
  C   C1149     1.0  0.82112  0.43954  0.67395  1.0000
  H   H2041     1.0  0.83762  0.26405  0.71386  1.0000
  C   C1150     1.0  0.73256  0.18008  0.71622  1.0000
  H   H2042     1.0  0.71480  0.45816  0.70727  1.0000
  H   H2043     1.0  0.83284  0.28533  0.69086  1.0000
  H   H2044     1.0  0.73096  0.28767  0.71248  1.0000
  H   H2045     1.0  0.82533  0.44256  0.65532  1.0000
  H   H2046     1.0  0.81009  0.24659  0.66933  1.0000
  C   C1151     1.0  0.82868  0.41611  0.70934  1.0000
  C   C1152     1.0  0.86862  0.30492  0.72781  1.0000
  H   H2047     1.0  0.90344  0.44302  0.63804  1.0000
  C   C1153     1.0  0.85477  0.31480  0.71126  1.0000
  H   H2048     1.0  0.80322  0.43548  0.67709  1.0000
  H   H2049     1.0  0.81159  0.28442  0.73678  1.0000
  H   H2050     1.0  0.81342  0.40983  0.64787  1.0000
  H   H2051     1.0  0.67598  0.22295  0.53351  1.0000
  H   H2052     1.0  0.85067  0.38563  0.67693  1.0000
  C   C1154     1.0  0.68133  0.21143  0.57903  1.0000
  H   H2053     1.0  0.83081  0.38046  0.62329  1.0000
  N   N64       1.0  0.80707  0.26259  0.69947  1.0000
  H   H2054     1.0  0.66730  0.30012  0.53561  1.0000
  H   H2055     1.0  0.73312  0.31583  0.51511  1.0000
  H   H2056     1.0  0.89373  0.45407  0.66442  1.0000
  H   H2057     1.0  0.85328  0.11324  0.72674  1.0000
  H   H2058     1.0  0.83640  0.37895  0.71758  1.0000
  H   H2059     1.0  0.88591  0.24653  0.67110  1.0000
  S   S258      1.0  0.76967  0.11203  0.69480  1.0000
  H   H2060     1.0  0.82073  0.38997  0.68441  1.0000
  H   H2061     1.0  0.87543  0.27534  0.67606  1.0000
  H   H2062     1.0  0.87774  0.25284  0.69959  1.0000
  H   H2063     1.0  0.79538  0.29838  0.70013  1.0000
  H   H2064     1.0  0.65093  0.18366  0.71377  1.0000
  H   H2065     1.0  0.65883  0.15759  0.67228  1.0000
  N   N65       1.0  0.68960  0.25495  0.52382  1.0000
  C   C1155     1.0  0.70575  0.26748  0.53224  1.0000
  C   C1156     1.0  0.68750  0.23287  0.53933  1.0000
  H   H2066     1.0  0.73844  0.19158  0.70088  1.0000
  C   C1157     1.0  0.66634  0.26872  0.52182  1.0000
  C   C1158     1.0  0.65725  0.28567  0.53909  1.0000
  H   H2067     1.0  0.77351  0.28123  0.70852  1.0000
  C   C1159     1.0  0.79173  0.28173  0.70988  1.0000
  C   C1160     1.0  0.67785  0.23454  0.56444  1.0000
  C   C1161     1.0  0.87232  0.43119  0.65636  1.0000
  H   H2068     1.0  0.83807  0.46752  0.68007  1.0000
  H   H2069     1.0  0.79183  0.19802  0.73327  1.0000
  C   C1162     1.0  0.83520  0.39837  0.67467  1.0000
  H   H2070     1.0  0.81570  0.22604  0.70560  1.0000
  H   H2071     1.0  0.87533  0.41635  0.64703  1.0000
  H   H2072     1.0  0.80990  0.41531  0.71247  1.0000
  C   C1163     1.0  0.83484  0.32965  0.71676  1.0000
  H   H2073     1.0  0.68619  0.46577  0.72095  1.0000
  H   H2074     1.0  0.65554  0.38963  0.68283  1.0000
  H   H2075     1.0  0.90734  0.42496  0.66428  1.0000
  H   H2076     1.0  0.70958  0.08190  0.73098  1.0000
  H   H2077     1.0  0.72687  0.25921  0.70992  1.0000
  C   C1164     1.0  0.77206  0.48493  0.72795  1.0000
  H   H2078     1.0  0.67805  0.14037  0.72472  1.0000
  H   H2079     1.0  0.88180  0.14327  0.72536  1.0000
  H   H2080     1.0  0.86298  0.43762  0.69121  1.0000
  Fe  Fe129     1.0  0.77559  0.10028  0.73089  1.0000
  S   S259      1.0  0.61567  0.26882  0.74088  1.0000
  H   H2081     1.0  0.64137  0.15700  0.71379  1.0000
  H   H2082     1.0  0.81266  0.23930  0.72997  1.0000
  H   H2083     1.0  0.72597  0.49397  0.71333  1.0000
  S   S260      1.0  0.80996  0.08219  0.73815  1.0000
  H   H2084     1.0  0.67943  0.09189  0.73171  1.0000
  H   H2085     1.0  0.78791  0.47755  0.67139  1.0000
  C   C1165     1.0  0.79376  0.28296  0.73487  1.0000
  H   H2086     1.0  0.63027  0.30426  0.52023  1.0000
  C   C1166     1.0  0.77995  0.21282  0.73887  1.0000
  H   H2087     1.0  0.90109  0.06144  0.73863  1.0000
  C   C1167     1.0  0.83775  0.17409  0.73288  1.0000
  H   H2088     1.0  0.69676  0.48197  0.69450  1.0000
  C   C1168     1.0  0.82884  0.33470  0.73889  1.0000
  S   S261      1.0  0.77413  0.37873  0.73792  1.0000
  S   S262      1.0  0.91028  0.24790  0.73424  1.0000
  H   H2089     1.0  0.83117  0.43069  0.71740  1.0000
  H   H2090     1.0  0.76026  0.30342  0.74087  1.0000
  C   C1169     1.0  0.84036  0.39446  0.72293  1.0000
  H   H2091     1.0  0.85919  0.39379  0.72064  1.0000
  C   C1170     1.0  0.85270  0.18467  0.74201  1.0000
  Fe  Fe130     1.0  0.93419  0.22575  0.75653  1.0000
  H   H2092     1.0  0.93696  0.12771  0.82263  1.0000
  H   H2093     1.0  0.99453  0.12880  0.86765  1.0000
  Fe  Fe131     1.0  0.89601  0.21749  0.79534  1.0000
  S   S263      1.0  0.86959  0.23926  0.77636  1.0000
  S   S264      1.0  0.88482  0.20188  0.83102  1.0000
  H   H2094     1.0  0.89209  0.15745  0.81128  1.0000
  H   H2095     1.0  0.70528  0.22825  0.75992  1.0000
  Fe  Fe132     1.0  0.89535  0.26310  0.76588  1.0000
  S   S265      1.0  0.88097  0.29914  0.77019  1.0000
  S   S266      1.0  0.91173  0.19836  0.76650  1.0000
  S   S267      1.0  0.92084  0.24281  0.78736  1.0000
  Fe  Fe133     1.0  0.75725  0.20944  0.87427  1.0000
  S   S268      1.0  0.76741  0.17912  0.89891  1.0000
  S   S269      1.0  0.77749  0.21921  0.84064  1.0000
  Fe  Fe134     1.0  0.71042  0.22025  0.90060  1.0000
  S   S270      1.0  0.71656  0.19073  0.92778  1.0000
  S   S271      1.0  0.67748  0.24449  0.90110  1.0000
  Fe  Fe135     1.0  0.75132  0.20141  0.92557  1.0000
  Fe  Fe136     1.0  0.73207  0.17122  0.89887  1.0000
  S   S272      1.0  0.72341  0.13622  0.89793  1.0000
  S   S273      1.0  0.74401  0.23252  0.90044  1.0000
  S   S274      1.0  0.72304  0.20007  0.87222  1.0000
  Fe  Fe137     1.0  0.80405  0.10316  0.76653  1.0000
  S   S275      1.0  0.77095  0.12321  0.75765  1.0000
  S   S276      1.0  0.83147  0.11760  0.77857  1.0000
  Fe  Fe138     1.0  0.79034  0.05738  0.76219  1.0000
  S   S277      1.0  0.75621  0.07377  0.75266  1.0000
  Fe  Fe139     1.0  0.75500  0.09501  0.78029  1.0000
  S   S278      1.0  0.72302  0.09928  0.80540  1.0000
  S   S279      1.0  0.78769  0.07687  0.79133  1.0000
  Fe  Fe140     1.0  0.60920  0.24590  0.80435  1.0000
  S   S280      1.0  0.58781  0.27754  0.79036  1.0000
  S   S281      1.0  0.60297  0.23327  0.84153  1.0000
  H   H2096     1.0  0.92750  0.13362  0.74459  1.0000
  C   C1171     1.0  0.73721  0.03280  0.80201  1.0000
  H   H2097     1.0  0.80691  0.02433  0.81922  1.0000
  H   H2098     1.0  0.76796  0.04567  0.82606  1.0000
  Fe  Fe141     1.0  0.63501  0.23824  0.75881  1.0000
  N   N66       1.0  0.73936  0.01378  0.82141  1.0000
  S   S282      1.0  0.64222  0.25627  0.78595  1.0000
  S   S283      1.0  0.60353  0.22512  0.77853  1.0000
  H   H2099     1.0  0.88010  0.11003  0.75194  1.0000
  C   C1172     1.0  0.71392  0.02963  0.77052  1.0000
  S   S284      1.0  0.72666  0.34247  0.76768  1.0000
  N   N67       1.0  0.96129  0.16560  0.81301  1.0000
  C   C1173     1.0  0.76714  0.46750  0.77368  1.0000
  H   H2100     1.0  0.52109  0.18552  0.85823  1.0000
  C   C1174     1.0  0.54889  0.21833  0.89860  1.0000
  C   C1175     1.0  0.70653  0.18201  0.78337  1.0000
  H   H2101     1.0  0.92689  0.17911  0.80635  1.0000
  H   H2102     1.0  0.76520  0.46070  0.79143  1.0000
  H   H2103     1.0  0.52636  0.24076  0.86263  1.0000
  H   H2104     1.0  0.66891  0.29242  0.77225  1.0000
  H   H2105     1.0  0.50905  0.28387  0.81607  1.0000
  C   C1176     1.0  0.74393  0.23244  0.97924  1.0000
  C   C1177     1.0  0.96238  0.22164  0.83716  1.0000
  C   C1178     1.0  0.69967  0.33657  0.76456  1.0000
  H   H2106     1.0  0.76332  0.02986  0.85382  1.0000
  C   C1179     1.0  0.76517  0.45375  0.75747  1.0000
  H   H2107     1.0  0.93042  0.14109  0.79501  1.0000
  H   H2108     1.0  0.51770  0.23084  0.80813  1.0000
  H   H2109     1.0  0.69976  0.03128  0.80555  1.0000
  H   H2110     1.0  0.51472  0.27183  0.78978  1.0000
  H   H2111     1.0  0.68151  0.14050  0.76553  1.0000
  H   H2112     1.0  0.72256  0.24704  0.76757  1.0000
  C   C1180     1.0  0.86754  0.07023  0.75688  1.0000
  H   H2113     1.0  0.55490  0.21623  0.76933  1.0000
  C   C1181     1.0  0.56659  0.18379  0.83747  1.0000
  C   C1182     1.0  0.97028  0.15946  0.78964  1.0000
  C   C1183     1.0  0.65754  0.24002  0.88431  1.0000
  C   C1184     1.0  0.63435  0.24206  0.89322  1.0000
  C   C1185     1.0  0.61790  0.23963  0.88003  1.0000
  C   C1186     1.0  0.62436  0.23594  0.85751  1.0000
  C   C1187     1.0  0.64755  0.23430  0.84833  1.0000
  C   C1188     1.0  0.66417  0.23613  0.86181  1.0000
  H   H2114     1.0  0.62910  0.24536  0.91049  1.0000
  H   H2115     1.0  0.60005  0.24107  0.88721  1.0000
  H   H2116     1.0  0.65263  0.23144  0.83097  1.0000
  H   H2117     1.0  0.68201  0.23515  0.85471  1.0000
  C   C1189     1.0  0.72428  0.12636  0.87178  1.0000
  C   C1190     1.0  0.70550  0.11693  0.86816  1.0000
  C   C1191     1.0  0.70547  0.10866  0.84779  1.0000
  C   C1192     1.0  0.72462  0.10880  0.83114  1.0000
  C   C1193     1.0  0.74393  0.11729  0.83504  1.0000
  C   C1194     1.0  0.74362  0.12643  0.85521  1.0000
  H   H2118     1.0  0.69068  0.11647  0.88101  1.0000
  H   H2119     1.0  0.69051  0.10212  0.84497  1.0000
  H   H2120     1.0  0.75896  0.11705  0.82246  1.0000
  H   H2121     1.0  0.75849  0.13304  0.85819  1.0000
  H   H2122     1.0  0.72926  0.00820  0.85759  1.0000
  C   C1195     1.0  0.76440  0.21754  0.97674  1.0000
  H   H2123     1.0  0.73195  0.23396  0.96728  1.0000
  H   H2124     1.0  0.68680  0.03674  0.87247  1.0000
  H   H2125     1.0  0.66656  0.16549  0.77697  1.0000
  C   C1196     1.0  0.65559  0.32728  0.76243  1.0000
  H   H2126     1.0  0.54637  0.19186  0.87982  1.0000
  C   C1197     1.0  0.92766  0.14279  0.81328  1.0000
  C   C1198     1.0  0.84312  0.32544  0.75528  1.0000
  H   H2127     1.0  0.97587  0.13162  0.82553  1.0000
  H   H2128     1.0  0.83867  0.32978  0.77223  1.0000
  Fe  Fe142     1.0  0.88655  0.22183  0.74700  1.0000
  H   H2129     1.0  0.55528  0.17061  0.84376  1.0000
  C   C1199     1.0  0.79760  0.02459  0.83665  1.0000
  C   C1200     1.0  0.83802  0.14410  0.76489  1.0000
  C   C1201     1.0  0.85241  0.15500  0.77419  1.0000
  C   C1202     1.0  0.77122  0.00234  0.75175  1.0000
  H   H2130     1.0  0.52702  0.18844  0.77634  1.0000
  H   H2131     1.0  0.85823  0.14767  0.79014  1.0000
  H   H2132     1.0  0.99336  0.16754  0.74590  1.0000
  C   C1203     1.0  0.85495  0.20224  0.83504  1.0000
  C   C1204     1.0  0.84208  0.20419  0.85632  1.0000
  C   C1205     1.0  0.81801  0.20790  0.85859  1.0000
  C   C1206     1.0  0.80695  0.20993  0.83950  1.0000
  C   C1207     1.0  0.81981  0.20657  0.81860  1.0000
  C   C1208     1.0  0.84371  0.20249  0.81650  1.0000
  H   H2133     1.0  0.85066  0.20371  0.87085  1.0000
  H   H2134     1.0  0.80811  0.21020  0.87487  1.0000
  H   H2135     1.0  0.81137  0.20771  0.80386  1.0000
  H   H2136     1.0  0.85345  0.20013  0.80031  1.0000
  C   C1209     1.0  0.77829  0.30359  0.74315  1.0000
  H   H2137     1.0  0.89774  0.14474  0.83934  1.0000
  C   C1210     1.0  0.86106  0.04653  0.76541  1.0000
  H   H2138     1.0  0.97270  0.23765  0.78150  1.0000
  H   H2139     1.0  0.68618  0.16836  0.75112  1.0000
  C   C1211     1.0  0.95274  0.20026  0.83486  1.0000
  H   H2140     1.0  0.76170  0.43649  0.76274  1.0000
  C   C1212     1.0  0.70258  0.04483  0.87025  1.0000
  S   S285      1.0  0.77136  0.20021  0.95487  1.0000
  H   H2141     1.0  0.71670  0.15861  0.97690  1.0000
  H   H2142     1.0  0.50510  0.24377  0.83247  1.0000
  C   C1213     1.0  0.78636  0.15988  0.79961  1.0000
  H   H2143     1.0  0.99864  0.13747  0.75561  1.0000
  C   C1214     1.0  0.70255  0.15761  0.78138  1.0000
  H   H2144     1.0  0.72934  0.18312  0.97922  1.0000
  Fe  Fe143     1.0  0.62050  0.28610  0.76940  1.0000
  C   C1215     1.0  0.73069  0.16440  0.98359  1.0000
  C   C1216     1.0  0.53827  0.22518  0.85881  1.0000
  H   H2145     1.0  0.59942  0.18555  0.81607  1.0000
  H   H2146     1.0  0.79966  0.16165  0.80985  1.0000
  H   H2147     1.0  0.95352  0.22852  0.85271  1.0000
  H   H2148     1.0  0.56736  0.21876  0.89234  1.0000
  N   N68       1.0  0.84001  0.28311  0.83800  1.0000
  C   C1217     1.0  0.82647  0.27093  0.85814  1.0000
  C   C1218     1.0  0.86333  0.26935  0.83361  1.0000
  C   C1219     1.0  0.84177  0.30646  0.84293  1.0000
  C   C1220     1.0  0.82851  0.28570  0.81709  1.0000
  C   C1221     1.0  0.81994  0.26417  0.81255  1.0000
  C   C1222     1.0  0.80154  0.28226  0.86452  1.0000
  C   C1223     1.0  0.85843  0.31995  0.82561  1.0000
  C   C1224     1.0  0.87859  0.26656  0.85263  1.0000
  C   C1225     1.0  0.90325  0.25695  0.84457  1.0000
  C   C1226     1.0  0.81120  0.26794  0.78974  1.0000
  C   C1227     1.0  0.78822  0.26652  0.88226  1.0000
  C   C1228     1.0  0.85815  0.34363  0.83171  1.0000
  H   H2149     1.0  0.83493  0.26952  0.87347  1.0000
  H   H2150     1.0  0.82628  0.25307  0.85567  1.0000
  H   H2151     1.0  0.86170  0.25185  0.83104  1.0000
  H   H2152     1.0  0.87296  0.27644  0.81742  1.0000
  H   H2153     1.0  0.84659  0.30569  0.86007  1.0000
  H   H2154     1.0  0.82470  0.31710  0.84357  1.0000
  H   H2155     1.0  0.81368  0.29947  0.81741  1.0000
  H   H2156     1.0  0.84041  0.29120  0.80183  1.0000
  H   H2157     1.0  0.80563  0.25938  0.82561  1.0000
  H   H2158     1.0  0.83382  0.24971  0.81256  1.0000
  H   H2159     1.0  0.80155  0.29807  0.87173  1.0000
  H   H2160     1.0  0.79209  0.28661  0.84976  1.0000
  H   H2161     1.0  0.85353  0.32203  0.80844  1.0000
  H   H2162     1.0  0.87630  0.31125  0.82504  1.0000
  H   H2163     1.0  0.87918  0.28287  0.85854  1.0000
  H   H2164     1.0  0.87201  0.25464  0.86729  1.0000
  H   H2165     1.0  0.91088  0.26866  0.83032  1.0000
  H   H2166     1.0  0.91360  0.25476  0.85863  1.0000
  H   H2167     1.0  0.90391  0.24017  0.83904  1.0000
  H   H2168     1.0  0.82495  0.27248  0.77584  1.0000
  H   H2169     1.0  0.80541  0.25217  0.78685  1.0000
  H   H2170     1.0  0.79656  0.28175  0.78960  1.0000
  H   H2171     1.0  0.79681  0.26168  0.89764  1.0000
  H   H2172     1.0  0.77070  0.27519  0.88714  1.0000
  H   H2173     1.0  0.78682  0.25092  0.87528  1.0000
  H   H2174     1.0  0.87025  0.35282  0.81904  1.0000
  H   H2175     1.0  0.84077  0.35348  0.83164  1.0000
  H   H2176     1.0  0.86353  0.34250  0.84863  1.0000
  H   H2177     1.0  0.95957  0.23481  0.82244  1.0000
  C   C1229     1.0  0.52172  0.23623  0.82359  1.0000
  H   H2178     1.0  0.78481  0.21677  0.75463  1.0000
  H   H2179     1.0  0.70775  0.30062  0.77446  1.0000
  H   H2180     1.0  0.84926  0.04689  0.78157  1.0000
  H   H2181     1.0  0.54055  0.23570  0.90134  1.0000
  H   H2182     1.0  0.96102  0.17125  0.77685  1.0000
  S   S286      1.0  0.80364  0.01989  0.76937  1.0000
  C   C1230     1.0  0.99629  0.15905  0.78188  1.0000
  C   C1231     1.0  0.77177  0.02897  0.83618  1.0000
  H   H2183     1.0  0.78521  0.14156  0.80060  1.0000
  C   C1232     1.0  0.69465  0.31427  0.76964  1.0000
  H   H2184     1.0  0.89663  0.12707  0.81825  1.0000
  H   H2185     1.0  0.69200  0.25397  0.77062  1.0000
  H   H2186     1.0  0.54420  0.26071  0.82828  1.0000
  C   C1233     1.0  0.50657  0.19017  0.82741  1.0000
  C   C1234     1.0  0.67267  0.30960  0.76841  1.0000
  H   H2187     1.0  0.74058  0.04892  0.80654  1.0000
  H   H2188     1.0  0.52120  0.18076  0.81748  1.0000
  H   H2189     1.0  0.92862  0.16770  0.83479  1.0000
  C   C1235     1.0  0.68301  0.15806  0.76785  1.0000
  C   C1236     1.0  0.51473  0.20024  0.84632  1.0000
  H   H2190     1.0  0.74290  0.15195  0.79690  1.0000
  H   H2191     1.0  0.72639  0.03764  0.75730  1.0000
  C   C1237     1.0  0.51715  0.32598  0.74804  1.0000
  N   N69       1.0  0.70328  0.30416  0.85092  1.0000
  C   C1238     1.0  0.72041  0.29704  0.83124  1.0000
  C   C1239     1.0  0.70074  0.32965  0.84974  1.0000
  C   C1240     1.0  0.71317  0.29378  0.87236  1.0000
  C   C1241     1.0  0.68030  0.29638  0.85189  1.0000
  C   C1242     1.0  0.67197  0.29562  0.82900  1.0000
  C   C1243     1.0  0.72837  0.27117  0.83203  1.0000
  C   C1244     1.0  0.69991  0.30148  0.89472  1.0000
  C   C1245     1.0  0.69163  0.34398  0.82861  1.0000
  C   C1246     1.0  0.69349  0.36908  0.82779  1.0000
  C   C1247     1.0  0.64608  0.29584  0.83185  1.0000
  C   C1248     1.0  0.74189  0.26570  0.80941  1.0000
  C   C1249     1.0  0.71000  0.28794  0.91529  1.0000
  H   H2192     1.0  0.73610  0.30523  0.82993  1.0000
  H   H2193     1.0  0.71390  0.30316  0.81491  1.0000
  H   H2194     1.0  0.68847  0.33546  0.86418  1.0000
  H   H2195     1.0  0.71748  0.33485  0.85115  1.0000
  H   H2196     1.0  0.73112  0.29724  0.87114  1.0000
  H   H2197     1.0  0.71403  0.27497  0.87470  1.0000
  H   H2198     1.0  0.68016  0.27893  0.86118  1.0000
  H   H2199     1.0  0.66686  0.30702  0.86211  1.0000
  H   H2200     1.0  0.68031  0.27990  0.82202  1.0000
  H   H2201     1.0  0.67602  0.31006  0.81613  1.0000
  H   H2202     1.0  0.73991  0.26511  0.84508  1.0000
  H   H2203     1.0  0.71361  0.26150  0.83620  1.0000
  H   H2204     1.0  0.68162  0.29918  0.89657  1.0000
  H   H2205     1.0  0.70108  0.31954  0.89532  1.0000
  H   H2206     1.0  0.70129  0.33869  0.81274  1.0000
  H   H2207     1.0  0.67325  0.34264  0.82913  1.0000
  C   C1250     1.0  0.71581  0.04328  0.84662  1.0000
  H   H2208     1.0  0.71169  0.37162  0.82641  1.0000
  H   H2209     1.0  0.68645  0.37888  0.81267  1.0000
  H   H2210     1.0  0.64086  0.29371  0.81560  1.0000
  H   H2211     1.0  0.64070  0.28191  0.84495  1.0000
  H   H2212     1.0  0.63707  0.31227  0.83679  1.0000
  H   H2213     1.0  0.73117  0.27100  0.79563  1.0000
  H   H2214     1.0  0.75729  0.27448  0.80535  1.0000
  H   H2215     1.0  0.74756  0.24719  0.81034  1.0000
  H   H2216     1.0  0.70074  0.29438  0.93093  1.0000
  H   H2217     1.0  0.70812  0.26975  0.91671  1.0000
  H   H2218     1.0  0.72841  0.28956  0.91414  1.0000
  H   H2219     1.0  0.85203  0.04089  0.75306  1.0000
  H   H2220     1.0  0.58072  0.16935  0.80642  1.0000
  C   C1251     1.0  0.51099  0.24876  0.74523  1.0000
  S   S287      1.0  0.55104  0.26349  0.74850  1.0000
  H   H2221     1.0  0.71825  0.14835  0.77272  1.0000
  H   H2222     1.0  0.99052  0.16863  0.84790  1.0000
  H   H2223     1.0  0.75095  0.02950  0.78766  1.0000
  C   C1252     1.0  0.52239  0.20541  0.76797  1.0000
  H   H2224     1.0  0.98098  0.21775  0.83835  1.0000
  H   H2225     1.0  0.51951  0.20787  0.88909  1.0000
  C   C1253     1.0  0.55366  0.20542  0.82536  1.0000
  H   H2226     1.0  0.80286  0.03840  0.84394  1.0000
  C   C1254     1.0  0.53664  0.25545  0.81471  1.0000
  C   C1255     1.0  0.58668  0.17353  0.82152  1.0000
  H   H2227     1.0  0.53394  0.28935  0.79595  1.0000
  H   H2228     1.0  0.55551  0.23076  0.85471  1.0000
  H   H2229     1.0  0.54979  0.20156  0.80916  1.0000
  H   H2230     1.0  0.56638  0.21754  0.82038  1.0000
  H   H2231     1.0  0.99853  0.27401  0.86427  1.0000
  H   H2232     1.0  0.55074  0.24963  0.80172  1.0000
  H   H2233     1.0  0.81321  0.39441  0.75177  1.0000
  C   C1256     1.0  0.71359  0.03810  0.79313  1.0000
  C   C1257     1.0  0.98990  0.23074  0.77516  1.0000
  H   H2234     1.0  0.83706  0.40815  0.75474  1.0000
  H   H2235     1.0  0.87081  0.18331  0.77009  1.0000
  H   H2236     1.0  0.89998  0.14132  0.76081  1.0000
  N   N70       1.0  0.72116  0.18396  0.80091  1.0000
  C   C1258     1.0  0.72470  0.20838  0.80035  1.0000
  C   C1259     1.0  0.74431  0.17037  0.79485  1.0000
  C   C1260     1.0  0.71127  0.17423  0.82428  1.0000
  C   C1261     1.0  0.68694  0.18505  0.83314  1.0000
  C   C1262     1.0  0.76345  0.17276  0.80864  1.0000
  C   C1263     1.0  0.70422  0.22748  0.79642  1.0000
  C   C1264     1.0  0.70623  0.23980  0.77216  1.0000
  C   C1265     1.0  0.67728  0.17188  0.85538  1.0000
  H   H2237     1.0  0.68946  0.19218  0.78601  1.0000
  H   H2238     1.0  0.73029  0.21045  0.81654  1.0000
  H   H2239     1.0  0.73932  0.21270  0.78727  1.0000
  H   H2240     1.0  0.71140  0.15571  0.82560  1.0000
  H   H2241     1.0  0.72238  0.17577  0.83679  1.0000
  H   H2242     1.0  0.67469  0.18569  0.82107  1.0000
  H   H2243     1.0  0.68770  0.20241  0.83638  1.0000
  H   H2244     1.0  0.75926  0.16594  0.82668  1.0000
  H   H2245     1.0  0.76617  0.19065  0.80767  1.0000
  N   N71       1.0  0.53235  0.21626  0.83873  1.0000
  H   H2246     1.0  0.70419  0.24035  0.80766  1.0000
  H   H2247     1.0  0.59531  0.15773  0.83045  1.0000
  C   C1266     1.0  0.72257  0.01815  0.84230  1.0000
  C   C1267     1.0  0.99380  0.21952  0.75610  1.0000
  H   H2248     1.0  0.67426  0.15492  0.85260  1.0000
  H   H2249     1.0  0.68914  0.16977  0.86816  1.0000
  H   H2250     1.0  0.66071  0.18125  0.86220  1.0000
  H   H2251     1.0  0.79185  0.16686  0.78180  1.0000
  H   H2252     1.0  0.64752  0.36324  0.75265  1.0000
  H   H2253     1.0  0.68365  0.37572  0.84311  1.0000
  H   H2254     1.0  0.71341  0.03648  0.88335  1.0000
  H   H2255     1.0  0.73077  0.05235  0.84501  1.0000
  H   H2256     1.0  0.77570  0.00585  0.81125  1.0000
  C   C1268     1.0  0.53818  0.22106  0.76402  1.0000
  Fe  Fe144     1.0  0.58452  0.25761  0.76301  1.0000
  H   H2257     1.0  0.75078  0.17512  0.77663  1.0000
  H   H2258     1.0  0.98322  0.19150  0.81132  1.0000
  H   H2259     1.0  0.69673  0.03426  0.76505  1.0000
  C   C1269     1.0  0.99453  0.15437  0.83774  1.0000
  H   H2260     1.0  0.71438  0.18935  0.76645  1.0000
  H   H2261     1.0  0.54740  0.20710  0.91504  1.0000
  H   H2262     1.0  0.70462  0.05277  0.83431  1.0000
  H   H2263     1.0  0.69693  0.10517  0.74617  1.0000
  H   H2264     1.0  0.70619  0.01174  0.84191  1.0000
  H   H2265     1.0  0.51466  0.33572  0.76255  1.0000
  H   H2266     1.0  0.57394  0.18807  0.85170  1.0000
  C   C1270     1.0  0.77154  0.49000  0.76703  1.0000
  C   C1271     1.0  0.78900  0.99804  0.76496  1.0000
  C   C1272     1.0  0.53758  0.20919  0.88166  1.0000
  H   H2267     1.0  0.96019  0.14685  0.84691  1.0000
  H   H2268     1.0  0.68719  0.22190  0.80116  1.0000
  H   H2269     1.0  0.81347  0.34605  0.74330  1.0000
  H   H2270     1.0  0.96705  0.14214  0.78831  1.0000
  H   H2271     1.0  0.69783  0.14771  0.79803  1.0000
  H   H2272     1.0  0.76639  0.01936  0.74359  1.0000
  C   C1273     1.0  0.68278  0.35416  0.75803  1.0000
  H   H2273     1.0  0.80249  0.00818  0.84712  1.0000
  H   H2274     1.0  0.87546  0.07543  0.77029  1.0000
  C   C1274     1.0  0.53237  0.24289  0.75289  1.0000
  H   H2275     1.0  0.87650  0.03413  0.76838  1.0000
  H   H2276     1.0  0.95440  0.18805  0.85046  1.0000
  H   H2277     1.0  0.52777  0.30943  0.75229  1.0000
  H   H2278     1.0  0.69761  0.06293  0.87269  1.0000
  H   H2279     1.0  0.77882  0.30372  0.76133  1.0000
  C   C1275     1.0  0.66072  0.34953  0.75720  1.0000
  H   H2280     1.0  0.93420  0.20516  0.83373  1.0000
  C   C1276     1.0  0.96480  0.18975  0.81348  1.0000
  C   C1277     1.0  0.97227  0.14883  0.83088  1.0000
  C   C1278     1.0  0.93576  0.16489  0.81713  1.0000
  H   H2281     1.0  0.95829  0.20095  0.79869  1.0000
  H   H2282     1.0  0.68656  0.37142  0.75418  1.0000
  C   C1279     1.0  0.83017  0.15390  0.74449  1.0000
  H   H2283     1.0  0.71844  0.01095  0.77184  1.0000
  H   H2284     1.0  0.78855  0.26769  0.74607  1.0000
  C   C1280     1.0  0.90200  0.14307  0.82106  1.0000
  H   H2285     1.0  0.83996  0.37764  0.75745  1.0000
  H   H2286     1.0  0.74733  0.15647  0.97526  1.0000
  C   C1281     1.0  0.85958  0.17525  0.76284  1.0000
  H   H2287     1.0  0.79573  0.20447  0.99049  1.0000
  S   S288      1.0  0.62780  0.32218  0.76102  1.0000
  H   H2288     1.0  0.70863  0.05682  0.79043  1.0000
  C   C1282     1.0  0.76367  0.00978  0.82662  1.0000
  C   C1283     1.0  0.52261  0.27641  0.80349  1.0000
  C   C1284     1.0  0.86301  0.31049  0.74976  1.0000
  C   C1285     1.0  0.83208  0.39369  0.74825  1.0000
  H   H2289     1.0  0.85163  0.08189  0.75459  1.0000
  H   H2290     1.0  0.90927  0.09874  0.74465  1.0000
  S   S289      1.0  0.97104  0.21451  0.74317  1.0000
  C   C1286     1.0  0.90986  0.14253  0.74359  1.0000
  C   C1287     1.0  0.77975  0.21576  0.99244  1.0000
  H   H2291     1.0  0.76238  0.20815  0.74262  1.0000
  H   H2292     1.0  0.77296  0.63123  0.23949  1.0000
  S   S290      1.0  0.75983  0.87380  0.20162  1.0000
  C   C1288     1.0  0.72185  0.74980  0.02140  1.0000
  H   H2293     1.0  0.78244  0.55081  0.19724  1.0000
  S   S291      1.0  0.92593  0.73221  0.22313  1.0000
  H   H2294     1.0  0.68103  0.74585  0.04287  1.0000
  H   H2295     1.0  0.68043  0.77536  0.03527  1.0000
  H   H2296     1.0  0.71685  0.68511  0.08757  1.0000
  H   H2297     1.0  0.78387  0.94074  0.20638  1.0000
  H   H2298     1.0  0.55595  0.76799  0.23681  1.0000
  H   H2299     1.0  0.71598  0.78509  0.06234  1.0000
  Fe  Fe145     1.0  0.91030  0.70706  0.20919  1.0000
  S   S292      1.0  0.89752  0.71864  0.17577  1.0000
  C   C1289     1.0  0.57755  0.76655  0.20420  1.0000
  Fe  Fe146     1.0  0.78041  0.77805  0.12435  1.0000
  S   S293      1.0  0.76039  0.75602  0.15120  1.0000
  S   S294      1.0  0.79907  0.80536  0.13108  1.0000
  Fe  Fe147     1.0  0.78218  0.74684  0.08774  1.0000
  S   S295      1.0  0.76291  0.72212  0.11213  1.0000
  S   S296      1.0  0.79913  0.74402  0.05156  1.0000
  Fe  Fe148     1.0  0.74061  0.75316  0.12341  1.0000
  S   S297      1.0  0.70231  0.75642  0.12527  1.0000
  Fe  Fe149     1.0  0.78443  0.72725  0.13764  1.0000
  S   S298      1.0  0.80133  0.69874  0.16089  1.0000
  S   S299      1.0  0.75864  0.77786  0.09741  1.0000
  S   S300      1.0  0.80551  0.74931  0.11237  1.0000
  H   H2300     1.0  0.59313  0.77379  0.19572  1.0000
  C   C1290     1.0  0.81368  0.91812  0.17683  1.0000
  H   H2301     1.0  0.81382  0.90054  0.18579  1.0000
  C   C1291     1.0  0.72324  0.70170  0.08564  1.0000
  C   C1292     1.0  0.72038  0.78060  0.04487  1.0000
  C   C1293     1.0  0.68598  0.75728  0.15215  1.0000
  C   C1294     1.0  0.68953  0.73993  0.17018  1.0000
  C   C1295     1.0  0.67408  0.73952  0.19046  1.0000
  C   C1296     1.0  0.65545  0.75677  0.19281  1.0000
  C   C1297     1.0  0.65236  0.77433  0.17499  1.0000
  C   C1298     1.0  0.66737  0.77443  0.15468  1.0000
  H   H2302     1.0  0.70367  0.72641  0.16820  1.0000
  H   H2303     1.0  0.67652  0.72583  0.20415  1.0000
  H   H2304     1.0  0.63804  0.78769  0.17672  1.0000
  H   H2305     1.0  0.66442  0.78774  0.14078  1.0000
  N   N72       1.0  0.75034  0.94553  0.19557  1.0000
  C   C1299     1.0  0.79440  0.73979  0.00814  1.0000
  C   C1300     1.0  0.78937  0.73127  0.03110  1.0000
  C   C1301     1.0  0.77781  0.71231  0.03702  1.0000
  C   C1302     1.0  0.77129  0.70208  0.02009  1.0000
  H   H2306     1.0  0.77440  0.70522  0.05457  1.0000
  H   H2307     1.0  0.76260  0.68726  0.02478  1.0000
  C   C1303     1.0  0.86941  0.71399  0.17548  1.0000
  C   C1304     1.0  0.86261  0.69265  0.18335  1.0000
  C   C1305     1.0  0.84140  0.68812  0.17930  1.0000
  C   C1306     1.0  0.82666  0.70514  0.16815  1.0000
  C   C1307     1.0  0.83288  0.72685  0.16175  1.0000
  C   C1308     1.0  0.85448  0.73106  0.16473  1.0000
  H   H2308     1.0  0.87415  0.67933  0.19153  1.0000
  H   H2309     1.0  0.83668  0.67133  0.18450  1.0000
  H   H2310     1.0  0.82129  0.74037  0.15404  1.0000
  H   H2311     1.0  0.85964  0.74760  0.15865  1.0000
  C   C1309     1.0  0.77034  0.85344  0.18327  1.0000
  C   C1310     1.0  0.75548  0.84619  0.17103  1.0000
  C   C1311     1.0  0.76390  0.83045  0.15579  1.0000
  C   C1312     1.0  0.78734  0.82254  0.15220  1.0000
  C   C1313     1.0  0.80211  0.82973  0.16455  1.0000
  C   C1314     1.0  0.79360  0.84482  0.18032  1.0000
  H   H2312     1.0  0.73747  0.85279  0.17329  1.0000
  H   H2313     1.0  0.75245  0.82512  0.14617  1.0000
  H   H2314     1.0  0.82026  0.82374  0.16176  1.0000
  H   H2315     1.0  0.80520  0.85038  0.18962  1.0000
  C   C1315     1.0  0.77581  0.64755  0.22879  1.0000
  C   C1316     1.0  0.97490  0.77483  0.20723  1.0000
  C   C1317     1.0  0.77417  0.93257  0.19648  1.0000
  C   C1318     1.0  0.78448  0.78096  0.22793  1.0000
  C   C1319     1.0  0.83318  0.75726  0.23935  1.0000
  H   H2316     1.0  0.86592  0.78302  0.21297  1.0000
  C   C1320     1.0  0.79352  0.75521  0.23138  1.0000
  C   C1321     1.0  0.74625  0.78218  0.03806  1.0000
  C   C1322     1.0  0.71516  0.71688  0.06491  1.0000
  C   C1323     1.0  0.75138  0.80610  0.03853  1.0000
  H   H2317     1.0  0.74186  0.72583  0.23505  1.0000
  S   S301      1.0  0.98900  0.71007  0.22430  1.0000
  H   H2318     1.0  0.75617  0.77049  0.05009  1.0000
  H   H2319     1.0  0.69632  0.71775  0.06693  1.0000
  H   H2320     1.0  0.72263  0.70831  0.04995  1.0000
  S   S302      1.0  0.80689  0.89064  0.23463  1.0000
  H   H2321     1.0  0.71780  0.94743  0.21751  1.0000
  H   H2322     1.0  0.74557  0.81134  0.05554  1.0000
  C   C1324     1.0  0.72265  0.74080  0.06221  1.0000
  H   H2323     1.0  0.82431  0.91723  0.16009  1.0000
  C   C1325     1.0  0.75045  0.97057  0.19538  1.0000
  H   H2324     1.0  0.50594  0.74821  0.17450  1.0000
  N   N73       1.0  0.87159  0.70036  0.10093  1.0000
  C   C1326     1.0  0.88560  0.69321  0.12013  1.0000
  C   C1327     1.0  0.86217  0.72519  0.10053  1.0000
  C   C1328     1.0  0.85132  0.68733  0.10602  1.0000
  C   C1329     1.0  0.88484  0.69572  0.07830  1.0000
  C   C1330     1.0  0.91085  0.69743  0.07463  1.0000
  C   C1331     1.0  0.89280  0.66733  0.12607  1.0000
  C   C1332     1.0  0.83364  0.69327  0.08901  1.0000
  C   C1333     1.0  0.87947  0.74226  0.09786  1.0000
  C   C1334     1.0  0.92106  0.69671  0.04989  1.0000
  C   C1335     1.0  0.91175  0.66235  0.14110  1.0000
  C   C1336     1.0  0.81509  0.67775  0.09505  1.0000
  H   H2325     1.0  0.87578  0.69915  0.13574  1.0000
  H   H2326     1.0  0.90124  0.70155  0.11719  1.0000
  H   H2327     1.0  0.85191  0.73115  0.08640  1.0000
  H   H2328     1.0  0.85037  0.72757  0.11642  1.0000
  H   H2329     1.0  0.84189  0.68966  0.12316  1.0000
  H   H2330     1.0  0.85715  0.66882  0.10648  1.0000
  H   H2331     1.0  0.88354  0.67827  0.07519  1.0000
  H   H2332     1.0  0.87697  0.70723  0.06444  1.0000
  H   H2333     1.0  0.92009  0.68295  0.08485  1.0000
  H   H2334     1.0  0.91459  0.71314  0.07962  1.0000
  H   H2335     1.0  0.87796  0.65940  0.13564  1.0000
  H   H2336     1.0  0.89881  0.65908  0.11065  1.0000
  H   H2337     1.0  0.84201  0.69153  0.07151  1.0000
  H   H2338     1.0  0.82474  0.71081  0.08927  1.0000
  H   H2339     1.0  0.89130  0.73779  0.11073  1.0000
  H   H2340     1.0  0.88932  0.74328  0.08067  1.0000
  H   H2341     1.0  0.89723  0.81111  0.22724  1.0000
  H   H2342     1.0  0.93974  0.69736  0.04785  1.0000
  H   H2343     1.0  0.91836  0.68079  0.04427  1.0000
  H   H2344     1.0  0.91310  0.71149  0.03896  1.0000
  H   H2345     1.0  0.91584  0.64375  0.14591  1.0000
  H   H2346     1.0  0.92749  0.66899  0.13203  1.0000
  H   H2347     1.0  0.90617  0.67029  0.15680  1.0000
  H   H2348     1.0  0.80587  0.67955  0.11227  1.0000
  H   H2349     1.0  0.80252  0.68262  0.08284  1.0000
  H   H2350     1.0  0.82263  0.65977  0.09429  1.0000
  H   H2351     1.0  0.80207  0.93744  0.24074  1.0000
  H   H2352     1.0  0.86998  0.94789  0.22400  1.0000
  C   C1337     1.0  0.74067  0.94065  0.17555  1.0000
  H   H2353     1.0  0.80520  0.97486  0.21757  1.0000
  H   H2354     1.0  0.71439  0.97072  0.17188  1.0000
  C   C1338     1.0  0.67533  0.76504  0.07129  1.0000
  H   H2355     1.0  0.79422  0.64919  0.22709  1.0000
  C   C1339     1.0  0.78259  0.56504  0.20679  1.0000
  C   C1340     1.0  0.76736  0.63381  0.17049  1.0000
  H   H2356     1.0  0.75261  0.77791  0.02081  1.0000
  H   H2357     1.0  0.64376  0.78386  0.06036  1.0000
  C   C1341     1.0  0.80442  0.63446  0.18479  1.0000
  C   C1342     1.0  0.81944  0.61966  0.16790  1.0000
  C   C1343     1.0  0.76838  0.65649  0.15441  1.0000
  H   H2358     1.0  0.74219  0.69853  0.08364  1.0000
  C   C1344     1.0  0.77835  0.58766  0.19164  1.0000
  H   H2359     1.0  0.52425  0.76978  0.16483  1.0000
  C   C1345     1.0  0.84232  0.62851  0.15957  1.0000
  C   C1346     1.0  0.75611  0.65677  0.13405  1.0000
  H   H2360     1.0  0.58056  0.69625  0.22305  1.0000
  H   H2361     1.0  0.74897  0.63188  0.17606  1.0000
  H   H2362     1.0  0.77404  0.62026  0.15982  1.0000
  S   S303      1.0  0.68636  0.65283  0.23833  1.0000
  C   C1347     1.0  0.73501  0.93710  0.21661  1.0000
  H   H2363     1.0  0.80363  0.75424  0.00336  1.0000
  C   C1348     1.0  0.82232  0.70906  0.23242  1.0000
  C   C1349     1.0  0.86699  0.76610  0.10062  1.0000
  H   H2364     1.0  0.71659  0.70964  0.10120  1.0000
  H   H2365     1.0  0.81119  0.61950  0.15282  1.0000
  H   H2366     1.0  0.82331  0.60206  0.17647  1.0000
  H   H2367     1.0  0.75996  0.67118  0.16304  1.0000
  H   H2368     1.0  0.78636  0.65888  0.14787  1.0000
  H   H2369     1.0  0.74101  0.92195  0.17648  1.0000
  H   H2370     1.0  0.74075  0.74506  0.01951  1.0000
  H   H2371     1.0  0.76173  0.58847  0.18533  1.0000
  H   H2372     1.0  0.79192  0.58752  0.17693  1.0000
  H   H2373     1.0  0.77061  0.66626  0.19639  1.0000
  H   H2374     1.0  0.73231  0.91930  0.21606  1.0000
  C   C1350     1.0  0.73096  0.83179  0.24132  1.0000
  H   H2375     1.0  0.85314  0.61732  0.14795  1.0000
  H   H2376     1.0  0.83951  0.64597  0.15032  1.0000
  H   H2377     1.0  0.85160  0.62869  0.17404  1.0000
  H   H2378     1.0  0.76420  0.64277  0.12427  1.0000
  H   H2379     1.0  0.73774  0.65513  0.13964  1.0000
  H   H2380     1.0  0.75721  0.67307  0.12274  1.0000
  C   C1351     1.0  0.68725  0.76081  0.04725  1.0000
  H   H2381     1.0  0.56589  0.73455  0.21616  1.0000
  H   H2382     1.0  0.71515  0.73386  0.02044  1.0000
  N   N74       1.0  0.58475  0.73128  0.18285  1.0000
  C   C1352     1.0  0.58103  0.74036  0.20521  1.0000
  C   C1353     1.0  0.58754  0.70557  0.18647  1.0000
  C   C1354     1.0  0.60688  0.73836  0.16993  1.0000
  C   C1355     1.0  0.56575  0.74096  0.16895  1.0000
  C   C1356     1.0  0.54116  0.73757  0.18026  1.0000
  C   C1357     1.0  0.76791  0.64906  0.20527  1.0000
  C   C1358     1.0  0.61516  0.72902  0.14705  1.0000
  C   C1359     1.0  0.57366  0.69386  0.20779  1.0000
  C   C1360     1.0  0.57566  0.66833  0.20750  1.0000
  C   C1361     1.0  0.63859  0.73560  0.13661  1.0000
  H   H2383     1.0  0.59568  0.73333  0.21470  1.0000
  C   C1362     1.0  0.57233  0.77340  0.22796  1.0000
  H   H2384     1.0  0.58357  0.69914  0.17148  1.0000
  H   H2385     1.0  0.60573  0.69841  0.18800  1.0000
  H   H2386     1.0  0.62092  0.73309  0.18062  1.0000
  H   H2387     1.0  0.60558  0.75713  0.16594  1.0000
  H   H2388     1.0  0.56623  0.75939  0.16326  1.0000
  H   H2389     1.0  0.56837  0.73322  0.15309  1.0000
  H   H2390     1.0  0.53714  0.74293  0.19730  1.0000
  H   H2391     1.0  0.53887  0.71951  0.18152  1.0000
  H   H2392     1.0  0.81027  0.71328  0.21975  1.0000
  H   H2393     1.0  0.56298  0.77456  0.19510  1.0000
  H   H2394     1.0  0.60310  0.73610  0.13472  1.0000
  H   H2395     1.0  0.61678  0.71025  0.14914  1.0000
  H   H2396     1.0  0.95978  0.76701  0.20552  1.0000
  H   H2397     1.0  0.55530  0.70078  0.20970  1.0000
  H   H2398     1.0  0.56595  0.66048  0.22324  1.0000
  C   C1363     1.0  0.77621  0.71071  0.99710  1.0000
  H   H2399     1.0  0.95571  0.80054  0.22601  1.0000
  H   H2400     1.0  0.65154  0.72841  0.14803  1.0000
  H   H2401     1.0  0.64415  0.72883  0.12028  1.0000
  H   H2402     1.0  0.63785  0.75433  0.13338  1.0000
  H   H2403     1.0  0.82816  0.67417  0.22564  1.0000
  H   H2404     1.0  0.78474  0.78465  0.19145  1.0000
  H   H2405     1.0  0.77322  0.91521  0.20576  1.0000
  H   H2406     1.0  0.76074  0.60853  0.21614  1.0000
  H   H2407     1.0  0.76905  0.56407  0.22157  1.0000
  C   C1364     1.0  0.84068  0.76071  0.21337  1.0000
  H   H2408     1.0  0.85693  0.76639  0.11773  1.0000
  N   N75       1.0  0.77963  0.63101  0.19093  1.0000
  H   H2409     1.0  0.75145  0.94574  0.15943  1.0000
  S   S304      1.0  0.93818  0.67832  0.21646  1.0000
  C   C1365     1.0  0.86501  0.76656  0.20744  1.0000
  C   C1366     1.0  0.77245  0.78753  0.20692  1.0000
  H   H2410     1.0  0.59384  0.66042  0.20676  1.0000
  H   H2411     1.0  0.80049  0.75008  0.21453  1.0000
  H   H2412     1.0  0.78211  0.91673  0.16530  1.0000
  H   H2413     1.0  0.74280  0.81842  0.02577  1.0000
  H   H2414     1.0  0.82143  0.92836  0.18651  1.0000
  H   H2415     1.0  0.52599  0.74630  0.14897  1.0000
  H   H2416     1.0  0.71848  0.74730  0.07881  1.0000
  H   H2417     1.0  0.79950  0.56306  0.21283  1.0000
  H   H2418     1.0  0.82940  0.77487  0.20495  1.0000
  H   H2419     1.0  0.83997  0.74548  0.20579  1.0000
  H   H2420     1.0  0.79013  0.94463  0.16179  1.0000
  H   H2421     1.0  0.71075  0.79446  0.03420  1.0000
  C   C1367     1.0  0.78924  0.92869  0.17359  1.0000
  C   C1368     1.0  0.70891  0.94699  0.15110  1.0000
  H   H2422     1.0  0.64133  0.77184  0.08973  1.0000
  N   N76       1.0  0.71305  0.75798  0.04391  1.0000
  Fe  Fe150     1.0  0.95221  0.70297  0.23319  1.0000
  H   H2423     1.0  0.69683  0.76907  0.00005  1.0000
  H   H2424     1.0  0.87960  0.77819  0.09847  1.0000
  H   H2425     1.0  0.72909  0.84109  0.22420  1.0000
  H   H2426     1.0  0.87721  0.75305  0.21553  1.0000
  H   H2427     1.0  0.87015  0.76809  0.18886  1.0000
  H   H2428     1.0  0.75817  0.77753  0.20795  1.0000
  H   H2429     1.0  0.76541  0.80580  0.20542  1.0000
  C   C1369     1.0  0.64931  0.76881  0.07240  1.0000
  C   C1370     1.0  0.71592  0.95204  0.17279  1.0000
  H   H2430     1.0  0.88211  0.65019  0.23050  1.0000
  H   H2431     1.0  0.79067  0.60358  0.21619  1.0000
  H   H2432     1.0  0.80569  0.65251  0.17812  1.0000
  H   H2433     1.0  0.71159  0.72814  0.23328  1.0000
  S   S305      1.0  0.63511  0.75684  0.21734  1.0000
  H   H2434     1.0  0.64325  0.75363  0.06840  1.0000
  C   C1371     1.0  0.76384  0.98310  0.17437  1.0000
  H   H2435     1.0  0.74163  0.73827  0.05908  1.0000
  H   H2436     1.0  0.67972  0.75032  0.08413  1.0000
  H   H2437     1.0  0.85519  0.77194  0.08777  1.0000
  H   H2438     1.0  0.84861  0.63537  0.22162  1.0000
  H   H2439     1.0  0.81316  0.63110  0.20012  1.0000
  H   H2440     1.0  0.70987  0.92839  0.15132  1.0000
  H   H2441     1.0  0.68040  0.78024  0.07627  1.0000
  C   C1372     1.0  0.77739  0.60803  0.20475  1.0000
  H   H2442     1.0  0.56845  0.66479  0.19283  1.0000
  H   H2443     1.0  0.75824  0.97353  0.20994  1.0000
  H   H2444     1.0  0.72421  0.80087  0.23224  1.0000
  H   H2445     1.0  0.97852  0.78722  0.19189  1.0000
  H   H2446     1.0  0.84484  0.99238  0.22928  1.0000
  H   H2447     1.0  0.75947  0.92552  0.24115  1.0000
  H   H2448     1.0  0.74903  0.64895  0.20805  1.0000
  H   H2449     1.0  0.74943  0.82596  0.24213  1.0000
  H   H2450     1.0  0.73266  0.97958  0.19792  1.0000
  H   H2451     1.0  0.87369  0.99041  0.21577  1.0000
  S   S306      1.0  0.62811  0.69196  0.23215  1.0000
  H   H2452     1.0  0.77014  0.80640  0.03455  1.0000
  Fe  Fe151     1.0  0.77997  0.86998  0.23080  1.0000
  H   H2453     1.0  0.70348  0.94547  0.18701  1.0000
  C   C1373     1.0  0.52333  0.75135  0.16617  1.0000
  H   H2454     1.0  0.77835  0.74614  0.23713  1.0000
  H   H2455     1.0  0.83966  0.71228  0.22433  1.0000
  H   H2456     1.0  0.79849  0.79139  0.22622  1.0000
  S   S307      1.0  0.86194  0.84617  0.24135  1.0000
  C   C1374     1.0  0.88655  0.80388  0.24192  1.0000
  H   H2457     1.0  0.72021  0.95396  0.13605  1.0000
  C   C1375     1.0  0.85507  0.62916  0.23747  1.0000
  H   H2458     1.0  0.71031  0.57354  0.23238  1.0000
  H   H2459     1.0  0.73188  0.54992  0.22609  1.0000
  H   H2460     1.0  0.69102  0.95496  0.14967  1.0000
  H   H2461     1.0  0.72128  0.78313  0.99971  1.0000
  H   H2462     1.0  0.76585  0.68343  0.23187  1.0000
  C   C1376     1.0  0.74338  0.93733  0.23955  1.0000
  H   H2463     1.0  0.78246  0.97756  0.17429  1.0000
  C   C1377     1.0  0.79684  0.97398  0.23486  1.0000
  H   H2464     1.0  0.98993  0.76139  0.20820  1.0000
  H   H2465     1.0  0.57090  0.79213  0.22682  1.0000
  C   C1378     1.0  0.71560  0.76642  0.00025  1.0000
  C   C1379     1.0  0.82390  0.68356  0.24041  1.0000
  H   H2466     1.0  0.98574  0.79470  0.22869  1.0000
  C   C1380     1.0  0.97031  0.78687  0.22822  1.0000
  H   H2467     1.0  0.58627  0.76564  0.23806  1.0000
  H   H2468     1.0  0.75870  0.98014  0.15842  1.0000
  H   H2469     1.0  0.90528  0.77039  0.24197  1.0000
  S   S308      1.0  0.88687  0.69841  0.24105  1.0000
  C   C1381     1.0  0.86274  0.99275  0.23219  1.0000
  C   C1382     1.0  0.76263  0.66668  0.24146  1.0000
  C   C1383     1.0  0.87403  0.63755  0.24248  1.0000
  Fe  Fe152     1.0  0.63442  0.72459  0.24170  1.0000
  C   C1384     1.0  0.72169  0.55883  0.23991  1.0000
  H   H2470     1.0  0.73117  0.62974  0.24229  1.0000
  H   H2471     1.0  0.74636  0.95449  0.24159  1.0000
  C   C1385     1.0  0.86296  0.95008  0.24179  1.0000
  C   C1386     1.0  0.78792  0.99404  0.24402  1.0000
  H   H2472     1.0  0.74398  0.66571  0.24408  1.0000
  C   C1387     1.0  0.86787  0.81748  0.25222  1.0000
  Fe  Fe153     1.0  0.78823  0.89297  0.26962  1.0000
  S   S309      1.0  0.75980  0.87482  0.26461  1.0000
  S   S310      1.0  0.78031  0.92490  0.28645  1.0000
  Fe  Fe154     1.0  0.78135  0.84294  0.27743  1.0000
  S   S311      1.0  0.76420  0.81411  0.29755  1.0000
  S   S312      1.0  0.80803  0.86128  0.28586  1.0000
  S   S313      1.0  0.93232  0.69367  0.26730  1.0000
  Fe  Fe155     1.0  0.80081  0.52610  0.28905  1.0000
  S   S314      1.0  0.78149  0.55400  0.26744  1.0000
  Fe  Fe156     1.0  0.80491  0.55776  0.32281  1.0000
  S   S315      1.0  0.78557  0.58786  0.30418  1.0000
  S   S316      1.0  0.81818  0.55701  0.35571  1.0000
  Fe  Fe157     1.0  0.76220  0.56358  0.30023  1.0000
  S   S317      1.0  0.72373  0.57007  0.30666  1.0000
  Fe  Fe158     1.0  0.80683  0.57570  0.27328  1.0000
  H   H2473     1.0  0.67916  0.79030  0.25742  1.0000
  S   S318      1.0  0.77974  0.53439  0.32157  1.0000
  S   S319      1.0  0.82798  0.54689  0.29214  1.0000
  Fe  Fe159     1.0  0.79364  0.72446  0.38908  1.0000
  S   S320      1.0  0.75535  0.73001  0.39654  1.0000
  S   S321      1.0  0.81356  0.75330  0.37547  1.0000
  Fe  Fe160     1.0  0.79648  0.67316  0.40051  1.0000
  S   S322      1.0  0.75856  0.67457  0.40813  1.0000
  S   S323      1.0  0.81995  0.64062  0.40648  1.0000
  Fe  Fe161     1.0  0.75761  0.70070  0.37712  1.0000
  S   S324      1.0  0.74474  0.70045  0.34417  1.0000
  Fe  Fe162     1.0  0.76047  0.70359  0.42685  1.0000
  H   H2474     1.0  0.65849  0.54854  0.31284  1.0000
  S   S325      1.0  0.79583  0.69669  0.36828  1.0000
  S   S326      1.0  0.79867  0.70057  0.42074  1.0000
  Fe  Fe163     1.0  0.63827  0.70459  0.29048  1.0000
  S   S327      1.0  0.63255  0.67011  0.28502  1.0000
  S   S328      1.0  0.64238  0.71202  0.32496  1.0000
  Fe  Fe164     1.0  0.60471  0.68891  0.26529  1.0000
  H   H2475     1.0  0.89468  0.80866  0.29457  1.0000
  H   H2476     1.0  0.98054  0.80773  0.26214  1.0000
  H   H2477     1.0  0.83210  0.74303  0.28522  1.0000
  S   S329      1.0  0.60866  0.72303  0.27320  1.0000
  S   S330      1.0  0.66421  0.70929  0.25956  1.0000
  C   C1388     1.0  0.75730  0.70863  0.48405  1.0000
  C   C1389     1.0  0.76974  0.64853  0.46878  1.0000
  C   C1390     1.0  0.71936  0.73583  0.26504  1.0000
  H   H2478     1.0  0.97443  0.74675  0.28852  1.0000
  H   H2479     1.0  0.71809  0.79337  0.31649  1.0000
  C   C1391     1.0  0.71603  0.70377  0.33981  1.0000
  C   C1392     1.0  0.69793  0.70940  0.35654  1.0000
  C   C1393     1.0  0.67524  0.71184  0.35197  1.0000
  C   C1394     1.0  0.67071  0.70834  0.33083  1.0000
  C   C1395     1.0  0.68888  0.70211  0.31445  1.0000
  C   C1396     1.0  0.71144  0.70004  0.31884  1.0000
  H   H2480     1.0  0.70142  0.71229  0.37275  1.0000
  H   H2481     1.0  0.66118  0.71659  0.36475  1.0000
  H   H2482     1.0  0.68559  0.69859  0.29847  1.0000
  H   H2483     1.0  0.72540  0.69515  0.30603  1.0000
  H   H2484     1.0  0.71207  0.75497  0.47612  1.0000
  H   H2485     1.0  0.93529  0.63926  0.30533  1.0000
  H   H2486     1.0  0.73799  0.79408  0.27140  1.0000
  C   C1397     1.0  0.71319  0.59312  0.28789  1.0000
  C   C1398     1.0  0.68967  0.60083  0.28977  1.0000
  C   C1399     1.0  0.68122  0.61948  0.27486  1.0000
  C   C1400     1.0  0.74264  0.49834  0.30901  1.0000
  H   H2487     1.0  0.73229  0.92919  0.27548  1.0000
  C   C1401     1.0  0.72821  0.60378  0.27096  1.0000
  H   H2488     1.0  0.67802  0.59258  0.30286  1.0000
  N   N77       1.0  0.96100  0.77954  0.27201  1.0000
  C   C1402     1.0  0.50622  0.69390  0.25512  1.0000
  H   H2489     1.0  0.74638  0.59793  0.26945  1.0000
  C   C1403     1.0  0.81812  0.58129  0.36851  1.0000
  C   C1404     1.0  0.80644  0.60267  0.36125  1.0000
  C   C1405     1.0  0.80639  0.62119  0.37293  1.0000
  C   C1406     1.0  0.81855  0.61832  0.39144  1.0000
  C   C1407     1.0  0.83041  0.59707  0.39830  1.0000
  C   C1408     1.0  0.82999  0.57864  0.38707  1.0000
  H   H2490     1.0  0.79752  0.60485  0.34674  1.0000
  H   H2491     1.0  0.79732  0.63766  0.36743  1.0000
  H   H2492     1.0  0.83992  0.59474  0.41245  1.0000
  H   H2493     1.0  0.83907  0.56221  0.39270  1.0000
  C   C1409     1.0  0.89099  0.78076  0.25014  1.0000
  H   H2494     1.0  0.85054  0.65933  0.48017  1.0000
  C   C1410     1.0  0.93903  0.72773  0.31257  1.0000
  H   H2495     1.0  0.76189  0.83625  0.47605  1.0000
  C   C1411     1.0  0.85328  0.60442  0.27316  1.0000
  C   C1412     1.0  0.87252  0.61243  0.27794  1.0000
  H   H2496     1.0  0.66308  0.62550  0.27636  1.0000
  H   H2497     1.0  0.51833  0.69860  0.33256  1.0000
  H   H2498     1.0  0.84535  0.59169  0.28514  1.0000
  H   H2499     1.0  0.87938  0.60569  0.29352  1.0000
  H   H2500     1.0  0.97872  0.75534  0.24996  1.0000
  C   C1413     1.0  0.95943  0.76009  0.29102  1.0000
  H   H2501     1.0  0.81273  0.76269  0.29994  1.0000
  C   C1414     1.0  0.77921  0.79712  0.31820  1.0000
  C   C1415     1.0  0.79897  0.80300  0.32411  1.0000
  C   C1416     1.0  0.80984  0.78936  0.34151  1.0000
  C   C1417     1.0  0.80109  0.76975  0.35276  1.0000
  C   C1418     1.0  0.78180  0.76362  0.34628  1.0000
  C   C1419     1.0  0.77084  0.77732  0.32918  1.0000
  H   H2502     1.0  0.80566  0.81817  0.31557  1.0000
  H   H2503     1.0  0.82488  0.79411  0.34632  1.0000
  H   H2504     1.0  0.77540  0.74814  0.35416  1.0000
  H   H2505     1.0  0.75600  0.77239  0.32429  1.0000
  C   C1420     1.0  0.88297  0.62898  0.26263  1.0000
  C   C1421     1.0  0.85401  0.80807  0.27114  1.0000
  C   C1422     1.0  0.85909  0.78517  0.27993  1.0000
  H   H2506     1.0  0.83965  0.81852  0.27928  1.0000
  H   H2507     1.0  0.84875  0.77815  0.29496  1.0000
  C   C1423     1.0  0.78394  0.95139  0.27013  1.0000
  C   C1424     1.0  0.66806  0.51988  0.29376  1.0000
  C   C1425     1.0  0.77529  0.97147  0.27943  1.0000
  H   H2508     1.0  0.76672  0.97052  0.29665  1.0000
  H   H2509     1.0  0.82776  0.71666  0.26407  1.0000
  Fe  Fe165     1.0  0.90491  0.72099  0.25580  1.0000
  C   C1426     1.0  0.72274  0.52361  0.26906  1.0000
  C   C1427     1.0  0.93924  0.79610  0.27283  1.0000
  H   H2510     1.0  0.72443  0.84367  0.25390  1.0000
  H   H2511     1.0  0.68859  0.78998  0.31747  1.0000
  C   C1428     1.0  0.82931  0.62147  0.48477  1.0000
  C   C1429     1.0  0.81247  0.77589  0.42710  1.0000
  C   C1430     1.0  0.81446  0.72247  0.25270  1.0000
  H   H2512     1.0  0.73059  0.53235  0.28006  1.0000
  H   H2513     1.0  0.82840  0.70503  0.45754  1.0000
  H   H2514     1.0  0.77673  0.80009  0.45814  1.0000
  H   H2515     1.0  0.93059  0.79320  0.31013  1.0000
  H   H2516     1.0  0.84401  0.95161  0.24386  1.0000
  C   C1431     1.0  0.69247  0.51296  0.30049  1.0000
  H   H2517     1.0  0.71015  0.75791  0.44641  1.0000
  C   C1432     1.0  0.93788  0.74805  0.29396  1.0000
  C   C1433     1.0  0.90743  0.82001  0.29509  1.0000
  C   C1434     1.0  0.74053  0.76879  0.45453  1.0000
  C   C1435     1.0  0.65219  0.53248  0.31153  1.0000
  H   H2518     1.0  0.81825  0.78088  0.40891  1.0000
  C   C1436     1.0  0.54563  0.69163  0.26233  1.0000
  H   H2519     1.0  0.98381  0.69976  0.27346  1.0000
  H   H2520     1.0  0.93351  0.62710  0.33479  1.0000
  C   C1437     1.0  0.52845  0.73138  0.31779  1.0000
  H   H2521     1.0  0.90245  0.82813  0.31071  1.0000
  C   C1438     1.0  0.55355  0.72073  0.31654  1.0000
  H   H2522     1.0  0.86934  0.93468  0.25297  1.0000
  H   H2523     1.0  0.52350  0.74596  0.24436  1.0000
  H   H2524     1.0  0.95358  0.64670  0.32306  1.0000
  H   H2525     1.0  0.93999  0.73322  0.32901  1.0000
  H   H2526     1.0  0.97799  0.79730  0.29127  1.0000
  C   C1439     1.0  0.51258  0.71304  0.31994  1.0000
  C   C1440     1.0  0.77390  0.80092  0.40220  1.0000
  C   C1441     1.0  0.93133  0.80642  0.29515  1.0000
  H   H2527     1.0  0.79124  0.80609  0.39794  1.0000
  H   H2528     1.0  0.79903  0.77578  0.26749  1.0000
  H   H2529     1.0  0.55665  0.70934  0.33241  1.0000
  H   H2530     1.0  0.55852  0.71083  0.30212  1.0000
  H   H2531     1.0  0.56468  0.73425  0.31410  1.0000
  S   S331      1.0  0.74177  0.70518  0.46248  1.0000
  H   H2532     1.0  0.70435  0.77759  0.35434  1.0000
  C   C1442     1.0  0.50515  0.71730  0.24864  1.0000
  H   H2533     1.0  0.63132  0.76114  0.29064  1.0000
  S   S332      1.0  0.88316  0.74268  0.28013  1.0000
  H   H2534     1.0  0.73137  0.51043  0.31937  1.0000
  H   H2535     1.0  0.72134  0.91298  0.25811  1.0000
  C   C1443     1.0  0.84469  0.61253  0.25278  1.0000
  H   H2536     1.0  0.77378  0.78746  0.39155  1.0000
  C   C1444     1.0  0.79235  0.63220  0.47124  1.0000
  C   C1445     1.0  0.74857  0.82469  0.44900  1.0000
  C   C1446     1.0  0.79496  0.95276  0.24789  1.0000
  H   H2537     1.0  0.78577  0.72035  0.46131  1.0000
  C   C1447     1.0  0.86354  0.59700  0.46607  1.0000
  H   H2538     1.0  0.52729  0.66293  0.26654  1.0000
  H   H2539     1.0  0.63841  0.78170  0.26649  1.0000
  H   H2540     1.0  0.85801  0.58141  0.47648  1.0000
  N   N78       1.0  0.87377  0.67450  0.33677  1.0000
  C   C1448     1.0  0.88031  0.69812  0.33284  1.0000
  C   C1449     1.0  0.89370  0.65781  0.32788  1.0000
  C   C1450     1.0  0.85443  0.67487  0.32336  1.0000
  C   C1451     1.0  0.86551  0.66699  0.36136  1.0000
  C   C1452     1.0  0.88118  0.66948  0.37858  1.0000
  C   C1453     1.0  0.86098  0.71748  0.33913  1.0000
  C   C1454     1.0  0.84607  0.65164  0.32398  1.0000
  C   C1455     1.0  0.91828  0.66257  0.32890  1.0000
  C   C1456     1.0  0.87041  0.66252  0.40283  1.0000
  C   C1457     1.0  0.87070  0.73866  0.34199  1.0000
  C   C1458     1.0  0.82833  0.65343  0.30799  1.0000
  H   H2541     1.0  0.88690  0.70260  0.31462  1.0000
  H   H2542     1.0  0.89474  0.69896  0.34194  1.0000
  H   H2543     1.0  0.89203  0.64025  0.33642  1.0000
  H   H2544     1.0  0.89347  0.65708  0.30964  1.0000
  H   H2545     1.0  0.85954  0.68168  0.30528  1.0000
  H   H2546     1.0  0.83912  0.68655  0.32949  1.0000
  H   H2547     1.0  0.84820  0.67608  0.36654  1.0000
  H   H2548     1.0  0.86305  0.64878  0.36404  1.0000
  H   H2549     1.0  0.88434  0.68727  0.37744  1.0000
  H   H2550     1.0  0.89759  0.65818  0.37591  1.0000
  H   H2551     1.0  0.85020  0.72228  0.32535  1.0000
  H   H2552     1.0  0.84987  0.71248  0.35505  1.0000
  H   H2553     1.0  0.83794  0.64569  0.34124  1.0000
  H   H2554     1.0  0.86034  0.63846  0.31888  1.0000
  H   H2555     1.0  0.92219  0.67763  0.31659  1.0000
  H   H2556     1.0  0.92051  0.66593  0.34575  1.0000
  H   H2557     1.0  0.88173  0.66508  0.41479  1.0000
  H   H2558     1.0  0.85353  0.67296  0.40659  1.0000
  H   H2559     1.0  0.86821  0.64430  0.40549  1.0000
  H   H2560     1.0  0.85664  0.75303  0.34355  1.0000
  H   H2561     1.0  0.87909  0.73557  0.35748  1.0000
  H   H2562     1.0  0.88329  0.74364  0.32718  1.0000
  H   H2563     1.0  0.83600  0.65836  0.29027  1.0000
  H   H2564     1.0  0.82251  0.63665  0.30907  1.0000
  H   H2565     1.0  0.81327  0.66603  0.31264  1.0000
  N   N79       1.0  0.71668  0.62674  0.35933  1.0000
  C   C1459     1.0  0.70138  0.61988  0.34480  1.0000
  C   C1460     1.0  0.72791  0.60575  0.37270  1.0000
  C   C1461     1.0  0.70138  0.64055  0.37613  1.0000
  C   C1462     1.0  0.73448  0.64062  0.34591  1.0000
  C   C1463     1.0  0.74327  0.63603  0.32125  1.0000
  C   C1464     1.0  0.68746  0.63984  0.33087  1.0000
  C   C1465     1.0  0.71346  0.64977  0.39292  1.0000
  C   C1466     1.0  0.74436  0.58870  0.35905  1.0000
  C   C1467     1.0  0.75418  0.56827  0.37473  1.0000
  C   C1468     1.0  0.76545  0.64595  0.31217  1.0000
  C   C1469     1.0  0.66178  0.64222  0.33922  1.0000
  C   C1470     1.0  0.69622  0.66427  0.40815  1.0000
  H   H2566     1.0  0.68947  0.60863  0.35528  1.0000
  H   H2567     1.0  0.71128  0.60902  0.33248  1.0000
  H   H2568     1.0  0.73855  0.61042  0.38421  1.0000
  H   H2569     1.0  0.71463  0.59638  0.38361  1.0000
  H   H2570     1.0  0.68815  0.63051  0.38617  1.0000
  H   H2571     1.0  0.69180  0.65581  0.36725  1.0000
  H   H2572     1.0  0.72769  0.65888  0.34443  1.0000
  H   H2573     1.0  0.74944  0.63896  0.35522  1.0000
  H   H2574     1.0  0.73048  0.64408  0.30995  1.0000
  H   H2575     1.0  0.74636  0.61778  0.31969  1.0000
  H   H2576     1.0  0.69355  0.65625  0.33055  1.0000
  H   H2577     1.0  0.68994  0.63696  0.31293  1.0000
  H   H2578     1.0  0.72629  0.66049  0.38359  1.0000
  C   C1471     1.0  0.69626  0.62996  0.25773  1.0000
  H   H2579     1.0  0.73560  0.58219  0.34718  1.0000
  H   H2580     1.0  0.75907  0.59677  0.34962  1.0000
  H   H2581     1.0  0.76422  0.57368  0.38636  1.0000
  H   H2582     1.0  0.74030  0.55917  0.38469  1.0000
  H   H2583     1.0  0.76588  0.55630  0.36453  1.0000
  H   H2584     1.0  0.77897  0.63837  0.32282  1.0000
  H   H2585     1.0  0.77154  0.64207  0.29471  1.0000
  H   H2586     1.0  0.76263  0.66464  0.31192  1.0000
  H   H2587     1.0  0.65298  0.65724  0.32928  1.0000
  H   H2588     1.0  0.65471  0.62694  0.33691  1.0000
  H   H2589     1.0  0.65817  0.64469  0.35729  1.0000
  H   H2590     1.0  0.68695  0.67873  0.39794  1.0000
  H   H2591     1.0  0.92209  0.75969  0.29870  1.0000
  H   H2592     1.0  0.73612  0.76439  0.25099  1.0000
  H   H2593     1.0  0.73711  0.51690  0.25677  1.0000
  H   H2594     1.0  0.93623  0.74170  0.27818  1.0000
  H   H2595     1.0  0.67088  0.75203  0.27283  1.0000
  C   C1472     1.0  0.96484  0.76999  0.24989  1.0000
  H   H2596     1.0  0.95412  0.71501  0.30828  1.0000
  N   N80       1.0  0.80937  0.64026  0.48304  1.0000
  N   N81       1.0  0.71118  0.50431  0.28269  1.0000
  H   H2597     1.0  0.73302  0.72986  0.27594  1.0000
  H   H2598     1.0  0.85579  0.69932  0.46752  1.0000
  C   C1473     1.0  0.80333  0.72924  0.30675  1.0000
  H   H2599     1.0  0.81077  0.72683  0.32274  1.0000
  H   H2600     1.0  0.80703  0.71288  0.29989  1.0000
  H   H2601     1.0  0.72207  0.63590  0.40426  1.0000
  C   C1474     1.0  0.81362  0.74832  0.29031  1.0000
  C   C1475     1.0  0.77869  0.71614  0.47873  1.0000
  H   H2602     1.0  0.74525  0.77633  0.46840  1.0000
  H   H2603     1.0  0.85118  0.68581  0.44444  1.0000
  C   C1476     1.0  0.93620  0.64263  0.32266  1.0000
  H   H2604     1.0  0.68362  0.65391  0.41866  1.0000
  H   H2605     1.0  0.69220  0.75614  0.34458  1.0000
  H   H2606     1.0  0.78234  0.75350  0.27457  1.0000
  H   H2607     1.0  0.70531  0.67118  0.41958  1.0000
  H   H2608     1.0  0.78452  0.73360  0.31098  1.0000
  H   H2609     1.0  0.80166  0.67523  0.46867  1.0000
  C   C1477     1.0  0.75365  0.84355  0.46080  1.0000
  S   S333      1.0  0.57086  0.67491  0.27035  1.0000
  H   H2610     1.0  0.96053  0.76561  0.30746  1.0000
  H   H2611     1.0  0.72295  0.75486  0.34189  1.0000
  H   H2612     1.0  0.75972  0.63085  0.44395  1.0000
  C   C1478     1.0  0.87740  0.77141  0.26923  1.0000
  C   C1479     1.0  0.80039  0.75690  0.26970  1.0000
  H   H2613     1.0  0.75026  0.75156  0.45444  1.0000
  H   H2614     1.0  0.74734  0.62254  0.47288  1.0000
  C   C1480     1.0  0.71810  0.76179  0.25764  1.0000
  H   H2615     1.0  0.78012  0.83022  0.36215  1.0000
  C   C1481     1.0  0.75241  0.63703  0.46030  1.0000
  C   C1482     1.0  0.81656  0.66166  0.46920  1.0000
  H   H2616     1.0  0.79835  0.71640  0.26183  1.0000
  C   C1483     1.0  0.84285  0.61488  0.46205  1.0000
  C   C1484     1.0  0.84308  0.69172  0.46068  1.0000
  H   H2617     1.0  0.66934  0.75773  0.30157  1.0000
  H   H2618     1.0  0.94319  0.81812  0.29718  1.0000
  H   H2619     1.0  0.88932  0.96813  0.24707  1.0000
  H   H2620     1.0  0.90696  0.83349  0.28025  1.0000
  H   H2621     1.0  0.79980  0.62941  0.45371  1.0000
  H   H2622     1.0  0.82214  0.65913  0.45122  1.0000
  Fe  Fe166     1.0  0.65621  0.67623  0.25260  1.0000
  C   C1485     1.0  0.78722  0.77118  0.43129  1.0000
  H   H2623     1.0  0.83209  0.60749  0.45262  1.0000
  H   H2624     1.0  0.84933  0.62974  0.45115  1.0000
  H   H2625     1.0  0.77321  0.66352  0.45621  1.0000
  C   C1486     1.0  0.76201  0.82763  0.36795  1.0000
  H   H2626     1.0  0.73744  0.85437  0.46616  1.0000
  H   H2627     1.0  0.69598  0.55297  0.26827  1.0000
  H   H2628     1.0  0.63474  0.53676  0.30661  1.0000
  H   H2629     1.0  0.52469  0.74104  0.33235  1.0000
  H   H2630     1.0  0.65115  0.52177  0.32830  1.0000
  N   N82       1.0  0.70807  0.77713  0.27539  1.0000
  C   C1487     1.0  0.71345  0.76593  0.29847  1.0000
  H   H2631     1.0  0.94945  0.76287  0.24762  1.0000
  C   C1488     1.0  0.71946  0.79835  0.26963  1.0000
  C   C1489     1.0  0.68268  0.78400  0.27500  1.0000
  C   C1490     1.0  0.66719  0.76536  0.28400  1.0000
  C   C1491     1.0  0.70613  0.78074  0.31788  1.0000
  C   C1492     1.0  0.98045  0.79177  0.27426  1.0000
  C   C1493     1.0  0.72491  0.72287  0.24467  1.0000
  C   C1494     1.0  0.71749  0.81169  0.24569  1.0000
  C   C1495     1.0  0.64193  0.77491  0.28396  1.0000
  C   C1496     1.0  0.70652  0.76638  0.34105  1.0000
  H   H2632     1.0  0.73225  0.76046  0.29781  1.0000
  H   H2633     1.0  0.70572  0.75006  0.30379  1.0000
  H   H2634     1.0  0.92338  0.71960  0.31422  1.0000
  H   H2635     1.0  0.69734  0.52776  0.30665  1.0000
  H   H2636     1.0  0.92505  0.78808  0.26922  1.0000
  H   H2637     1.0  0.71224  0.81065  0.28170  1.0000
  H   H2638     1.0  0.67621  0.79868  0.28442  1.0000
  H   H2639     1.0  0.70446  0.78277  0.46095  1.0000
  H   H2640     1.0  0.72521  0.70444  0.25060  1.0000
  H   H2641     1.0  0.73687  0.64945  0.45770  1.0000
  H   H2642     1.0  0.73635  0.81509  0.46104  1.0000
  C   C1497     1.0  0.71966  0.62185  0.25564  1.0000
  H   H2643     1.0  0.75804  0.81367  0.35993  1.0000
  S   S334      1.0  0.90745  0.63820  0.26887  1.0000
  H   H2644     1.0  0.75086  0.84340  0.36227  1.0000
  H   H2645     1.0  0.66793  0.53100  0.27739  1.0000
  H   H2646     1.0  0.52678  0.74316  0.30188  1.0000
  C   C1498     1.0  0.52644  0.68111  0.26186  1.0000
  Fe  Fe167     1.0  0.91580  0.67168  0.24981  1.0000
  H   H2647     1.0  0.69062  0.50001  0.31578  1.0000
  H   H2648     1.0  0.87559  0.60367  0.47468  1.0000
  C   C1499     1.0  0.71520  0.76606  0.45973  1.0000
  H   H2649     1.0  0.76508  0.85440  0.44913  1.0000
  H   H2650     1.0  0.66055  0.50458  0.29233  1.0000
  H   H2651     1.0  0.94090  0.81073  0.25922  1.0000
  H   H2652     1.0  0.68871  0.50214  0.25835  1.0000
  Fe  Fe168     1.0  0.82453  0.85761  0.25040  1.0000
  C   C1500     1.0  0.54438  0.71511  0.25632  1.0000
  C   C1501     1.0  0.99902  0.70780  0.26773  1.0000
  H   H2653     1.0  0.73940  0.81974  0.39822  1.0000
  H   H2654     1.0  0.78589  0.75779  0.42098  1.0000
  H   H2655     1.0  0.76071  0.83707  0.40072  1.0000
  C   C1502     1.0  0.77724  0.99279  0.26640  1.0000
  C   C1503     1.0  0.75762  0.82211  0.39367  1.0000
  H   H2656     1.0  0.84648  0.75829  0.43132  1.0000
  H   H2657     1.0  0.70317  0.73111  0.27470  1.0000
  C   C1504     1.0  0.83520  0.67192  0.47764  1.0000
  H   H2658     1.0  0.82432  0.74923  0.45323  1.0000
  C   C1505     1.0  0.72550  0.93000  0.25929  1.0000
  H   H2659     1.0  0.63688  0.78852  0.29491  1.0000
  H   H2660     1.0  0.73974  0.83277  0.43446  1.0000
  H   H2661     1.0  0.82722  0.74060  0.42543  1.0000
  C   C1506     1.0  0.82853  0.75464  0.43480  1.0000
  H   H2662     1.0  0.80743  0.67905  0.24995  1.0000
  C   C1507     1.0  0.70735  0.54275  0.25610  1.0000
  H   H2663     1.0  0.86335  0.97206  0.26617  1.0000
  H   H2664     1.0  0.55896  0.72339  0.25702  1.0000
  H   H2665     1.0  0.81473  0.78955  0.43648  1.0000
  H   H2666     1.0  0.75586  0.50745  0.29784  1.0000
  H   H2667     1.0  0.70962  0.94241  0.25949  1.0000
  H   H2668     1.0  0.87269  0.59243  0.44958  1.0000
  N   N83       1.0  0.76920  0.79146  0.42689  1.0000
  H   H2669     1.0  0.78422  0.81945  0.43384  1.0000
  N   N84       1.0  0.81075  0.74803  0.24774  1.0000
  C   C1508     1.0  0.74622  0.78304  0.43117  1.0000
  C   C1509     1.0  0.52431  0.72784  0.24922  1.0000
  H   H2670     1.0  0.83282  0.77412  0.24484  1.0000
  H   H2671     1.0  0.73208  0.79720  0.42915  1.0000
  H   H2672     1.0  0.78440  0.76333  0.44925  1.0000
  C   C1510     1.0  0.77082  0.80871  0.44195  1.0000
  H   H2673     1.0  0.74508  0.77224  0.41818  1.0000
  H   H2674     1.0  0.78793  0.61547  0.48013  1.0000
  H   H2675     1.0  0.76835  0.66519  0.25825  1.0000
  H   H2676     1.0  0.51670  0.70609  0.30359  1.0000
  H   H2677     1.0  0.83761  0.67799  0.25130  1.0000
  H   H2678     1.0  0.83065  0.99400  0.27332  1.0000
  H   H2679     1.0  0.84737  0.74619  0.24725  1.0000
  H   H2680     1.0  0.76158  0.65454  0.48494  1.0000
  H   H2681     1.0  0.69688  0.53607  0.24585  1.0000
  S   S335      1.0  0.82123  0.60188  0.24603  1.0000
  H   H2682     1.0  0.73341  0.56531  0.24904  1.0000
  H   H2683     1.0  0.80760  0.72405  0.49169  1.0000
  H   H2684     1.0  0.78248  0.50984  0.24752  1.0000
  C   C1511     1.0  0.87036  0.97101  0.24828  1.0000
  H   H2685     1.0  0.77195  0.78546  0.24271  1.0000
  S   S336      1.0  0.79945  0.83673  0.24324  1.0000
  H   H2686     1.0  0.69941  0.81857  0.24397  1.0000
  H   H2687     1.0  0.70872  0.76632  0.24269  1.0000
  H   H2688     1.0  0.52804  0.74876  0.71969  1.0000
  S   S337      1.0  0.91959  0.73564  0.71662  1.0000
  S   S338      1.0  0.88775  0.68234  0.71277  1.0000
  C   C1512     1.0  0.94539  0.78683  0.71063  1.0000
  H   H2689     1.0  0.53344  0.77819  0.73539  1.0000
  H   H2690     1.0  0.74381  0.56793  0.69946  1.0000
  H   H2691     1.0  0.81928  0.64869  0.74016  1.0000
  H   H2692     1.0  0.63755  0.80000  0.68382  1.0000
  C   C1513     1.0  0.55519  0.78359  0.70210  1.0000
  C   C1514     1.0  0.68174  0.81196  0.68022  1.0000
  H   H2693     1.0  0.74076  0.55848  0.67347  1.0000
  H   H2694     1.0  0.56822  0.73890  0.71658  1.0000
  H   H2695     1.0  0.67033  0.63684  0.71034  1.0000
  S   S339      1.0  0.63858  0.74073  0.68612  1.0000
  H   H2696     1.0  0.88720  0.59778  0.72548  1.0000
  H   H2697     1.0  0.62553  0.81420  0.70798  1.0000
  Fe  Fe169     1.0  0.75639  0.73587  0.61568  1.0000
  S   S340      1.0  0.75349  0.70734  0.59705  1.0000
  S   S341      1.0  0.72816  0.76467  0.62202  1.0000
  Fe  Fe170     1.0  0.80647  0.71990  0.62047  1.0000
  S   S342      1.0  0.80804  0.68975  0.60235  1.0000
  S   S343      1.0  0.83569  0.73301  0.63160  1.0000
  Fe  Fe171     1.0  0.78771  0.71342  0.57763  1.0000
  S   S344      1.0  0.79901  0.71539  0.53961  1.0000
  Fe  Fe172     1.0  0.77374  0.68609  0.62308  1.0000
  S   S345      1.0  0.76146  0.65335  0.63984  1.0000
  S   S346      1.0  0.78895  0.74391  0.59419  1.0000
  S   S347      1.0  0.77378  0.71426  0.64330  1.0000
  C   C1515     1.0  0.78200  0.71336  0.51881  1.0000
  C   C1516     1.0  0.76037  0.70627  0.52425  1.0000
  C   C1517     1.0  0.74807  0.70393  0.50689  1.0000
  H   H2698     1.0  0.87850  0.63494  0.68525  1.0000
  H   H2699     1.0  0.56979  0.76664  0.62151  1.0000
  H   H2700     1.0  0.75324  0.70239  0.54179  1.0000
  H   H2701     1.0  0.73142  0.69833  0.51120  1.0000
  C   C1518     1.0  0.66390  0.74811  0.66960  1.0000
  C   C1519     1.0  0.66238  0.76271  0.64934  1.0000
  C   C1520     1.0  0.68225  0.76787  0.63507  1.0000
  C   C1521     1.0  0.70376  0.75765  0.64043  1.0000
  C   C1522     1.0  0.70541  0.74297  0.66070  1.0000
  C   C1523     1.0  0.68544  0.73856  0.67555  1.0000
  H   H2702     1.0  0.64579  0.77003  0.64463  1.0000
  H   H2703     1.0  0.68095  0.77932  0.61948  1.0000
  H   H2704     1.0  0.72205  0.73527  0.66501  1.0000
  H   H2705     1.0  0.68668  0.72733  0.69123  1.0000
  H   H2706     1.0  0.92688  0.78597  0.71129  1.0000
  C   C1524     1.0  0.80019  0.61487  0.69663  1.0000
  C   C1525     1.0  0.80902  0.63315  0.68251  1.0000
  C   C1526     1.0  0.79707  0.64537  0.66517  1.0000
  C   C1527     1.0  0.77664  0.63887  0.66160  1.0000
  C   C1528     1.0  0.76803  0.62044  0.67558  1.0000
  C   C1529     1.0  0.77955  0.60874  0.69328  1.0000
  H   H2707     1.0  0.82499  0.63797  0.68504  1.0000
  H   H2708     1.0  0.80386  0.65953  0.65435  1.0000
  H   H2709     1.0  0.75244  0.61515  0.67275  1.0000
  H   H2710     1.0  0.77278  0.59457  0.70395  1.0000
  H   H2711     1.0  0.52526  0.74200  0.69311  1.0000
  C   C1530     1.0  0.87330  0.69615  0.69006  1.0000
  C   C1531     1.0  0.85521  0.68696  0.68426  1.0000
  C   C1532     1.0  0.84357  0.69792  0.66620  1.0000
  C   C1533     1.0  0.85034  0.71782  0.65355  1.0000
  C   C1534     1.0  0.86886  0.72653  0.65891  1.0000
  C   C1535     1.0  0.88000  0.71604  0.67736  1.0000
  H   H2712     1.0  0.84993  0.67152  0.69382  1.0000
  H   H2713     1.0  0.82941  0.69097  0.66206  1.0000
  H   H2714     1.0  0.87461  0.74148  0.64871  1.0000
  H   H2715     1.0  0.89420  0.72299  0.68134  1.0000
  H   H2716     1.0  0.84781  0.82699  0.72655  1.0000
  H   H2717     1.0  0.80979  0.64577  0.56096  1.0000
  N   N85       1.0  0.68777  0.66017  0.68506  1.0000
  C   C1536     1.0  0.70317  0.64014  0.67633  1.0000
  C   C1537     1.0  0.69893  0.66935  0.70184  1.0000
  C   C1538     1.0  0.66607  0.65175  0.69749  1.0000
  C   C1539     1.0  0.68123  0.67858  0.66625  1.0000
  C   C1540     1.0  0.70086  0.68680  0.64846  1.0000
  C   C1541     1.0  0.69370  0.62829  0.65959  1.0000
  H   H2718     1.0  0.61597  0.67130  0.73158  1.0000
  C   C1542     1.0  0.72538  0.66818  0.69767  1.0000
  C   C1543     1.0  0.81250  0.64098  0.52574  1.0000
  C   C1544     1.0  0.69125  0.70305  0.62904  1.0000
  C   C1545     1.0  0.71209  0.61056  0.64953  1.0000
  H   H2719     1.0  0.54293  0.69360  0.73325  1.0000
  H   H2720     1.0  0.77902  0.85822  0.69659  1.0000
  H   H2721     1.0  0.71974  0.64511  0.66767  1.0000
  C   C1546     1.0  0.50744  0.77464  0.69935  1.0000
  Fe  Fe173     1.0  0.63673  0.74164  0.72324  1.0000
  H   H2722     1.0  0.54657  0.75624  0.65938  1.0000
  H   H2723     1.0  0.65666  0.64569  0.68572  1.0000
  H   H2724     1.0  0.66878  0.67321  0.65703  1.0000
  H   H2725     1.0  0.67196  0.69399  0.67330  1.0000
  H   H2726     1.0  0.71197  0.67264  0.64087  1.0000
  H   H2727     1.0  0.71140  0.69612  0.65617  1.0000
  H   H2728     1.0  0.67925  0.61932  0.66833  1.0000
  H   H2729     1.0  0.68780  0.64065  0.64537  1.0000
  H   H2730     1.0  0.64234  0.68390  0.69738  1.0000
  C   C1547     1.0  0.78828  0.78380  0.63784  1.0000
  H   H2731     1.0  0.72842  0.67313  0.73189  1.0000
  H   H2732     1.0  0.73175  0.67554  0.68032  1.0000
  C   C1548     1.0  0.55260  0.76951  0.66691  1.0000
  H   H2733     1.0  0.77791  0.51571  0.73872  1.0000
  H   H2734     1.0  0.72799  0.73954  0.70823  1.0000
  H   H2735     1.0  0.67862  0.71694  0.63551  1.0000
  H   H2736     1.0  0.70530  0.71080  0.61777  1.0000
  H   H2737     1.0  0.68287  0.69380  0.61894  1.0000
  H   H2738     1.0  0.70486  0.60199  0.63793  1.0000
  H   H2739     1.0  0.72670  0.61875  0.63972  1.0000
  H   H2740     1.0  0.86262  0.64707  0.72461  1.0000
  C   C1549     1.0  0.58967  0.70392  0.69397  1.0000
  H   H2741     1.0  0.72595  0.75256  0.73355  1.0000
  H   H2742     1.0  0.78392  0.63383  0.51253  1.0000
  H   H2743     1.0  0.66427  0.79459  0.71180  1.0000
  H   H2744     1.0  0.72520  0.86035  0.71410  1.0000
  H   H2745     1.0  0.81706  0.71969  0.70332  1.0000
  S   S348      1.0  0.81495  0.59955  0.71835  1.0000
  H   H2746     1.0  0.73568  0.52193  0.72933  1.0000
  H   H2747     1.0  0.56327  0.79630  0.62540  1.0000
  C   C1550     1.0  0.56984  0.74390  0.69805  1.0000
  H   H2748     1.0  0.54055  0.78521  0.66287  1.0000
  C   C1551     1.0  0.62764  0.65878  0.72203  1.0000
  C   C1552     1.0  0.63897  0.81418  0.69299  1.0000
  H   H2749     1.0  0.77226  0.77670  0.63778  1.0000
  H   H2750     1.0  0.74329  0.80988  0.61911  1.0000
  C   C1553     1.0  0.79873  0.64874  0.54738  1.0000
  H   H2751     1.0  0.67460  0.55163  0.72646  1.0000
  H   H2752     1.0  0.69425  0.86499  0.71981  1.0000
  H   H2753     1.0  0.69135  0.68721  0.70351  1.0000
  C   C1554     1.0  0.88096  0.61701  0.69341  1.0000
  C   C1555     1.0  0.52843  0.75603  0.70160  1.0000
  H   H2754     1.0  0.71845  0.59758  0.66311  1.0000
  H   H2755     1.0  0.86584  0.60891  0.69219  1.0000
  H   H2756     1.0  0.58266  0.78786  0.65992  1.0000
  H   H2757     1.0  0.61817  0.65358  0.70979  1.0000
  H   H2758     1.0  0.70239  0.81789  0.63605  1.0000
  H   H2759     1.0  0.74949  0.83425  0.62991  1.0000
  H   H2760     1.0  0.72401  0.54918  0.73610  1.0000
  H   H2761     1.0  0.67790  0.82867  0.66993  1.0000
  C   C1556     1.0  0.57642  0.77387  0.65386  1.0000
  N   N86       1.0  0.70601  0.80797  0.68558  1.0000
  C   C1557     1.0  0.72280  0.80820  0.66398  1.0000
  C   C1558     1.0  0.70963  0.78467  0.69913  1.0000
  C   C1559     1.0  0.71010  0.82486  0.69986  1.0000
  C   C1560     1.0  0.70779  0.84998  0.68908  1.0000
  C   C1561     1.0  0.73472  0.77456  0.70218  1.0000
  C   C1562     1.0  0.71571  0.82461  0.64294  1.0000
  C   C1563     1.0  0.73599  0.82674  0.62421  1.0000
  C   C1564     1.0  0.70920  0.86551  0.70631  1.0000
  C   C1565     1.0  0.73557  0.75123  0.71640  1.0000
  H   H2762     1.0  0.73973  0.81153  0.66711  1.0000
  H   H2763     1.0  0.72594  0.79118  0.65821  1.0000
  H   H2764     1.0  0.70257  0.77230  0.69135  1.0000
  H   H2765     1.0  0.69998  0.78466  0.71642  1.0000
  H   H2766     1.0  0.69862  0.82355  0.71624  1.0000
  H   H2767     1.0  0.72762  0.82082  0.70463  1.0000
  H   H2768     1.0  0.69123  0.85549  0.68252  1.0000
  H   H2769     1.0  0.72208  0.85253  0.67518  1.0000
  H   H2770     1.0  0.66257  0.82485  0.71093  1.0000
  H   H2771     1.0  0.74275  0.78552  0.71077  1.0000
  H   H2772     1.0  0.74532  0.77219  0.68571  1.0000
  H   H2773     1.0  0.70864  0.84186  0.64684  1.0000
  H   H2774     1.0  0.78541  0.80232  0.63208  1.0000
  H   H2775     1.0  0.73022  0.83792  0.60916  1.0000
  H   H2776     1.0  0.70908  0.88327  0.69785  1.0000
  C   C1566     1.0  0.64855  0.66941  0.70964  1.0000
  C   C1567     1.0  0.55452  0.80336  0.73634  1.0000
  C   C1568     1.0  0.57533  0.78046  0.62857  1.0000
  H   H2777     1.0  0.95265  0.79159  0.69274  1.0000
  H   H2778     1.0  0.50566  0.78044  0.68130  1.0000
  N   N87       1.0  0.82474  0.78772  0.68500  1.0000
  C   C1569     1.0  0.80711  0.80237  0.69924  1.0000
  C   C1570     1.0  0.82908  0.76396  0.69752  1.0000
  C   C1571     1.0  0.84676  0.79798  0.68135  1.0000
  C   C1572     1.0  0.81814  0.78725  0.66204  1.0000
  C   C1573     1.0  0.79502  0.77908  0.66163  1.0000
  C   C1574     1.0  0.80138  0.82748  0.68879  1.0000
  C   C1575     1.0  0.86852  0.78356  0.67063  1.0000
  C   C1576     1.0  0.80827  0.75393  0.71214  1.0000
  H   H2779     1.0  0.80361  0.76184  0.72791  1.0000
  C   C1577     1.0  0.78264  0.84023  0.70422  1.0000
  C   C1578     1.0  0.88941  0.79598  0.66744  1.0000
  H   H2780     1.0  0.81294  0.80230  0.71588  1.0000
  H   H2781     1.0  0.79065  0.79543  0.70351  1.0000
  H   H2782     1.0  0.83720  0.75197  0.68542  1.0000
  H   H2783     1.0  0.84167  0.76315  0.70951  1.0000
  H   H2784     1.0  0.85051  0.80175  0.69767  1.0000
  H   H2785     1.0  0.84512  0.81451  0.67016  1.0000
  H   H2786     1.0  0.81832  0.80421  0.65165  1.0000
  H   H2787     1.0  0.83115  0.77577  0.65236  1.0000
  H   H2788     1.0  0.78096  0.78767  0.67281  1.0000
  H   H2789     1.0  0.79654  0.76042  0.66669  1.0000
  H   H2790     1.0  0.81654  0.83650  0.68645  1.0000
  H   H2791     1.0  0.79519  0.82867  0.67227  1.0000
  H   H2792     1.0  0.86634  0.78007  0.65374  1.0000
  H   H2793     1.0  0.87254  0.76720  0.68151  1.0000
  H   H2794     1.0  0.54169  0.81769  0.73058  1.0000
  H   H2795     1.0  0.79295  0.75704  0.70348  1.0000
  H   H2796     1.0  0.60626  0.70972  0.68642  1.0000
  H   H2797     1.0  0.58932  0.75852  0.65585  1.0000
  N   N88       1.0  0.55149  0.76326  0.69217  1.0000
  C   C1579     1.0  0.55104  0.78156  0.72829  1.0000
  H   H2798     1.0  0.75638  0.53968  0.69372  1.0000
  H   H2799     1.0  0.76661  0.83253  0.70666  1.0000
  H   H2800     1.0  0.90474  0.78506  0.66022  1.0000
  H   H2801     1.0  0.88688  0.81203  0.65569  1.0000
  H   H2802     1.0  0.89263  0.79984  0.68389  1.0000
  H   H2803     1.0  0.59258  0.78338  0.61966  1.0000
  H   H2804     1.0  0.58855  0.68801  0.68744  1.0000
  H   H2805     1.0  0.78396  0.63921  0.55321  1.0000
  H   H2806     1.0  0.67957  0.79917  0.66956  1.0000
  H   H2807     1.0  0.58714  0.74928  0.69351  1.0000
  H   H2808     1.0  0.75262  0.67923  0.71103  1.0000
  H   H2809     1.0  0.73354  0.65024  0.70045  1.0000
  C   C1580     1.0  0.88430  0.61589  0.71810  1.0000
  C   C1581     1.0  0.72037  0.53493  0.72826  1.0000
  H   H2810     1.0  0.78844  0.66258  0.50559  1.0000
  C   C1582     1.0  0.66249  0.81110  0.70075  1.0000
  H   H2811     1.0  0.55386  0.71451  0.69408  1.0000
  H   H2812     1.0  0.58901  0.70026  0.71260  1.0000
  C   C1583     1.0  0.79755  0.64486  0.50634  1.0000
  H   H2813     1.0  0.63591  0.83057  0.68185  1.0000
  H   H2814     1.0  0.90512  0.83192  0.74049  1.0000
  H   H2815     1.0  0.96746  0.80523  0.72282  1.0000
  H   H2816     1.0  0.89631  0.60792  0.68407  1.0000
  H   H2817     1.0  0.70761  0.62705  0.69078  1.0000
  C   C1584     1.0  0.56985  0.72194  0.68767  1.0000
  H   H2818     1.0  0.50884  0.78952  0.70742  1.0000
  H   H2819     1.0  0.84800  0.62353  0.72676  1.0000
  H   H2820     1.0  0.65621  0.67618  0.72219  1.0000
  H   H2821     1.0  0.75360  0.74398  0.71798  1.0000
  S   S349      1.0  0.98192  0.72517  0.73253  1.0000
  C   C1585     1.0  0.73365  0.68068  0.71418  1.0000
  H   H2822     1.0  0.69533  0.65974  0.71906  1.0000
  H   H2823     1.0  0.78819  0.83992  0.72095  1.0000
  H   H2824     1.0  0.79233  0.66714  0.54458  1.0000
  H   H2825     1.0  0.94013  0.82100  0.71762  1.0000
  H   H2826     1.0  0.82817  0.67870  0.49372  1.0000
  H   H2827     1.0  0.72644  0.69891  0.71183  1.0000
  S   S350      1.0  0.87763  0.78553  0.73241  1.0000
  H   H2828     1.0  0.54434  0.79916  0.69529  1.0000
  C   C1586     1.0  0.94884  0.80442  0.72487  1.0000
  H   H2829     1.0  0.63274  0.64376  0.73426  1.0000
  H   H2830     1.0  0.95421  0.76984  0.71676  1.0000
  H   H2831     1.0  0.57312  0.78714  0.69690  1.0000
  C   C1587     1.0  0.81383  0.72829  0.71867  1.0000
  H   H2832     1.0  0.57155  0.72522  0.66897  1.0000
  H   H2833     1.0  0.80188  0.77566  0.62573  1.0000
  H   H2834     1.0  0.82753  0.65018  0.52127  1.0000
  H   H2835     1.0  0.81874  0.62261  0.52974  1.0000
  Fe  Fe174     1.0  0.90315  0.70472  0.73101  1.0000
  H   H2836     1.0  0.89989  0.62374  0.71807  1.0000
  H   H2837     1.0  0.68527  0.51672  0.71373  1.0000
  H   H2838     1.0  0.98804  0.67217  0.73279  1.0000
  C   C1588     1.0  0.86330  0.62884  0.73149  1.0000
  C   C1589     1.0  0.71923  0.54406  0.70295  1.0000
  H   H2839     1.0  0.71680  0.53052  0.69350  1.0000
  H   H2840     1.0  0.79915  0.72166  0.72995  1.0000
  C   C1590     1.0  0.79099  0.71838  0.49599  1.0000
  H   H2841     1.0  0.91291  0.87118  0.72528  1.0000
  H   H2842     1.0  0.74639  0.98784  0.73830  1.0000
  H   H2843     1.0  0.80532  0.49774  0.67593  1.0000
  S   S351      1.0  0.66578  0.74690  0.74004  1.0000
  H   H2844     1.0  0.88390  0.87039  0.73900  1.0000
  H   H2845     1.0  0.82320  0.60585  0.49472  1.0000
  H   H2846     1.0  0.82923  0.72408  0.72747  1.0000
  H   H2847     1.0  0.57200  0.80762  0.72991  1.0000
  C   C1591     1.0  0.69200  0.50848  0.72960  1.0000
  H   H2848     1.0  0.70501  0.55818  0.70099  1.0000
  H   H2849     1.0  0.84200  0.62575  0.49431  1.0000
  H   H2850     1.0  0.56319  0.76763  0.73569  1.0000
  C   C1592     1.0  0.74142  0.55307  0.69180  1.0000
  H   H2851     1.0  0.99752  0.64230  0.73236  1.0000
  S   S352      1.0  0.61223  0.76950  0.73778  1.0000
  Fe  Fe175     1.0  0.94376  0.72444  0.74245  1.0000
  H   H2852     1.0  0.94489  0.84431  0.74164  1.0000
  C   C1593     1.0  0.90212  0.86753  0.74181  1.0000
  H   H2853     1.0  0.67742  0.50093  0.74025  1.0000
  N   N89       1.0  0.69940  0.52578  0.74136  1.0000
  Fe  Fe176     1.0  0.90590  0.71074  0.77927  1.0000
  S   S353      1.0  0.92174  0.74287  0.76936  1.0000
  S   S354      1.0  0.89879  0.69241  0.81445  1.0000
  Fe  Fe177     1.0  0.79461  0.86756  0.79219  1.0000
  S   S355      1.0  0.77283  0.89735  0.80645  1.0000
  H   H2854     1.0  0.76162  0.73177  0.75749  1.0000
  Fe  Fe178     1.0  0.75575  0.85428  0.77230  1.0000
  S   S356      1.0  0.73070  0.88329  0.78441  1.0000
  C   C1594     1.0  0.94951  0.71792  0.82468  1.0000
  Fe  Fe179     1.0  0.75945  0.90444  0.77309  1.0000
  C   C1595     1.0  0.98590  0.69230  0.81210  1.0000
  Fe  Fe180     1.0  0.74602  0.87421  0.81669  1.0000
  S   S357      1.0  0.72326  0.87437  0.85019  1.0000
  C   C1596     1.0  0.72697  0.75700  0.97855  1.0000
  S   S358      1.0  0.76894  0.84388  0.80545  1.0000
  H   H2855     1.0  0.97164  0.74614  0.77384  1.0000
  Fe  Fe181     1.0  0.76976  0.71267  0.93924  1.0000
  S   S359      1.0  0.73715  0.71781  0.92384  1.0000
  Fe  Fe182     1.0  0.79545  0.73523  0.89650  1.0000
  S   S360      1.0  0.76480  0.74297  0.87815  1.0000
  S   S361      1.0  0.82686  0.75021  0.87888  1.0000
  Fe  Fe183     1.0  0.74559  0.75271  0.91074  1.0000
  S   S362      1.0  0.71707  0.78162  0.91485  1.0000
  Fe  Fe184     1.0  0.75878  0.70734  0.89225  1.0000
  S   S363      1.0  0.74320  0.69066  0.86830  1.0000
  S   S364      1.0  0.77666  0.74843  0.92806  1.0000
  S   S365      1.0  0.79106  0.69869  0.90860  1.0000
  Fe  Fe185     1.0  0.77659  0.58902  0.79688  1.0000
  S   S366      1.0  0.74820  0.56783  0.80007  1.0000
  S   S367      1.0  0.78914  0.60223  0.82513  1.0000
  C   C1597     1.0  0.93678  0.78543  0.80283  1.0000
  H   H2856     1.0  0.98732  0.68871  0.83049  1.0000
  Fe  Fe186     1.0  0.74059  0.58795  0.76707  1.0000
  S   S368      1.0  0.70439  0.59967  0.76047  1.0000
  Fe  Fe187     1.0  0.77275  0.54515  0.77826  1.0000
  H   H2857     1.0  0.77267  0.71430  0.83483  1.0000
  S   S369      1.0  0.76675  0.61116  0.76563  1.0000
  S   S370      1.0  0.80200  0.56441  0.77811  1.0000
  Fe  Fe188     1.0  0.64029  0.77235  0.75722  1.0000
  H   H2858     1.0  0.71040  0.95515  0.82235  1.0000
  Fe  Fe189     1.0  0.65161  0.72170  0.76808  1.0000
  S   S371      1.0  0.67748  0.69837  0.78695  1.0000
  C   C1598     1.0  0.73901  0.97005  0.82949  1.0000
  S   S372      1.0  0.62807  0.74765  0.78658  1.0000
  C   C1599     1.0  0.51326  0.71244  0.75032  1.0000
  C   C1600     1.0  0.52146  0.73680  0.77551  1.0000
  S   S373      1.0  0.74975  0.82403  0.75701  1.0000
  C   C1601     1.0  0.93354  0.83828  0.75715  1.0000
  C   C1602     1.0  0.69592  0.62656  0.76896  1.0000
  C   C1603     1.0  0.67625  0.64008  0.76220  1.0000
  C   C1604     1.0  0.67035  0.66223  0.76771  1.0000
  C   C1605     1.0  0.68403  0.67070  0.78016  1.0000
  C   C1606     1.0  0.70319  0.65682  0.78765  1.0000
  C   C1607     1.0  0.70906  0.63477  0.78213  1.0000
  C   C1608     1.0  0.84262  0.64244  0.76583  1.0000
  H   H2859     1.0  0.65512  0.67263  0.76259  1.0000
  H   H2860     1.0  0.71338  0.66303  0.79793  1.0000
  H   H2861     1.0  0.72354  0.62403  0.78841  1.0000
  C   C1609     1.0  0.75730  0.66714  0.85515  1.0000
  C   C1610     1.0  0.77708  0.65425  0.86227  1.0000
  C   C1611     1.0  0.78695  0.63470  0.85248  1.0000
  C   C1612     1.0  0.77723  0.62795  0.83543  1.0000
  C   C1613     1.0  0.75782  0.64122  0.82780  1.0000
  C   C1614     1.0  0.74784  0.66070  0.83773  1.0000
  H   H2862     1.0  0.78446  0.65903  0.87571  1.0000
  H   H2863     1.0  0.80199  0.62452  0.85843  1.0000
  H   H2864     1.0  0.75026  0.63621  0.81462  1.0000
  H   H2865     1.0  0.73249  0.67060  0.83216  1.0000
  H   H2866     1.0  0.73133  0.69467  0.77759  1.0000
  H   H2867     1.0  0.79194  0.73634  0.97365  1.0000
  C   C1615     1.0  0.88426  0.63150  0.76219  1.0000
  C   C1616     1.0  0.72124  0.81894  0.75993  1.0000
  H   H2868     1.0  0.91010  0.80626  0.78597  1.0000
  C   C1617     1.0  0.97301  0.64306  0.82254  1.0000
  C   C1618     1.0  0.67588  0.81075  0.76204  1.0000
  C   C1619     1.0  0.68060  0.83260  0.76281  1.0000
  C   C1620     1.0  0.70321  0.83667  0.76187  1.0000
  H   H2869     1.0  0.83805  0.77936  0.93811  1.0000
  C   C1621     1.0  0.97451  0.61908  0.83555  1.0000
  H   H2870     1.0  0.98446  0.60663  0.82472  1.0000
  C   C1622     1.0  0.72165  0.84816  0.86747  1.0000
  C   C1623     1.0  0.73774  0.82917  0.86354  1.0000
  C   C1624     1.0  0.73639  0.80844  0.87774  1.0000
  C   C1625     1.0  0.71882  0.80676  0.89595  1.0000
  C   C1626     1.0  0.70250  0.82567  0.89968  1.0000
  C   C1627     1.0  0.70400  0.84635  0.88557  1.0000
  H   H2871     1.0  0.75133  0.83066  0.84971  1.0000
  H   H2872     1.0  0.74906  0.79390  0.87477  1.0000
  H   H2873     1.0  0.68891  0.82447  0.91378  1.0000
  H   H2874     1.0  0.69149  0.86100  0.88872  1.0000
  C   C1628     1.0  0.76630  0.96218  0.75896  1.0000
  H   H2875     1.0  0.87950  0.78478  0.78033  1.0000
  H   H2876     1.0  0.93466  0.84970  0.76954  1.0000
  H   H2877     1.0  0.90786  0.65644  0.78383  1.0000
  C   C1629     1.0  0.78399  0.95795  0.77229  1.0000
  C   C1630     1.0  0.54510  0.73049  0.76977  1.0000
  C   C1631     1.0  0.86485  0.80410  0.75173  1.0000
  C   C1632     1.0  0.87883  0.70843  0.83235  1.0000
  C   C1633     1.0  0.86883  0.69789  0.85310  1.0000
  C   C1634     1.0  0.85233  0.71047  0.86724  1.0000
  C   C1635     1.0  0.84642  0.73377  0.86097  1.0000
  C   C1636     1.0  0.85694  0.74437  0.84048  1.0000
  C   C1637     1.0  0.87276  0.73167  0.82599  1.0000
  H   H2878     1.0  0.87353  0.67990  0.85807  1.0000
  H   H2879     1.0  0.84450  0.70224  0.88316  1.0000
  H   H2880     1.0  0.85282  0.76240  0.83569  1.0000
  H   H2881     1.0  0.88049  0.73992  0.81005  1.0000
  H   H2882     1.0  0.87060  0.56735  0.80307  1.0000
  S   S374      1.0  0.77345  0.50706  0.78770  1.0000
  H   H2883     1.0  0.88810  0.61153  0.79528  1.0000
  H   H2884     1.0  0.79185  0.68202  0.81848  1.0000
  H   H2885     1.0  0.71137  0.57302  0.90213  1.0000
  C   C1638     1.0  0.66488  0.57739  0.91613  1.0000
  H   H2886     1.0  0.84666  0.66009  0.76028  1.0000
  H   H2887     1.0  0.86151  0.81266  0.80651  1.0000
  H   H2888     1.0  0.64986  0.58589  0.92648  1.0000
  H   H2889     1.0  0.74470  0.55910  0.88709  1.0000
  S   S375      1.0  0.75167  0.94019  0.75485  1.0000
  H   H2890     1.0  0.91038  0.63611  0.80872  1.0000
  S   S376      1.0  0.56457  0.74337  0.78099  1.0000
  S   S377      1.0  0.76797  0.69716  0.97630  1.0000
  N   N90       1.0  0.80756  0.82204  0.88651  1.0000
  C   C1639     1.0  0.78623  0.82855  0.90250  1.0000
  C   C1640     1.0  0.81798  0.84321  0.87646  1.0000
  C   C1641     1.0  0.80105  0.81075  0.86844  1.0000
  C   C1642     1.0  0.82492  0.80559  0.89856  1.0000
  C   C1643     1.0  0.83210  0.81330  0.91934  1.0000
  C   C1644     1.0  0.77546  0.80864  0.91765  1.0000
  C   C1645     1.0  0.82004  0.80609  0.84836  1.0000
  C   C1646     1.0  0.80325  0.86119  0.86143  1.0000
  C   C1647     1.0  0.81565  0.88172  0.85224  1.0000
  C   C1648     1.0  0.84742  0.79411  0.93165  1.0000
  C   C1649     1.0  0.75445  0.81740  0.93348  1.0000
  C   C1650     1.0  0.81154  0.79402  0.83164  1.0000
  H   H2891     1.0  0.77255  0.83826  0.89288  1.0000
  H   H2892     1.0  0.78945  0.84036  0.91366  1.0000
  H   H2893     1.0  0.82145  0.85199  0.89011  1.0000
  H   H2894     1.0  0.83501  0.83886  0.86643  1.0000
  H   H2895     1.0  0.78616  0.82102  0.86125  1.0000
  H   H2896     1.0  0.79524  0.79418  0.87585  1.0000
  H   H2897     1.0  0.81878  0.78881  0.90389  1.0000
  H   H2898     1.0  0.84100  0.80197  0.88687  1.0000
  H   H2899     1.0  0.81713  0.81845  0.93171  1.0000
  H   H2900     1.0  0.84190  0.82784  0.91393  1.0000
  H   H2901     1.0  0.77002  0.79758  0.90716  1.0000
  H   H2902     1.0  0.78759  0.79810  0.92843  1.0000
  H   H2903     1.0  0.83534  0.79526  0.85416  1.0000
  H   H2904     1.0  0.82547  0.82205  0.83902  1.0000
  H   H2905     1.0  0.79950  0.85423  0.84675  1.0000
  H   H2906     1.0  0.78673  0.86740  0.87123  1.0000
  H   H2907     1.0  0.80487  0.89432  0.84153  1.0000
  H   H2908     1.0  0.81906  0.88995  0.86627  1.0000
  H   H2909     1.0  0.83207  0.87655  0.84165  1.0000
  H   H2910     1.0  0.72206  0.74009  0.97805  1.0000
  H   H2911     1.0  0.86304  0.78857  0.92014  1.0000
  H   H2912     1.0  0.85268  0.80004  0.94624  1.0000
  H   H2913     1.0  0.82499  0.79164  0.81697  1.0000
  H   H2914     1.0  0.80743  0.77710  0.83988  1.0000
  H   H2915     1.0  0.79616  0.80416  0.82532  1.0000
  N   N91       1.0  0.71594  0.59906  0.87327  1.0000
  C   C1651     1.0  0.70222  0.61596  0.85764  1.0000
  C   C1652     1.0  0.72892  0.61130  0.88596  1.0000
  C   C1653     1.0  0.67969  0.59506  0.90335  1.0000
  C   C1654     1.0  0.68985  0.60576  0.84178  1.0000
  C   C1655     1.0  0.71685  0.63431  0.89331  1.0000
  C   C1656     1.0  0.67076  0.62307  0.83257  1.0000
  H   H2916     1.0  0.71360  0.62738  0.84657  1.0000
  H   H2917     1.0  0.68931  0.62756  0.86714  1.0000
  H   H2918     1.0  0.74511  0.61549  0.87531  1.0000
  H   H2919     1.0  0.74229  0.59509  0.84448  1.0000
  H   H2920     1.0  0.66876  0.60731  0.89256  1.0000
  H   H2921     1.0  0.68473  0.60367  0.91626  1.0000
  H   H2922     1.0  0.70232  0.60051  0.82719  1.0000
  H   H2923     1.0  0.68198  0.59074  0.85050  1.0000
  H   H2924     1.0  0.71677  0.64763  0.87834  1.0000
  H   H2925     1.0  0.69888  0.63381  0.90095  1.0000
  H   H2926     1.0  0.65622  0.62607  0.84617  1.0000
  H   H2927     1.0  0.67701  0.63948  0.82567  1.0000
  H   H2928     1.0  0.66450  0.61663  0.81881  1.0000
  H   H2929     1.0  0.95253  0.78722  0.80951  1.0000
  S   S378      1.0  0.78327  0.87611  0.75784  1.0000
  H   H2930     1.0  0.74755  0.64270  0.90351  1.0000
  C   C1657     1.0  0.76510  0.55073  0.85650  1.0000
  H   H2931     1.0  0.79823  0.64892  0.78991  1.0000
  S   S379      1.0  0.92965  0.69153  0.75410  1.0000
  C   C1658     1.0  0.97307  0.82607  0.78507  1.0000
  H   H2932     1.0  0.69580  0.57121  0.88038  1.0000
  H   H2933     1.0  0.77376  0.55898  0.84042  1.0000
  H   H2934     1.0  0.73716  0.94830  0.80445  1.0000
  H   H2935     1.0  0.72447  0.57350  0.85061  1.0000
  C   C1659     1.0  0.80227  0.69600  0.81700  1.0000
  H   H2936     1.0  0.89920  0.62014  0.75493  1.0000
  S   S380      1.0  0.62456  0.71393  0.74967  1.0000
  H   H2937     1.0  0.75124  0.70696  0.80633  1.0000
  C   C1660     1.0  0.69388  0.79282  0.76075  1.0000
  H   H2938     1.0  0.73055  0.71119  0.75029  1.0000
  H   H2939     1.0  0.83284  0.75165  0.75387  1.0000
  H   H2940     1.0  0.72152  0.76870  0.96368  1.0000
  H   H2941     1.0  0.77841  0.53984  0.86570  1.0000
  H   H2942     1.0  0.75941  0.82720  0.94553  1.0000
  H   H2943     1.0  0.96235  0.65450  0.83397  1.0000
  H   H2944     1.0  0.81259  0.69712  0.80001  1.0000
  H   H2945     1.0  0.97393  0.79373  0.77297  1.0000
  C   C1661     1.0  0.74169  0.70417  0.76345  1.0000
  H   H2946     1.0  0.97056  0.65149  0.74858  1.0000
  H   H2947     1.0  0.75762  0.96434  0.82948  1.0000
  H   H2948     1.0  0.80920  0.68897  0.85193  1.0000
  H   H2949     1.0  0.81698  0.77729  0.76383  1.0000
  C   C1662     1.0  0.72924  0.95103  0.82189  1.0000
  H   H2950     1.0  0.80351  0.67366  0.76945  1.0000
  H   H2951     1.0  0.69035  0.77585  0.76051  1.0000
  H   H2952     1.0  0.84342  0.76461  0.77406  1.0000
  C   C1663     1.0  0.75045  0.72339  0.77174  1.0000
  H   H2953     1.0  0.83072  0.70213  0.83191  1.0000
  H   H2954     1.0  0.73050  0.78322  0.75793  1.0000
  H   H2955     1.0  0.73090  0.97201  0.84702  1.0000
  H   H2956     1.0  0.69077  0.50533  0.77356  1.0000
  H   H2957     1.0  0.75339  0.53974  0.85264  1.0000
  Fe  Fe190     1.0  0.89654  0.75171  0.74446  1.0000
  H   H2958     1.0  0.84917  0.56020  0.78852  1.0000
  H   H2959     1.0  0.51542  0.74898  0.78722  1.0000
  H   H2960     1.0  0.74639  0.80282  0.94327  1.0000
  H   H2961     1.0  0.95877  0.70796  0.79169  1.0000
  H   H2962     1.0  0.57086  0.70913  0.75081  1.0000
  H   H2963     1.0  0.65852  0.56856  0.90412  1.0000
  H   H2964     1.0  0.94095  0.77123  0.79272  1.0000
  C   C1664     1.0  0.85851  0.81571  0.78907  1.0000
  H   H2965     1.0  0.69516  0.51369  0.81175  1.0000
  Fe  Fe191     1.0  0.79026  0.58547  0.74705  1.0000
  S   S381      1.0  0.64741  0.80667  0.76213  1.0000
  C   C1665     1.0  0.84713  0.59637  0.79044  1.0000
  C   C1666     1.0  0.85244  0.57141  0.80017  1.0000
  H   H2966     1.0  0.99422  0.70775  0.80585  1.0000
  H   H2967     1.0  0.80913  0.97230  0.78534  1.0000
  C   C1667     1.0  0.84006  0.83894  0.75885  1.0000
  H   H2968     1.0  0.84959  0.59420  0.75518  1.0000
  H   H2969     1.0  0.93151  0.72376  0.82176  1.0000
  H   H2970     1.0  0.87236  0.63969  0.79695  1.0000
  H   H2971     1.0  0.66673  0.84651  0.76393  1.0000
  C   C1668     1.0  0.96691  0.81185  0.76827  1.0000
  N   N92       1.0  0.66929  0.77958  0.84305  1.0000
  C   C1669     1.0  0.64923  0.78436  0.82995  1.0000
  C   C1670     1.0  0.68731  0.76275  0.83194  1.0000
  C   C1671     1.0  0.66121  0.77033  0.86721  1.0000
  C   C1672     1.0  0.67954  0.80087  0.84324  1.0000
  C   C1673     1.0  0.68426  0.81578  0.82008  1.0000
  C   C1674     1.0  0.62929  0.80214  0.83848  1.0000
  C   C1675     1.0  0.68038  0.75957  0.88174  1.0000
  C   C1676     1.0  0.68021  0.73906  0.83189  1.0000
  C   C1677     1.0  0.70101  0.72167  0.82604  1.0000
  C   C1678     1.0  0.69608  0.83581  0.82232  1.0000
  C   C1679     1.0  0.61104  0.80729  0.82266  1.0000
  C   C1680     1.0  0.67056  0.75355  0.90649  1.0000
  H   H2972     1.0  0.64162  0.76859  0.83046  1.0000
  H   H2973     1.0  0.65493  0.78961  0.81166  1.0000
  H   H2974     1.0  0.69252  0.76941  0.81393  1.0000
  H   H2975     1.0  0.70320  0.76041  0.83990  1.0000
  H   H2976     1.0  0.64948  0.75756  0.86798  1.0000
  H   H2977     1.0  0.65062  0.78405  0.87612  1.0000
  H   H2978     1.0  0.66849  0.81195  0.85492  1.0000
  H   H2979     1.0  0.69605  0.79661  0.85023  1.0000
  H   H2980     1.0  0.66809  0.82287  0.81321  1.0000
  H   H2981     1.0  0.69539  0.80590  0.80759  1.0000
  H   H2982     1.0  0.62097  0.79559  0.85549  1.0000
  H   H2983     1.0  0.63525  0.81836  0.83956  1.0000
  H   H2984     1.0  0.69293  0.77139  0.88098  1.0000
  H   H2985     1.0  0.68972  0.74371  0.87575  1.0000
  H   H2986     1.0  0.67134  0.73226  0.84847  1.0000
  H   H2987     1.0  0.66855  0.74009  0.81909  1.0000
  H   H2988     1.0  0.69561  0.70466  0.82747  1.0000
  H   H2989     1.0  0.70908  0.72630  0.80847  1.0000
  H   H2990     1.0  0.71362  0.72050  0.83791  1.0000
  H   H2991     1.0  0.68618  0.84570  0.83556  1.0000
  H   H2992     1.0  0.71359  0.82980  0.82658  1.0000
  H   H2993     1.0  0.69750  0.84735  0.80611  1.0000
  H   H2994     1.0  0.60448  0.79153  0.82088  1.0000
  H   H2995     1.0  0.59650  0.81931  0.82957  1.0000
  H   H2996     1.0  0.61821  0.81522  0.80570  1.0000
  H   H2997     1.0  0.66243  0.76912  0.91386  1.0000
  H   H2998     1.0  0.65782  0.74166  0.90815  1.0000
  H   H2999     1.0  0.68461  0.74524  0.91624  1.0000
  N   N93       1.0  0.77587  0.73076  0.80023  1.0000
  C   C1681     1.0  0.75800  0.74997  0.80727  1.0000
  H   H3000     1.0  0.73524  0.73575  0.77638  1.0000
  C   C1682     1.0  0.79350  0.73929  0.78129  1.0000
  C   C1683     1.0  0.81490  0.74660  0.78825  1.0000
  C   C1684     1.0  0.68027  0.54534  0.74325  1.0000
  C   C1685     1.0  0.76667  0.76950  0.81556  1.0000
  C   C1686     1.0  0.74673  0.78663  0.82391  1.0000
  C   C1687     1.0  0.82768  0.76092  0.76870  1.0000
  C   C1688     1.0  0.72928  0.64190  0.91037  1.0000
  H   H3001     1.0  0.74887  0.75838  0.79294  1.0000
  H   H3002     1.0  0.74484  0.74324  0.82080  1.0000
  H   H3003     1.0  0.77585  0.69947  0.78701  1.0000
  C   C1689     1.0  0.73323  0.58435  0.85874  1.0000
  H   H3004     1.0  0.67476  0.56469  0.92762  1.0000
  H   H3005     1.0  0.78526  0.75379  0.77014  1.0000
  H   H3006     1.0  0.81069  0.75661  0.80251  1.0000
  H   H3007     1.0  0.97041  0.67108  0.78154  1.0000
  H   H3008     1.0  0.70669  0.85367  0.76214  1.0000
  H   H3009     1.0  0.77664  0.76322  0.82971  1.0000
  H   H3010     1.0  0.77725  0.77882  0.80143  1.0000
  H   H3011     1.0  0.73603  0.79357  0.81033  1.0000
  H   H3012     1.0  0.73619  0.77874  0.83901  1.0000
  H   H3013     1.0  0.75354  0.80085  0.82878  1.0000
  C   C1690     1.0  0.71230  0.51780  0.80366  1.0000
  H   H3014     1.0  0.95900  0.73278  0.82094  1.0000
  H   H3015     1.0  0.72822  0.63004  0.92642  1.0000
  H   H3016     1.0  0.73438  0.59998  0.90113  1.0000
  H   H3017     1.0  0.74588  0.75541  0.97722  1.0000
  H   H3018     1.0  0.96237  0.82381  0.80178  1.0000
  H   H3019     1.0  0.82839  0.60042  0.79042  1.0000
  C   C1691     1.0  0.98889  0.67268  0.77841  1.0000
  H   H3020     1.0  0.74163  0.82838  0.92372  1.0000
  H   H3021     1.0  0.82700  0.73142  0.79358  1.0000
  C   C1692     1.0  0.75199  0.56846  0.87102  1.0000
  H   H3022     1.0  0.96423  0.64302  0.80776  1.0000
  H   H3023     1.0  0.79587  0.72955  0.82758  1.0000
  C   C1693     1.0  0.78634  0.71853  0.82069  1.0000
  H   H3024     1.0  0.73296  0.93494  0.83332  1.0000
  H   H3025     1.0  0.72128  0.65911  0.91403  1.0000
  C   C1694     1.0  0.70126  0.58365  0.88944  1.0000
  C   C1695     1.0  0.88681  0.62957  0.78752  1.0000
  H   H3026     1.0  0.71824  0.52875  0.81399  1.0000
  C   C1696     1.0  0.55273  0.71450  0.75489  1.0000
  H   H3027     1.0  0.76457  0.57851  0.87484  1.0000
  H   H3028     1.0  0.74605  0.99005  0.79696  1.0000
  H   H3029     1.0  0.85165  0.60655  0.80227  1.0000
  H   H3030     1.0  0.84011  0.64060  0.78452  1.0000
  H   H3031     1.0  0.78911  0.94089  0.78015  1.0000
  H   H3032     1.0  0.87653  0.59053  0.76461  1.0000
  H   H3033     1.0  0.66245  0.53504  0.77740  1.0000
  C   C1697     1.0  0.92774  0.80780  0.78852  1.0000
  H   H3034     1.0  0.89644  0.84013  0.76820  1.0000
  C   C1698     1.0  0.76357  0.71418  0.79219  1.0000
  C   C1699     1.0  0.79534  0.97579  0.77516  1.0000
  C   C1700     1.0  0.71113  0.53018  0.77970  1.0000
  Fe  Fe192     1.0  0.60194  0.74227  0.76569  1.0000
  C   C1701     1.0  0.91894  0.77895  0.82297  1.0000
  H   H3035     1.0  0.82865  0.67255  0.83258  1.0000
  C   C1702     1.0  0.50557  0.72778  0.76587  1.0000
  H   H3036     1.0  0.98273  0.61814  0.85094  1.0000
  H   H3037     1.0  0.84136  0.56797  0.81658  1.0000
  C   C1703     1.0  0.81867  0.68950  0.83453  1.0000
  C   C1704     1.0  0.90867  0.63815  0.79048  1.0000
  H   H3038     1.0  0.90352  0.77505  0.81707  1.0000
  C   C1705     1.0  0.86871  0.80000  0.77430  1.0000
  H   H3039     1.0  0.92545  0.82161  0.79923  1.0000
  C   C1706     1.0  0.85949  0.60125  0.76591  1.0000
  H   H3040     1.0  0.80034  0.72603  0.77015  1.0000
  S   S382      1.0  0.83043  0.85437  0.79979  1.0000
  H   H3041     1.0  0.95702  0.61441  0.84083  1.0000
  C   C1707     1.0  0.84390  0.83505  0.78137  1.0000
  N   N94       1.0  0.86224  0.62567  0.75690  1.0000
  H   H3042     1.0  0.92615  0.76366  0.83373  1.0000
  H   H3043     1.0  0.91383  0.79294  0.83346  1.0000
  H   H3044     1.0  0.94948  0.71061  0.84272  1.0000
  H   H3045     1.0  0.82931  0.85407  0.75269  1.0000
  C   C1708     1.0  0.99706  0.65045  0.81549  1.0000
  H   H3046     1.0  0.92398  0.62859  0.78153  1.0000
  C   C1709     1.0  0.81920  0.64160  0.75829  1.0000
  C   C1710     1.0  0.75998  0.98445  0.74871  1.0000
  C   C1711     1.0  0.96031  0.70011  0.80937  1.0000
  H   H3047     1.0  0.55242  0.80096  0.75512  1.0000
  N   N95       1.0  0.94186  0.81404  0.76601  1.0000
  S   S383      1.0  0.76327  0.56418  0.74540  1.0000
  H   H3048     1.0  0.66577  0.63347  0.75258  1.0000
  C   C1712     1.0  0.70498  0.51447  0.76429  1.0000
  H   H3049     1.0  0.95009  0.68590  0.81332  1.0000
  C   C1713     1.0  0.98997  0.74305  0.76945  1.0000
  C   C1714     1.0  0.71657  0.79699  0.75938  1.0000
  C   C1715     1.0  0.79994  0.65589  0.77168  1.0000
  H   H3050     1.0  0.99002  0.68935  0.76773  1.0000
  H   H3051     1.0  0.75617  0.69232  0.75617  1.0000
  H   H3052     1.0  0.72004  0.50105  0.76249  1.0000
  H   H3053     1.0  0.81529  0.62397  0.76047  1.0000
  H   H3054     1.0  0.78351  0.65576  0.76544  1.0000
  H   H3055     1.0  0.88673  0.64905  0.75407  1.0000
  S   S384      1.0  0.87839  0.72151  0.75716  1.0000
  C   C1716     1.0  0.85067  0.82363  0.74402  1.0000
  H   H3056     1.0  0.94790  0.78076  0.75541  1.0000
  H   H3057     1.0  0.72455  0.50186  0.80342  1.0000
  H   H3058     1.0  0.97069  0.84438  0.77822  1.0000
  C   C1717     1.0  0.78775  0.72969  0.99124  1.0000
  N   N96       1.0  0.99830  0.67265  0.80013  1.0000
  H   H3059     1.0  0.92085  0.79597  0.75089  1.0000
  H   H3060     1.0  0.69851  0.54569  0.78095  1.0000
  H   H3061     1.0  0.71710  0.99443  0.80976  1.0000
  H   H3062     1.0  0.76641  0.99472  0.83956  1.0000
  C   C1718     1.0  0.93916  0.79804  0.75009  1.0000
  C   C1719     1.0  0.77418  0.49857  0.74408  1.0000
  H   H3063     1.0  0.97699  0.81714  0.75172  1.0000
  C   C1720     1.0  0.90834  0.84298  0.75228  1.0000
  H   H3064     1.0  0.72814  0.53544  0.77298  1.0000
  H   H3065     1.0  0.90432  0.87943  0.75329  1.0000
  C   C1721     1.0  0.53688  0.70565  0.74508  1.0000
  H   H3066     1.0  0.99698  0.75593  0.79856  1.0000
  C   C1722     1.0  0.99809  0.81937  0.78883  1.0000
  C   C1723     1.0  0.73503  0.99259  0.81329  1.0000
  C   C1724     1.0  0.99938  0.73324  0.75002  1.0000
  H   H3067     1.0  0.68637  0.56017  0.74808  1.0000
  C   C1725     1.0  0.64057  0.56145  0.76022  1.0000
  H   H3068     1.0  0.62521  0.55755  0.77233  1.0000
  H   H3069     1.0  0.65072  0.52671  0.75487  1.0000
  C   C1726     1.0  0.65851  0.54031  0.75988  1.0000
  H   H3070     1.0  0.64746  0.57546  0.76568  1.0000
  C   C1727     1.0  0.98839  0.65515  0.74312  1.0000
  C   C1728     1.0  0.00068  0.65420  0.76360  1.0000
  H   H3071     1.0  0.00052  0.63697  0.77327  1.0000
  H   H3072     1.0  0.63529  0.56713  0.74322  1.0000
