data_image0
_chemical_formula_structural       FeS2HSFeNFeS4H2SCSFeS2HSFeHFeS3FeSFeS2FeSFeS3H2C7H4C3H2C6H4CH2C7H4C6H5C2HC2H6CHCH3NCH5CH4FeH2CH5CHCH7C2HCHCH3CH2NCH2CH5C2HCH3CH2NC11H26SH3C2H2C2H3CH6CH5CH3CNCHFeCHCH3CH4CHCH2CHCH5CH3CHCHCHCFeH3C2H7CH2C2H4CHSH4C2H4CH2CH2CNHCHSC2SFeS3FeHFeS2FeS2FeS2FeSFeS4FeS2FeS2Fe2S3H2CH5C6H4C2H2C7H4C6H4SH2C6H7CHC3HCHCH5CH2CH9C2H5CH2CH3CNCH2CH3C2H11NCNCH2C2H3C2H3CH2FeHCH8CH2CH7NC11H26CHCH3CH2CH3CH2CHCHCH2C4H3C2H4CH3CHCH3CH3CH5CH2C2HC2H2CHC2H2CHC4SFeS3FeSFeS2HCFeS2FeSFeS2FeS2FeS2Fe2S4HC7H4C6H9CFeC6H4SCHC2HC6H4CHCH3CH5CH3NCH9C4H2CH2C3H4C2H8CH2NC12H29C3HCHCH2C2HNCHNC7H2C3HCH7CH3CH4CH9C2H4C2H2CHCH4CH2CH2CHC2H4C2H3NHCH5CSCNCH2C2H2C4H3CHSHC2H3C3HCHCH4CHCH15CHCH3CHCHCSH4CHC3HCHCH3CFeH2FeS2FeSHSH2SFeS2FeSFeS2HC2SCHSFeS2FeSFeS3HCH7CHCNH2C7H4CHC6H4C6H4C6H4CH4CHCH2C2SC5H3CH2CH3CNC5H2C3H11CH15FeCH4C3H3SH3CH2CHC4NHCH4SH4C2HCH5CHC2HC4H4C3HC2H5C2H2SCH3CH2SCHCH4CH3C2H3CH2NH3CFeH8C2HCH5CHNCH2CH3CH3CSHSH3CH4NHCH9SFeS2FeSFeS2H2FeSFeS2FeSFeSFeS3CSFeS2FeSFeCS2HSCHNHC6H4CHCH2C6H4C7H7C6H4CH2NC7H18C2HCH2CH2C2SH2CHCHCH3NHCHCH3C2H3FeCH3C2HCH3CH2CH4CHCH4CH2C3HCHCHCH2FeH4CH2CH10CH5NC8SC3H16C2H13C2NH4CH7C2HCH3C2H4FeS2FeSFe3S3FeSFeS2FeSFeS5FeS2FeHFeS4H3CHC3H2C6H4C6H4C3HC7H8C6H9CHCHCHCH2CH5CH4CH5CHCH2CH2CH2C2H2CHC2H3CSCH3CH2CHC3H3N2H3CH8NC2HC2HC4H8CH11FeCHCHC2H2CH2CHCHCH3NC5HC6H23C2HCH4CH2CH3C2H4CHSH2C3HNCH2CH3CH6CHCH6NH3CH2C3NH2C2HCH3CH9CH2CH3CH2CH5CH3C2HSFeS2FeS2Fe2S4FeS2FeSFeS3HFeS2FeSFeHSFeSCHC2NC6H4CHC6H4CH3C6H4C5H4C6H6CHCH4CH2C2H3C3HCH2CHNC3H2C2H3C2H6CH13CH5CHNC12H22CH5C2H3CHC2H3NH4C3HC4H3CH2CH7SHNC8H2CH15C3H4CH4CHC2HCH5SH2CHSH3CHCHCHNH2CHCH2CH4CH10C2HC2HCSHCH3CHSCFeS2FeSFeSFeS3FeS2FeHSCFeSHS2FeS2FeS2HFeS3H3C2H6CHC6H7C6H4C6H4CH4C6H4NC12H26CH5SH5NC3H2C6HC2H6CH2CH2C2H7C2H4NHCHC2H2C4HCH7CH10SH3NCH6CH8CHCH2CH3CH2CH7C2HCFeCHC2HCHCH2CHCH2CHNS2HCNH5C2HC2H2CNHC4H3CH5CHCH2C3HCHC2H2CHCH2FeH3C2H4C2HCHCHCHC2H2CHCHSFeS2FeS2FeSFeS2FeSHFeS2FeSFeS4FeS2FeHFeS3H2C2H2CH4CNC6H4C6H4C6H4C6H5CH5SNC11H13CH13C2H3C4H3SCH4CHC2H4C3H5NCHC5H2CHCH3CNH3CH5C2H13C2HC2HCHCHC2HCHNC9H23FeHC2H3CH2C2H8CH4C3FeH12CHNC5H5CH2C2H16CH7C3FeS2FeSH2FeS3HSHSFeSFeS2FeSFeS3FeS2FeSFeCFeS4HC6H4C6H4C3H2C6H4C6H4CH2CH4C4H2NH5C3H2CH9CHCH3CNH2CNC3HFeCHCHCH3CH3CH7CH2CH2CH5CH2NC7HC4H14NH2CH12CH4NC5HC2H6CH13CHC2HCHNC3H2C2HCH5CHCH4CH3CH2CH3C2H4C2HCH3C2HCHCHNH3SCH4C2H4C3H3C2HCH10CH5CH5CH2CH3CHCH4CHCHCFeHCSH2FeS2FeSFeS2FeS2FeS2FeSCS2HFeS2HSFeSFeS4C5HCH3C6H4C6H4FeH3C7H5C6H10C3H7CHCHNCH4CHCH2SH2C2HCH2CH3CH2CH2SH2CH6CH2NC6HNHCH2CH2CH10C2H8FeHCH5C2H2C2H2CHC2HCH2CH2FeCH4C6HC2HC2H2CHC2HC2H2CH4NH4CH2CHCH2NCH2CH4CHCH8C2H2SH2CHC2H14CHCH2CHSHCH4C2FeS2FeSFeSFeS5CFeS2HFeSFeSHS2FeS2FeSFeS2H2SC6H4C3H2C6H5CH2C6H4CHNHC6H6C2H2CH2CH3CHC2HSCH5NH7CH2C3H3CH3C2HC4H8FeC2HNCSCH2CHCH2CH8SHCH2C4HC2H7CHNC12H16C2H12CH2SCHCH9C2HCH2NHCH5CH5CH6CH8C2HCH5C2HCH2CHCH4CHCH3CH2CH6CHC3H2CHCH4CHCNH3SNSHFeS2FeS2FeSFeS2FeHFeS2FeS4FeS2FeS2Fe2S3H2C2H3C9H4C6H6C6H4C3H2C6H3SH3C3H2C2H4CH4CH4CH4CH2CH2CHCH2CH5C3H6CH2CHCH13CNH2CH3NC6HCH19C2H2C4H2C3HCHNCH11C2H2C2HCH2FeH5CHCH2C2HCH7CNCH3SC2H5CH3CH3NC10H18C2HCHCH4CH2CH3C2H6CH2CHCHCHCH2SFeS2HSFeCFeS3HCSFeS2FeSHCFeS3FeSFeS2FeSFeS3HSC3H3C6H4C6H7C8H5CH3CH2C6H5C2H2C2NC2H3CH4CHSC2H3CH6CH3CHNC7H19CHNC2SFeH7CHCHCHCHNH3CHFeCH10CH6CHCH3C2HCH5CHCH4CHC2H5CH5C2H5CHNHC2HC3HCH2NCH2C2HCH2CH9C2HC2NH3C2H2C3H3CH3FeHCHCH2FeS2FeS2FeSHS2FeS2HFeCFeSHSH2FeS2FeS2CFeS3CFeSHCSHC3H3CHC7FeH3C6H4CH2C6H4C6H6CHCH3C2H2SHC2NC6H3C2H8CHCH4CH8CH2CHCNC12H8NHCH9C3SH5NC11H27SC2HNCH7C2H2SH2CHC2H8CHCHCH4CHC2HCH20CH2CH3CH5CH7FeSFeS2FeS4H2FeS2FeSFeS2CFeS2FeS2FeSFeS2HSH2CHC7H4CHSH2C6H4C6H4C7H4C2H4CHNHC3HCH2CH2CH4C3HCH6C3H2CH11CHSHCHC2H5CH4CH3CNC3HCHCH3CH8C3H7CH2CH3CHCH2CH5NC12H25CHNHC2SH2CNC6SH2C2H3CH9CH4C2H6C2HNC7H2C3H13CFeC2H2CH10CH4CHCH4CH2CH2CH6C2H2C2
_chemical_formula_sum              "Fe192 S384 H3072 N96 C1728"
_cell_length_a       56.4092
_cell_length_b       56.3766
_cell_length_c       56.441
_cell_angle_alpha    89.6398
_cell_angle_beta     89.6754
_cell_angle_gamma    89.6532

_space_group_name_H-M_alt    "P 1"
_space_group_IT_number       1

loop_
  _space_group_symop_operation_xyz
  'x, y, z'

loop_
  _atom_site_type_symbol
  _atom_site_label
  _atom_site_symmetry_multiplicity
  _atom_site_fract_x
  _atom_site_fract_y
  _atom_site_fract_z
  _atom_site_occupancy
  Fe  Fe1       1.0  0.35555  0.19233  0.04321  1.0000
  S   S1        1.0  0.31985  0.19461  0.06071  1.0000
  S   S2        1.0  0.38939  0.21029  0.05710  1.0000
  H   H1        1.0  0.08274  0.20899  0.24216  1.0000
  S   S3        1.0  0.29891  0.16087  0.01855  1.0000
  Fe  Fe2       1.0  0.30547  0.20013  0.02368  1.0000
  N   N1        1.0  0.42586  0.22660  0.16563  1.0000
  Fe  Fe3       1.0  0.31686  0.15526  0.05399  1.0000
  S   S4        1.0  0.30167  0.12792  0.08029  1.0000
  S   S5        1.0  0.34160  0.19891  0.00630  1.0000
  S   S6        1.0  0.35343  0.15256  0.03864  1.0000
  S   S7        1.0  0.47119  0.15476  0.34923  1.0000
  H   H2        1.0  0.23335  0.00489  0.31839  1.0000
  H   H3        1.0  0.23846  0.01935  0.34644  1.0000
  S   S8        1.0  0.01608  0.15021  0.34419  1.0000
  C   C1        1.0  0.32163  0.03221  0.04205  1.0000
  S   S9        1.0  0.35133  0.03592  0.12650  1.0000
  Fe  Fe4       1.0  0.30697  0.15566  0.43021  1.0000
  S   S10       1.0  0.31612  0.19111  0.41364  1.0000
  S   S11       1.0  0.29091  0.12446  0.40904  1.0000
  H   H4        1.0  0.30687  0.00272  0.06217  1.0000
  S   S12       1.0  0.34165  0.20529  0.46345  1.0000
  Fe  Fe5       1.0  0.30465  0.20676  0.44880  1.0000
  H   H5        1.0  0.33664  0.01036  0.07050  1.0000
  Fe  Fe6       1.0  0.35247  0.18649  0.42973  1.0000
  S   S13       1.0  0.38821  0.19896  0.41404  1.0000
  S   S14       1.0  0.29365  0.17171  0.46455  1.0000
  S   S15       1.0  0.34428  0.15034  0.44462  1.0000
  Fe  Fe7       1.0  0.14919  0.01876  0.32755  1.0000
  S   S16       1.0  0.13892  0.03058  0.29112  1.0000
  Fe  Fe8       1.0  0.17295  0.06694  0.33895  1.0000
  S   S17       1.0  0.16299  0.08125  0.30286  1.0000
  S   S18       1.0  0.19066  0.09413  0.36381  1.0000
  Fe  Fe9       1.0  0.12717  0.06468  0.30863  1.0000
  S   S19       1.0  0.09151  0.08003  0.29577  1.0000
  Fe  Fe10      1.0  0.17564  0.04594  0.28890  1.0000
  S   S20       1.0  0.19821  0.04570  0.25495  1.0000
  S   S21       1.0  0.13600  0.05214  0.34547  1.0000
  S   S22       1.0  0.18697  0.03221  0.32456  1.0000
  H   H6        1.0  0.42365  0.14867  0.44957  1.0000
  H   H7        1.0  0.41718  0.19107  0.15453  1.0000
  C   C2        1.0  0.37883  0.22592  0.35376  1.0000
  C   C3        1.0  0.26282  0.11660  0.39648  1.0000
  C   C4        1.0  0.24288  0.13152  0.39736  1.0000
  C   C5        1.0  0.22115  0.12435  0.38724  1.0000
  C   C6        1.0  0.21887  0.10221  0.37597  1.0000
  C   C7        1.0  0.23880  0.08728  0.37509  1.0000
  C   C8        1.0  0.26054  0.09446  0.38518  1.0000
  H   H8        1.0  0.24417  0.14856  0.40594  1.0000
  H   H9        1.0  0.20593  0.13606  0.38821  1.0000
  H   H10       1.0  0.23734  0.07000  0.36711  1.0000
  H   H11       1.0  0.27569  0.08263  0.38453  1.0000
  C   C9        1.0  0.22239  0.02775  0.24523  1.0000
  C   C10       1.0  0.25115  0.01776  0.21396  1.0000
  C   C11       1.0  0.23226  0.03185  0.22263  1.0000
  H   H12       1.0  0.31415  0.10821  0.03508  1.0000
  H   H13       1.0  0.22508  0.04590  0.21159  1.0000
  C   C12       1.0  0.03619  0.12967  0.33093  1.0000
  C   C13       1.0  0.05667  0.12270  0.34337  1.0000
  C   C14       1.0  0.07359  0.10723  0.33312  1.0000
  C   C15       1.0  0.07027  0.09859  0.31019  1.0000
  C   C16       1.0  0.04960  0.10531  0.29789  1.0000
  C   C17       1.0  0.03267  0.12071  0.30819  1.0000
  H   H14       1.0  0.05963  0.12950  0.36098  1.0000
  H   H15       1.0  0.08937  0.10227  0.34282  1.0000
  H   H16       1.0  0.04689  0.09884  0.28010  1.0000
  H   H17       1.0  0.01712  0.12603  0.29843  1.0000
  C   C18       1.0  0.35094  0.00052  0.24836  1.0000
  H   H18       1.0  0.25829  0.02097  0.19639  1.0000
  H   H19       1.0  0.18755  0.21026  0.43500  1.0000
  C   C19       1.0  0.35680  0.05317  0.00501  1.0000
  C   C20       1.0  0.44867  0.16697  0.36802  1.0000
  C   C21       1.0  0.42705  0.15484  0.37077  1.0000
  C   C22       1.0  0.40855  0.16400  0.38514  1.0000
  C   C23       1.0  0.41135  0.18561  0.39684  1.0000
  C   C24       1.0  0.43306  0.19763  0.39426  1.0000
  C   C25       1.0  0.45162  0.18836  0.38007  1.0000
  H   H20       1.0  0.42453  0.13824  0.36163  1.0000
  H   H21       1.0  0.39200  0.15454  0.38683  1.0000
  H   H22       1.0  0.43552  0.21432  0.40326  1.0000
  H   H23       1.0  0.46823  0.19775  0.37848  1.0000
  C   C26       1.0  0.31587  0.10269  0.09344  1.0000
  C   C27       1.0  0.30188  0.08473  0.10376  1.0000
  C   C28       1.0  0.31233  0.06435  0.11419  1.0000
  C   C29       1.0  0.33701  0.06161  0.11441  1.0000
  C   C30       1.0  0.35102  0.07971  0.10430  1.0000
  C   C31       1.0  0.34056  0.10013  0.09399  1.0000
  H   H24       1.0  0.28277  0.08656  0.10366  1.0000
  H   H25       1.0  0.30127  0.05072  0.12193  1.0000
  H   H26       1.0  0.37012  0.07794  0.10451  1.0000
  H   H27       1.0  0.35159  0.11400  0.08667  1.0000
  H   H28       1.0  0.44332  0.18636  0.49126  1.0000
  C   C32       1.0  0.30528  0.09145  0.03024  1.0000
  C   C33       1.0  0.39320  0.23606  0.07501  1.0000
  H   H29       1.0  0.47210  0.18098  0.27285  1.0000
  C   C34       1.0  0.39778  0.10557  0.04566  1.0000
  C   C35       1.0  0.38489  0.08315  0.03799  1.0000
  H   H30       1.0  0.22161  0.20312  0.47678  1.0000
  H   H31       1.0  0.01722  0.05916  0.34208  1.0000
  H   H32       1.0  0.16982  0.99545  0.25863  1.0000
  H   H33       1.0  0.35938  0.10264  0.01651  1.0000
  H   H34       1.0  0.31196  0.02891  0.07939  1.0000
  H   H35       1.0  0.46935  0.21534  0.29976  1.0000
  C   C36       1.0  0.26038  0.99929  0.22782  1.0000
  H   H36       1.0  0.38537  0.07047  0.05309  1.0000
  C   C37       1.0  0.40231  0.14166  0.49001  1.0000
  H   H37       1.0  0.05466  0.17289  0.24235  1.0000
  H   H38       1.0  0.37994  0.02592  0.25005  1.0000
  H   H39       1.0  0.01122  0.16808  0.23852  1.0000
  N   N2        1.0  0.43864  0.23023  0.31780  1.0000
  C   C38       1.0  0.43684  0.14500  0.46382  1.0000
  H   H40       1.0  0.42945  0.22554  0.47426  1.0000
  H   H41       1.0  0.00363  0.10115  0.36787  1.0000
  H   H42       1.0  0.27099  0.10880  0.03159  1.0000
  H   H43       1.0  0.01721  0.21143  0.30929  1.0000
  H   H44       1.0  0.41395  0.23505  0.36442  1.0000
  C   C39       1.0  0.25079  0.99546  0.25063  1.0000
  H   H45       1.0  0.39122  0.14707  0.47463  1.0000
  H   H46       1.0  0.16147  0.23264  0.00485  1.0000
  H   H47       1.0  0.37824  0.00989  0.22242  1.0000
  H   H48       1.0  0.35062  0.09790  0.04606  1.0000
  Fe  Fe11      1.0  0.33160  0.16951  0.47737  1.0000
  H   H49       1.0  0.43716  0.17984  0.18712  1.0000
  H   H50       1.0  0.41924  0.20316  0.33722  1.0000
  C   C40       1.0  0.03675  0.03302  0.32297  1.0000
  H   H51       1.0  0.45502  0.15153  0.41862  1.0000
  H   H52       1.0  0.02680  0.14063  0.23324  1.0000
  H   H53       1.0  0.34095  0.00997  0.26246  1.0000
  H   H54       1.0  0.12124  0.01387  0.23906  1.0000
  H   H55       1.0  0.28828  0.04975  0.23196  1.0000
  C   C41       1.0  0.40341  0.23569  0.34786  1.0000
  H   H56       1.0  0.38884  0.11363  0.06127  1.0000
  C   C42       1.0  0.06634  0.21925  0.24577  1.0000
  H   H57       1.0  0.04805  0.04600  0.31327  1.0000
  H   H58       1.0  0.16736  0.99634  0.21557  1.0000
  H   H59       1.0  0.42266  0.21688  0.20269  1.0000
  H   H60       1.0  0.48786  0.23173  0.12272  1.0000
  H   H61       1.0  0.00246  0.03074  0.33949  1.0000
  H   H62       1.0  0.17959  0.20510  0.46554  1.0000
  H   H63       1.0  0.34527  0.03849  0.99904  1.0000
  C   C43       1.0  0.02218  0.15397  0.24693  1.0000
  C   C44       1.0  0.37607  0.19538  0.12939  1.0000
  H   H64       1.0  0.31392  0.00968  0.30991  1.0000
  C   C45       1.0  0.28167  0.09815  0.01887  1.0000
  H   H65       1.0  0.01165  0.14510  0.26103  1.0000
  C   C46       1.0  0.40814  0.20832  0.15792  1.0000
  H   H66       1.0  0.04644  0.02737  0.33913  1.0000
  H   H67       1.0  0.30123  0.08135  0.04665  1.0000
  H   H68       1.0  0.07116  0.21214  0.31934  1.0000
  C   C47       1.0  0.46885  0.14817  0.43220  1.0000
  H   H69       1.0  0.31083  0.06241  0.00541  1.0000
  H   H70       1.0  0.41630  0.10107  0.05065  1.0000
  N   N3        1.0  0.05951  0.19726  0.28604  1.0000
  C   C48       1.0  0.99380  0.22504  0.23812  1.0000
  H   H71       1.0  0.08086  0.99507  0.35605  1.0000
  H   H72       1.0  0.43310  0.20109  0.27676  1.0000
  C   C49       1.0  0.41123  0.19174  0.47070  1.0000
  H   H73       1.0  0.25860  0.99671  0.33606  1.0000
  H   H74       1.0  0.32506  0.08934  0.99786  1.0000
  H   H75       1.0  0.40278  0.21709  0.31420  1.0000
  H   H76       1.0  0.35721  0.03320  0.22880  1.0000
  H   H77       1.0  0.45016  0.21141  0.13967  1.0000
  C   C50       1.0  0.44044  0.19181  0.29246  1.0000
  C   C51       1.0  0.35898  0.08883  0.03070  1.0000
  H   H78       1.0  0.40001  0.22748  0.99507  1.0000
  C   C52       1.0  0.31920  0.01772  0.06492  1.0000
  H   H79       1.0  0.35664  0.23976  0.08515  1.0000
  H   H80       1.0  0.32731  0.01983  0.02792  1.0000
  H   H81       1.0  0.21599  0.20746  0.05808  1.0000
  C   C53       1.0  0.43659  0.21875  0.18884  1.0000
  H   H82       1.0  0.12469  0.15921  0.29212  1.0000
  H   H83       1.0  0.44781  0.16043  0.27152  1.0000
  N   N4        1.0  0.26015  0.07235  0.29824  1.0000
  C   C54       1.0  0.24193  0.09018  0.28981  1.0000
  C   C55       1.0  0.27371  0.06207  0.27739  1.0000
  C   C56       1.0  0.24688  0.05227  0.31013  1.0000
  C   C57       1.0  0.27682  0.08273  0.31623  1.0000
  C   C58       1.0  0.28901  0.10637  0.30955  1.0000
  C   C59       1.0  0.22622  0.10157  0.30937  1.0000
  C   C60       1.0  0.26217  0.03055  0.31786  1.0000
  C   C61       1.0  0.27851  0.07861  0.25583  1.0000
  C   C62       1.0  0.29552  0.06692  0.23815  1.0000
  C   C63       1.0  0.30233  0.11640  0.33078  1.0000
  C   C64       1.0  0.21137  0.12206  0.29944  1.0000
  H   H84       1.0  0.39510  0.07551  0.02299  1.0000
  H   H85       1.0  0.22980  0.08170  0.27685  1.0000
  H   H86       1.0  0.25032  0.10495  0.27985  1.0000
  H   H87       1.0  0.29097  0.05447  0.28333  1.0000
  H   H88       1.0  0.26384  0.04691  0.26970  1.0000
  H   H89       1.0  0.23270  0.04568  0.29821  1.0000
  H   H90       1.0  0.23757  0.05859  0.32634  1.0000
  H   H91       1.0  0.26749  0.08535  0.33345  1.0000
  H   H92       1.0  0.29142  0.07006  0.32033  1.0000
  H   H93       1.0  0.27611  0.12014  0.30390  1.0000
  H   H94       1.0  0.30221  0.10340  0.29525  1.0000
  H   H95       1.0  0.21378  0.08827  0.31678  1.0000
  H   H96       1.0  0.23696  0.10874  0.32404  1.0000
  H   H97       1.0  0.27617  0.03587  0.33043  1.0000
  H   H98       1.0  0.18606  0.23081  0.03522  1.0000
  H   H99       1.0  0.26163  0.08226  0.24634  1.0000
  H   H100      1.0  0.28617  0.09576  0.26112  1.0000
  H   H101      1.0  0.24450  0.22096  0.06268  1.0000
  H   H102      1.0  0.29792  0.07870  0.22248  1.0000
  H   H103      1.0  0.47468  0.15285  0.46937  1.0000
  H   H104      1.0  0.28981  0.12056  0.34550  1.0000
  H   H105      1.0  0.31586  0.10356  0.33728  1.0000
  H   H106      1.0  0.31144  0.13305  0.32553  1.0000
  H   H107      1.0  0.19928  0.12881  0.31352  1.0000
  H   H108      1.0  0.22298  0.13680  0.29349  1.0000
  H   H109      1.0  0.20049  0.11603  0.28430  1.0000
  S   S23       1.0  0.28322  0.23432  0.01959  1.0000
  H   H110      1.0  0.48916  0.23873  0.32264  1.0000
  H   H111      1.0  0.27152  0.08199  0.01438  1.0000
  H   H112      1.0  0.02519  0.20278  0.35190  1.0000
  C   C65       1.0  0.19262  0.21380  0.45362  1.0000
  C   C66       1.0  0.36768  0.01844  0.23675  1.0000
  H   H113      1.0  0.99818  0.09276  0.27531  1.0000
  H   H114      1.0  0.09782  0.19797  0.28802  1.0000
  C   C67       1.0  0.46050  0.15694  0.45645  1.0000
  C   C68       1.0  0.00797  0.23245  0.21879  1.0000
  H   H115      1.0  0.45270  0.19229  0.22698  1.0000
  H   H116      1.0  0.28463  0.10908  0.00268  1.0000
  H   H117      1.0  0.99320  0.09545  0.32581  1.0000
  C   C69       1.0  0.05538  0.20305  0.31188  1.0000
  H   H118      1.0  0.46504  0.16235  0.29814  1.0000
  H   H119      1.0  0.42192  0.23698  0.28390  1.0000
  H   H120      1.0  0.11132  0.13392  0.30641  1.0000
  H   H121      1.0  0.14623  0.22692  0.46965  1.0000
  H   H122      1.0  0.04280  0.22967  0.27330  1.0000
  H   H123      1.0  0.07124  0.15220  0.30136  1.0000
  C   C70       1.0  0.03929  0.18202  0.27755  1.0000
  H   H124      1.0  0.43712  0.23850  0.13090  1.0000
  H   H125      1.0  0.39829  0.11875  0.03094  1.0000
  H   H126      1.0  0.01401  0.23251  0.34784  1.0000
  H   H127      1.0  0.36375  0.11294  0.48067  1.0000
  H   H128      1.0  0.47815  0.23169  0.16618  1.0000
  C   C71       1.0  0.08715  0.16354  0.30091  1.0000
  H   H129      1.0  0.36255  0.19437  0.14374  1.0000
  H   H130      1.0  0.14917  0.02954  0.23739  1.0000
  H   H131      1.0  0.35654  0.04423  0.05113  1.0000
  C   C72       1.0  0.46428  0.19073  0.21107  1.0000
  N   N5        1.0  0.34418  0.06793  0.02340  1.0000
  C   C73       1.0  0.45747  0.17279  0.28322  1.0000
  H   H132      1.0  0.45852  0.17649  0.45511  1.0000
  Fe  Fe12      1.0  0.33590  0.15928  0.00325  1.0000
  C   C74       1.0  0.04483  0.16445  0.25711  1.0000
  H   H133      1.0  0.13306  0.02323  0.21079  1.0000
  C   C75       1.0  0.33973  0.05260  0.04502  1.0000
  H   H134      1.0  0.02404  0.19343  0.27206  1.0000
  H   H135      1.0  0.42575  0.18260  0.30184  1.0000
  H   H136      1.0  0.22472  0.00648  0.27676  1.0000
  C   C76       1.0  0.44460  0.22906  0.14657  1.0000
  H   H137      1.0  0.33370  0.06355  0.06023  1.0000
  H   H138      1.0  0.38507  0.23157  0.13617  1.0000
  H   H139      1.0  0.38469  0.17776  0.12721  1.0000
  H   H140      1.0  0.03209  0.17093  0.29232  1.0000
  C   C77       1.0  0.08341  0.18514  0.28414  1.0000
  H   H141      1.0  0.35528  0.99694  0.30241  1.0000
  C   C78       1.0  0.45321  0.20928  0.30931  1.0000
  H   H142      1.0  0.47881  0.20390  0.21213  1.0000
  H   H143      1.0  0.46248  0.19333  0.17324  1.0000
  C   C79       1.0  0.39448  0.21433  0.13487  1.0000
  H   H144      1.0  0.04515  0.22777  0.35313  1.0000
  C   C80       1.0  0.41111  0.21850  0.47489  1.0000
  H   H145      1.0  0.05583  0.14944  0.26375  1.0000
  H   H146      1.0  0.44000  0.12552  0.46317  1.0000
  H   H147      1.0  0.41914  0.18864  0.45299  1.0000
  H   H148      1.0  0.45979  0.19873  0.32472  1.0000
  H   H149      1.0  0.27069  0.02196  0.30233  1.0000
  C   C81       1.0  0.32131  0.07714  0.01302  1.0000
  H   H150      1.0  0.15476  0.23260  0.42995  1.0000
  H   H151      1.0  0.36691  0.22761  0.33824  1.0000
  H   H152      1.0  0.40691  0.21512  0.11960  1.0000
  C   C82       1.0  0.45001  0.19461  0.18842  1.0000
  H   H153      1.0  0.36693  0.19994  0.11255  1.0000
  C   C83       1.0  0.06031  0.22048  0.27252  1.0000
  H   H154      1.0  0.01194  0.06753  0.30029  1.0000
  C   C84       1.0  0.03340  0.21876  0.31751  1.0000
  H   H155      1.0  0.09052  0.16968  0.31926  1.0000
  C   C85       1.0  0.21669  0.20195  0.45780  1.0000
  Fe  Fe13      1.0  0.33757  0.00214  0.14508  1.0000
  H   H156      1.0  0.10493  0.14004  0.27581  1.0000
  H   H157      1.0  0.37259  0.04418  0.01283  1.0000
  H   H158      1.0  0.32996  0.00564  0.33715  1.0000
  C   C86       1.0  0.24714  0.01179  0.33043  1.0000
  C   C87       1.0  0.10835  0.14836  0.29325  1.0000
  H   H159      1.0  0.39251  0.18587  0.47043  1.0000
  H   H160      1.0  0.21583  0.18290  0.45297  1.0000
  H   H161      1.0  0.37096  0.23601  0.36874  1.0000
  H   H162      1.0  0.46518  0.23675  0.23665  1.0000
  H   H163      1.0  0.08707  0.17912  0.26583  1.0000
  H   H164      1.0  0.05137  0.21125  0.23608  1.0000
  H   H165      1.0  0.33814  0.99482  0.23481  1.0000
  C   C88       1.0  0.02928  0.22050  0.34424  1.0000
  H   H166      1.0  0.39512  0.20461  0.17236  1.0000
  H   H167      1.0  0.01664  0.21933  0.20778  1.0000
  C   C89       1.0  0.22845  0.22116  0.05137  1.0000
  C   C90       1.0  0.23199  0.00965  0.25931  1.0000
  H   H168      1.0  0.47237  0.17272  0.21098  1.0000
  H   H169      1.0  0.30377  0.03926  0.03767  1.0000
  H   H170      1.0  0.31312  0.06376  0.24634  1.0000
  H   H171      1.0  0.05316  0.18645  0.32249  1.0000
  C   C91       1.0  0.01302  0.04434  0.32997  1.0000
  H   H172      1.0  0.45654  0.23033  0.35146  1.0000
  S   S24       1.0  0.34165  0.99598  0.18438  1.0000
  H   H173      1.0  0.40759  0.10607  0.47489  1.0000
  H   H174      1.0  0.99925  0.03971  0.29447  1.0000
  H   H175      1.0  0.40061  0.22743  0.46078  1.0000
  H   H176      1.0  0.03601  0.23714  0.31086  1.0000
  C   C92       1.0  0.99986  0.05398  0.30795  1.0000
  C   C93       1.0  0.13781  0.01623  0.22859  1.0000
  H   H177      1.0  0.23392  0.21656  0.03303  1.0000
  H   H178      1.0  0.44863  0.23266  0.19575  1.0000
  H   H179      1.0  0.23072  0.21047  0.44681  1.0000
  H   H180      1.0  0.38004  0.20697  0.35919  1.0000
  C   C94       1.0  0.42533  0.17845  0.49022  1.0000
  H   H181      1.0  0.07327  0.23263  0.28097  1.0000
  H   H182      1.0  0.47288  0.12886  0.43282  1.0000
  C   C95       1.0  0.41588  0.22066  0.32842  1.0000
  H   H183      1.0  0.48514  0.15775  0.42668  1.0000
  H   H184      1.0  0.03396  0.01726  0.31163  1.0000
  C   C96       1.0  0.32250  0.99631  0.32163  1.0000
  N   N6        1.0  0.42690  0.15188  0.48772  1.0000
  H   H185      1.0  0.43101  0.23698  0.06929  1.0000
  C   C97       1.0  0.25570  0.23822  0.49073  1.0000
  H   H186      1.0  0.37684  0.24102  0.17561  1.0000
  S   S25       1.0  0.28366  0.24170  0.45001  1.0000
  C   C98       1.0  0.15107  0.99266  0.22604  1.0000
  C   C99       1.0  0.19386  0.24092  0.45797  1.0000
  S   S26       1.0  0.34866  0.13389  0.97364  1.0000
  Fe  Fe14      1.0  0.42802  0.16435  0.67601  1.0000
  S   S27       1.0  0.41625  0.20037  0.66192  1.0000
  S   S28       1.0  0.39991  0.14826  0.70191  1.0000
  S   S29       1.0  0.46558  0.20376  0.63283  1.0000
  Fe  Fe15      1.0  0.45340  0.21251  0.66980  1.0000
  H   H187      1.0  0.37711  0.02496  0.91769  1.0000
  Fe  Fe16      1.0  0.42948  0.18829  0.62611  1.0000
  S   S30       1.0  0.41514  0.19872  0.58920  1.0000
  S   S31       1.0  0.43962  0.15182  0.63939  1.0000
  Fe  Fe17      1.0  0.29260  0.03925  0.80584  1.0000
  S   S32       1.0  0.32673  0.01938  0.79905  1.0000
  S   S33       1.0  0.25907  0.03998  0.78303  1.0000
  Fe  Fe18      1.0  0.31399  0.06646  0.84845  1.0000
  S   S34       1.0  0.34920  0.04858  0.84338  1.0000
  S   S35       1.0  0.30413  0.09343  0.87747  1.0000
  Fe  Fe19      1.0  0.34446  0.05495  0.80402  1.0000
  S   S36       1.0  0.37497  0.06706  0.77928  1.0000
  Fe  Fe20      1.0  0.32825  0.01482  0.83892  1.0000
  S   S37       1.0  0.31038  0.07483  0.80939  1.0000
  S   S38       1.0  0.29306  0.03268  0.84535  1.0000
  S   S39       1.0  0.13523  0.02527  0.63166  1.0000
  S   S40       1.0  0.34041  0.15734  0.51519  1.0000
  Fe  Fe21      1.0  0.05116  0.13732  0.67011  1.0000
  S   S41       1.0  0.03830  0.14514  0.63328  1.0000
  S   S42       1.0  0.07196  0.10474  0.68347  1.0000
  Fe  Fe22      1.0  0.03019  0.18507  0.68905  1.0000
  S   S43       1.0  0.01606  0.19551  0.65329  1.0000
  S   S44       1.0  0.03051  0.20831  0.72228  1.0000
  Fe  Fe23      1.0  0.00430  0.15701  0.65132  1.0000
  Fe  Fe24      1.0  0.05127  0.18280  0.63867  1.0000
  S   S45       1.0  0.07903  0.20034  0.61403  1.0000
  S   S46       1.0  0.01661  0.14746  0.68793  1.0000
  S   S47       1.0  0.06585  0.17398  0.67471  1.0000
  H   H188      1.0  0.27744  0.08837  0.76725  1.0000
  H   H189      1.0  0.17178  0.06439  0.63545  1.0000
  C   C100      1.0  0.99405  0.24190  0.71869  1.0000
  H   H190      1.0  0.37302  0.03370  0.96342  1.0000
  H   H191      1.0  0.31120  0.01281  0.69805  1.0000
  H   H192      1.0  0.25590  0.08200  0.97099  1.0000
  H   H193      1.0  0.43385  0.16476  0.53753  1.0000
  H   H194      1.0  0.28170  0.99910  0.66908  1.0000
  C   C101      1.0  0.11625  0.04589  0.64660  1.0000
  C   C102      1.0  0.10163  0.06118  0.63319  1.0000
  C   C103      1.0  0.08743  0.07875  0.64420  1.0000
  C   C104      1.0  0.08814  0.08174  0.66876  1.0000
  C   C105      1.0  0.10253  0.06629  0.68221  1.0000
  C   C106      1.0  0.11639  0.04842  0.67127  1.0000
  H   H195      1.0  0.10120  0.05931  0.61413  1.0000
  H   H196      1.0  0.07602  0.09007  0.63367  1.0000
  H   H197      1.0  0.10314  0.06827  0.70125  1.0000
  H   H198      1.0  0.12755  0.03692  0.68188  1.0000
  C   C107      1.0  0.24694  0.01948  0.76250  1.0000
  C   C108      1.0  0.22691  0.02627  0.74922  1.0000
  H   H199      1.0  0.25575  0.21287  0.98104  1.0000
  H   H200      1.0  0.21947  0.04385  0.75148  1.0000
  C   C109      1.0  0.45026  0.13294  0.55042  1.0000
  C   C110      1.0  0.36092  0.16929  0.53578  1.0000
  C   C111      1.0  0.37434  0.18943  0.53053  1.0000
  C   C112      1.0  0.39107  0.19780  0.54696  1.0000
  C   C113      1.0  0.39429  0.18655  0.56907  1.0000
  C   C114      1.0  0.38081  0.16642  0.57435  1.0000
  C   C115      1.0  0.36428  0.15785  0.55777  1.0000
  H   H201      1.0  0.37198  0.19839  0.51372  1.0000
  H   H202      1.0  0.40150  0.21330  0.54262  1.0000
  H   H203      1.0  0.38307  0.15750  0.59123  1.0000
  H   H204      1.0  0.35405  0.14221  0.56203  1.0000
  C   C116      1.0  0.39355  0.12564  0.72363  1.0000
  C   C117      1.0  0.37193  0.12658  0.73636  1.0000
  C   C118      1.0  0.36595  0.10908  0.75350  1.0000
  C   C119      1.0  0.38144  0.09009  0.75809  1.0000
  C   C120      1.0  0.40305  0.08919  0.74543  1.0000
  C   C121      1.0  0.40910  0.10677  0.72843  1.0000
  H   H205      1.0  0.35971  0.14104  0.73292  1.0000
  H   H206      1.0  0.34940  0.11034  0.76313  1.0000
  H   H207      1.0  0.41529  0.07471  0.74876  1.0000
  H   H208      1.0  0.42577  0.10563  0.71892  1.0000
  S   S48       1.0  0.46474  0.17750  0.68532  1.0000
  H   H209      1.0  0.07435  0.12112  0.58914  1.0000
  H   H210      1.0  0.09016  0.14954  0.61835  1.0000
  C   C122      1.0  0.33583  0.12285  0.94701  1.0000
  C   C123      1.0  0.31307  0.12934  0.93955  1.0000
  C   C124      1.0  0.30384  0.12022  0.91824  1.0000
  C   C125      1.0  0.31698  0.10423  0.90420  1.0000
  C   C126      1.0  0.33973  0.09768  0.91166  1.0000
  C   C127      1.0  0.34908  0.10702  0.93283  1.0000
  H   H211      1.0  0.30264  0.14156  0.95010  1.0000
  H   H212      1.0  0.28629  0.12561  0.91264  1.0000
  H   H213      1.0  0.35020  0.08557  0.90106  1.0000
  H   H214      1.0  0.36681  0.10205  0.93822  1.0000
  H   H215      1.0  0.15277  0.14601  0.58122  1.0000
  H   H216      1.0  0.26222  0.22021  0.49236  1.0000
  H   H217      1.0  0.31801  0.00417  0.90063  1.0000
  C   C128      1.0  0.17734  0.07417  0.61920  1.0000
  H   H218      1.0  0.12527  0.23650  0.98139  1.0000
  C   C129      1.0  0.29246  0.20796  0.53558  1.0000
  C   C130      1.0  0.25637  0.99671  0.75935  1.0000
  C   C131      1.0  0.16510  0.15061  0.59566  1.0000
  H   H219      1.0  0.13522  0.21687  0.51250  1.0000
  C   C132      1.0  0.29336  0.00503  0.94349  1.0000
  H   H220      1.0  0.39819  0.04840  0.97635  1.0000
  C   C133      1.0  0.43410  0.14568  0.53275  1.0000
  H   H221      1.0  0.25538  0.02097  0.91853  1.0000
  H   H222      1.0  0.22373  0.22942  0.95556  1.0000
  H   H223      1.0  0.28580  0.99395  0.88249  1.0000
  H   H224      1.0  0.36830  0.11240  0.51238  1.0000
  H   H225      1.0  0.46057  0.15127  0.50591  1.0000
  C   C134      1.0  0.36078  0.17245  0.90406  1.0000
  H   H226      1.0  0.30181  0.01244  0.95960  1.0000
  H   H227      1.0  0.30628  0.22073  0.56904  1.0000
  C   C135      1.0  0.34657  0.07284  0.69867  1.0000
  H   H228      1.0  0.44387  0.13644  0.56876  1.0000
  H   H229      1.0  0.41600  0.13857  0.53546  1.0000
  H   H230      1.0  0.13122  0.99960  0.73171  1.0000
  H   H231      1.0  0.38125  0.00174  0.73445  1.0000
  H   H232      1.0  0.27856  0.18650  0.56474  1.0000
  H   H233      1.0  0.13208  0.23087  0.66884  1.0000
  H   H234      1.0  0.20054  0.01581  0.72355  1.0000
  H   H235      1.0  0.26999  0.10368  0.74002  1.0000
  H   H236      1.0  0.36130  0.02552  0.89007  1.0000
  C   C136      1.0  0.01474  0.23988  0.75598  1.0000
  C   C137      1.0  0.28464  0.09915  0.75235  1.0000
  H   H237      1.0  0.37386  0.17633  0.91814  1.0000
  H   H238      1.0  0.29337  0.01414  0.72412  1.0000
  H   H239      1.0  0.31410  0.03422  0.89307  1.0000
  H   H240      1.0  0.14135  0.16874  0.62000  1.0000
  H   H241      1.0  0.09440  0.13291  0.56680  1.0000
  C   C138      1.0  0.27697  0.02914  0.69294  1.0000
  H   H242      1.0  0.35493  0.18949  0.89596  1.0000
  H   H243      1.0  0.07870  0.22215  0.66274  1.0000
  C   C139      1.0  0.12471  0.13788  0.65004  1.0000
  H   H244      1.0  0.32755  0.04557  0.68066  1.0000
  H   H245      1.0  0.29176  0.11588  0.75962  1.0000
  H   H246      1.0  0.17960  0.13726  0.59656  1.0000
  C   C140      1.0  0.15302  0.10973  0.63276  1.0000
  N   N7        1.0  0.13763  0.13123  0.62744  1.0000
  C   C141      1.0  0.14052  0.14164  0.67220  1.0000
  H   H247      1.0  0.34184  0.05359  0.74002  1.0000
  H   H248      1.0  0.34862  0.07086  0.97122  1.0000
  C   C142      1.0  0.12554  0.14716  0.69413  1.0000
  H   H249      1.0  0.27419  0.17421  0.53566  1.0000
  H   H250      1.0  0.17019  0.11531  0.64056  1.0000
  H   H251      1.0  0.14434  0.09828  0.64650  1.0000
  C   C143      1.0  0.30438  0.08565  0.73944  1.0000
  C   C144      1.0  0.33084  0.03859  0.73396  1.0000
  H   H252      1.0  0.16657  0.15551  0.63309  1.0000
  H   H253      1.0  0.15271  0.15677  0.66943  1.0000
  H   H254      1.0  0.15121  0.12560  0.67641  1.0000
  H   H255      1.0  0.11826  0.20753  0.65227  1.0000
  H   H256      1.0  0.31211  0.23950  0.50503  1.0000
  H   H257      1.0  0.02834  0.23203  0.76703  1.0000
  H   H258      1.0  0.31850  0.08185  0.75252  1.0000
  H   H259      1.0  0.11341  0.13223  0.69825  1.0000
  H   H260      1.0  0.13726  0.14979  0.70962  1.0000
  H   H261      1.0  0.11496  0.16359  0.69138  1.0000
  H   H262      1.0  0.18938  0.17980  0.60254  1.0000
  N   N8        1.0  0.29340  0.02309  0.92352  1.0000
  C   C145      1.0  0.31562  0.02194  0.90854  1.0000
  N   N9        1.0  0.31250  0.04659  0.71622  1.0000
  C   C146      1.0  0.29201  0.04781  0.93375  1.0000
  H   H263      1.0  0.27479  0.00111  0.94903  1.0000
  H   H264      1.0  0.28084  0.06861  0.71578  1.0000
  C   C147      1.0  0.33889  0.02846  0.92152  1.0000
  C   C148      1.0  0.26963  0.05372  0.94874  1.0000
  H   H265      1.0  0.34529  0.16360  0.91247  1.0000
  H   H266      1.0  0.11500  0.20818  0.68405  1.0000
  H   H267      1.0  0.38087  0.03349  0.73777  1.0000
  C   C149      1.0  0.99550  0.07544  0.65403  1.0000
  C   C150      1.0  0.27129  0.07863  0.95909  1.0000
  H   H268      1.0  0.39294  0.14913  0.50561  1.0000
  H   H269      1.0  0.28067  0.04208  0.67852  1.0000
  H   H270      1.0  0.25156  0.00955  0.67202  1.0000
  C   C151      1.0  0.36082  0.01895  0.90864  1.0000
  H   H271      1.0  0.29318  0.06132  0.91925  1.0000
  H   H272      1.0  0.30737  0.05115  0.94551  1.0000
  Fe  Fe25      1.0  0.47527  0.16826  0.64758  1.0000
  H   H273      1.0  0.37457  0.08640  0.49502  1.0000
  C   C152      1.0  0.10128  0.14496  0.60278  1.0000
  H   H274      1.0  0.28788  0.08069  0.96931  1.0000
  H   H275      1.0  0.34054  0.04804  0.92242  1.0000
  H   H276      1.0  0.12753  0.11934  0.59230  1.0000
  H   H277      1.0  0.26754  0.04087  0.96358  1.0000
  H   H278      1.0  0.25337  0.05358  0.93779  1.0000
  H   H279      1.0  0.26218  0.03604  0.70409  1.0000
  H   H280      1.0  0.31117  0.09767  0.72539  1.0000
  H   H281      1.0  0.48694  0.17689  0.53704  1.0000
  C   C153      1.0  0.32328  0.05872  0.69475  1.0000
  H   H282      1.0  0.10061  0.99622  0.74023  1.0000
  H   H283      1.0  0.35483  0.07734  0.66108  1.0000
  C   C154      1.0  0.17640  0.17433  0.58892  1.0000
  H   H284      1.0  0.32192  0.03206  0.75035  1.0000
  H   H285      1.0  0.27565  0.21814  0.53452  1.0000
  H   H286      1.0  0.41121  0.10702  0.50658  1.0000
  H   H287      1.0  0.29896  0.20445  0.51731  1.0000
  H   H288      1.0  0.31007  0.07095  0.68649  1.0000
  H   H289      1.0  0.12062  0.21917  0.59109  1.0000
  H   H290      1.0  0.27095  0.09211  0.94466  1.0000
  N   N10       1.0  0.36383  0.13703  0.84450  1.0000
  C   C155      1.0  0.34299  0.12819  0.83048  1.0000
  C   C156      1.0  0.37843  0.11611  0.85294  1.0000
  C   C157      1.0  0.35392  0.14923  0.86627  1.0000
  C   C158      1.0  0.37904  0.15436  0.83063  1.0000
  C   C159      1.0  0.38021  0.15118  0.80321  1.0000
  C   C160      1.0  0.32399  0.14738  0.82449  1.0000
  C   C161      1.0  0.37213  0.15634  0.88542  1.0000
  C   C162      1.0  0.38965  0.10024  0.83363  1.0000
  C   C163      1.0  0.40426  0.08010  0.84465  1.0000
  C   C164      1.0  0.40008  0.16590  0.79211  1.0000
  C   C165      1.0  0.30822  0.14009  0.80393  1.0000
  H   H291      1.0  0.46875  0.13941  0.54888  1.0000
  H   H292      1.0  0.33374  0.11384  0.84048  1.0000
  H   H293      1.0  0.34879  0.11951  0.81382  1.0000
  H   H294      1.0  0.39362  0.12214  0.86375  1.0000
  H   H295      1.0  0.36743  0.10453  0.86468  1.0000
  H   H296      1.0  0.34048  0.13775  0.87518  1.0000
  H   H297      1.0  0.34427  0.16576  0.86118  1.0000
  H   H298      1.0  0.37285  0.17295  0.83344  1.0000
  H   H299      1.0  0.39751  0.15407  0.83752  1.0000
  H   H300      1.0  0.36336  0.15709  0.79495  1.0000
  H   H301      1.0  0.38308  0.13256  0.79785  1.0000
  H   H302      1.0  0.31233  0.15030  0.84018  1.0000
  H   H303      1.0  0.33225  0.16461  0.81987  1.0000
  H   H304      1.0  0.38743  0.16577  0.87736  1.0000
  H   H305      1.0  0.37870  0.14033  0.89497  1.0000
  H   H306      1.0  0.37576  0.09225  0.82253  1.0000
  H   H307      1.0  0.40210  0.11052  0.82241  1.0000
  H   H308      1.0  0.39362  0.06983  0.85769  1.0000
  H   H309      1.0  0.41035  0.06786  0.83047  1.0000
  H   H310      1.0  0.42009  0.08728  0.85369  1.0000
  H   H311      1.0  0.39756  0.18501  0.79611  1.0000
  H   H312      1.0  0.41761  0.15985  0.79879  1.0000
  H   H313      1.0  0.39997  0.16365  0.77254  1.0000
  H   H314      1.0  0.31907  0.13611  0.78794  1.0000
  H   H315      1.0  0.29755  0.12435  0.80894  1.0000
  H   H316      1.0  0.29577  0.15479  0.79954  1.0000
  C   C166      1.0  0.21613  0.01041  0.73332  1.0000
  H   H317      1.0  0.28538  0.05258  0.74261  1.0000
  C   C167      1.0  0.08502  0.22894  0.60139  1.0000
  H   H318      1.0  0.38473  0.06029  0.94990  1.0000
  H   H319      1.0  0.27097  0.03504  0.89481  1.0000
  H   H320      1.0  0.07157  0.15152  0.57943  1.0000
  C   C168      1.0  0.28678  0.18400  0.54701  1.0000
  H   H321      1.0  0.11445  0.15465  0.64769  1.0000
  H   H322      1.0  0.30313  0.17307  0.54891  1.0000
  C   C169      1.0  0.15238  0.15225  0.61995  1.0000
  H   H323      1.0  0.14221  0.08243  0.60750  1.0000
  H   H324      1.0  0.11141  0.12406  0.65467  1.0000
  H   H325      1.0  0.16470  0.10165  0.59594  1.0000
  C   C170      1.0  0.15847  0.09241  0.61210  1.0000
  H   H326      1.0  0.33905  0.02150  0.93991  1.0000
  H   H327      1.0  0.10892  0.10956  0.61531  1.0000
  C   C171      1.0  0.11925  0.12511  0.60916  1.0000
  H   H328      1.0  0.34556  0.08453  0.71425  1.0000
  C   C172      1.0  0.01164  0.23148  0.73278  1.0000
  H   H329      1.0  0.16258  0.18835  0.58705  1.0000
  C   C173      1.0  0.38108  0.05120  0.96705  1.0000
  H   H330      1.0  0.17974  0.06105  0.60475  1.0000
  H   H331      1.0  0.35604  0.22602  0.56908  1.0000
  C   C174      1.0  0.11620  0.21937  0.66783  1.0000
  C   C175      1.0  0.29476  0.06264  0.72838  1.0000
  C   C176      1.0  0.27197  0.02012  0.90788  1.0000
  C   C177      1.0  0.27013  0.99664  0.89403  1.0000
  H   H332      1.0  0.34077  0.23338  0.51583  1.0000
  H   H333      1.0  0.19457  0.08296  0.62244  1.0000
  H   H334      1.0  0.33854  0.00109  0.72712  1.0000
  C   C178      1.0  0.44306  0.14238  0.50685  1.0000
  C   C179      1.0  0.08443  0.13702  0.58331  1.0000
  H   H335      1.0  0.18585  0.17261  0.57169  1.0000
  H   H336      1.0  0.32786  0.21028  0.54837  1.0000
  H   H337      1.0  0.11050  0.16110  0.59632  1.0000
  H   H338      1.0  0.37268  0.23306  0.97961  1.0000
  C   C180      1.0  0.36444  0.06651  0.98208  1.0000
  H   H339      1.0  0.36171  0.06052  0.70157  1.0000
  H   H340      1.0  0.00066  0.17217  0.75091  1.0000
  H   H341      1.0  0.36591  0.01484  0.75929  1.0000
  C   C181      1.0  0.29927  0.02472  0.70838  1.0000
  H   H342      1.0  0.37387  0.08324  0.98585  1.0000
  C   C182      1.0  0.09378  0.23445  0.66498  1.0000
  H   H343      1.0  0.24874  0.01152  0.86525  1.0000
  H   H344      1.0  0.33866  0.10192  0.67422  1.0000
  H   H345      1.0  0.44999  0.11348  0.54747  1.0000
  C   C183      1.0  0.35269  0.08834  0.67722  1.0000
  H   H346      1.0  0.15023  0.23199  0.53610  1.0000
  H   H347      1.0  0.48164  0.22297  0.72462  1.0000
  H   H348      1.0  0.36965  0.09772  0.68047  1.0000
  C   C184      1.0  0.25031  0.23120  0.98291  1.0000
  H   H349      1.0  0.00264  0.07153  0.63608  1.0000
  H   H350      1.0  0.36077  0.99924  0.90860  1.0000
  H   H351      1.0  0.23382  0.23640  0.52225  1.0000
  H   H352      1.0  0.26474  0.99252  0.69561  1.0000
  H   H353      1.0  0.44706  0.12326  0.50396  1.0000
  C   C185      1.0  0.14289  0.23407  0.51797  1.0000
  H   H354      1.0  0.41668  0.18309  0.50725  1.0000
  H   H355      1.0  0.35285  0.02085  0.70658  1.0000
  C   C186      1.0  0.31153  0.22134  0.54996  1.0000
  C   C187      1.0  0.24825  0.99658  0.87815  1.0000
  H   H356      1.0  0.40289  0.22274  0.49229  1.0000
  C   C188      1.0  0.10744  0.23318  0.59107  1.0000
  C   C189      1.0  0.34768  0.01844  0.72543  1.0000
  H   H357      1.0  0.12313  0.99781  0.76272  1.0000
  H   H358      1.0  0.17689  0.22809  0.50184  1.0000
  C   C190      1.0  0.37027  0.01709  0.74019  1.0000
  H   H359      1.0  0.01052  0.07522  0.66669  1.0000
  C   C191      1.0  0.26831  0.00615  0.68175  1.0000
  C   C192      1.0  0.48655  0.24140  0.72634  1.0000
  H   H360      1.0  0.23179  0.99795  0.88897  1.0000
  H   H361      1.0  0.20408  0.99594  0.57922  1.0000
  C   C193      1.0  0.37529  0.10607  0.49507  1.0000
  H   H362      1.0  0.08571  0.23751  0.70168  1.0000
  C   C194      1.0  0.23212  0.24065  0.96849  1.0000
  C   C195      1.0  0.16260  0.24168  0.50089  1.0000
  C   C196      1.0  0.38763  0.24161  0.98892  1.0000
  C   C197      1.0  0.40086  0.11420  0.49149  1.0000
  S   S49       1.0  0.13975  0.36128  0.01251  1.0000
  Fe  Fe26      1.0  0.43316  0.32242  0.14233  1.0000
  S   S50       1.0  0.42080  0.32804  0.17989  1.0000
  S   S51       1.0  0.40422  0.30292  0.12117  1.0000
  S   S52       1.0  0.47116  0.35263  0.19206  1.0000
  Fe  Fe27      1.0  0.45696  0.31524  0.19100  1.0000
  S   S53       1.0  0.45755  0.28221  0.21515  1.0000
  Fe  Fe28      1.0  0.43577  0.36490  0.17715  1.0000
  S   S54       1.0  0.41775  0.39806  0.19301  1.0000
  S   S55       1.0  0.44607  0.36043  0.13886  1.0000
  H   H363      1.0  0.28926  0.44215  0.16273  1.0000
  C   C198      1.0  0.26110  0.24540  0.99992  1.0000
  Fe  Fe29      1.0  0.14026  0.45115  0.30936  1.0000
  S   S56       1.0  0.17573  0.43329  0.31282  1.0000
  S   S57       1.0  0.10796  0.43437  0.29080  1.0000
  Fe  Fe30      1.0  0.17467  0.44367  0.35142  1.0000
  S   S58       1.0  0.18683  0.41774  0.38076  1.0000
  Fe  Fe31      1.0  0.19152  0.46936  0.30523  1.0000
  S   S59       1.0  0.21814  0.46906  0.27410  1.0000
  S   S60       1.0  0.13825  0.45958  0.34858  1.0000
  Fe  Fe32      1.0  0.05623  0.32596  0.12776  1.0000
  S   S61       1.0  0.04454  0.36221  0.13972  1.0000
  S   S62       1.0  0.07051  0.31554  0.09087  1.0000
  Fe  Fe33      1.0  0.03483  0.30221  0.17326  1.0000
  S   S63       1.0  0.02218  0.33714  0.18785  1.0000
  S   S64       1.0  0.02855  0.26500  0.18863  1.0000
  Fe  Fe34      1.0  0.01008  0.34450  0.15019  1.0000
  Fe  Fe35      1.0  0.05786  0.35157  0.17632  1.0000
  S   S65       1.0  0.08572  0.37337  0.19705  1.0000
  S   S66       1.0  0.02107  0.30907  0.13656  1.0000
  S   S67       1.0  0.07117  0.31581  0.16345  1.0000
  S   S68       1.0  0.13796  0.36707  0.47050  1.0000
  H   H364      1.0  0.99554  0.40259  0.06427  1.0000
  C   C199      1.0  0.36019  0.27476  0.00273  1.0000
  C   C200      1.0  0.15234  0.38281  0.44695  1.0000
  C   C201      1.0  0.13856  0.39676  0.43138  1.0000
  C   C202      1.0  0.14885  0.40824  0.41152  1.0000
  C   C203      1.0  0.17307  0.40552  0.40665  1.0000
  C   C204      1.0  0.18695  0.39210  0.42259  1.0000
  C   C205      1.0  0.17676  0.38111  0.44276  1.0000
  H   H365      1.0  0.11970  0.39850  0.43458  1.0000
  H   H366      1.0  0.13801  0.41894  0.39985  1.0000
  H   H367      1.0  0.20575  0.39006  0.41920  1.0000
  H   H368      1.0  0.18774  0.37094  0.45477  1.0000
  C   C206      1.0  0.10229  0.41684  0.26496  1.0000
  C   C207      1.0  0.07912  0.40864  0.26076  1.0000
  C   C208      1.0  0.07369  0.39516  0.24038  1.0000
  C   C209      1.0  0.09137  0.38976  0.22366  1.0000
  C   C210      1.0  0.11456  0.39784  0.22799  1.0000
  C   C211      1.0  0.11999  0.41110  0.24847  1.0000
  H   H369      1.0  0.06516  0.41293  0.27326  1.0000
  H   H370      1.0  0.05576  0.38922  0.23744  1.0000
  H   H371      1.0  0.12848  0.39378  0.21536  1.0000
  H   H372      1.0  0.13789  0.41690  0.25151  1.0000
  H   H373      1.0  0.47466  0.26565  0.31310  1.0000
  H   H374      1.0  0.07259  0.24301  0.21594  1.0000
  H   H375      1.0  0.00949  0.39389  0.11610  1.0000
  H   H376      1.0  0.26159  0.28026  0.01537  1.0000
  H   H377      1.0  0.20636  0.24805  0.44442  1.0000
  C   C212      1.0  0.25427  0.27553  0.46957  1.0000
  Fe  Fe36      1.0  0.48100  0.34719  0.15381  1.0000
  C   C213      1.0  0.40194  0.42156  0.17845  1.0000
  C   C214      1.0  0.39385  0.41962  0.15515  1.0000
  C   C215      1.0  0.38045  0.43819  0.14474  1.0000
  C   C216      1.0  0.37503  0.45905  0.15732  1.0000
  C   C217      1.0  0.38334  0.46114  0.18055  1.0000
  C   C218      1.0  0.39661  0.44249  0.19102  1.0000
  H   H378      1.0  0.39771  0.40370  0.14520  1.0000
  H   H379      1.0  0.37418  0.43633  0.12677  1.0000
  H   H380      1.0  0.37962  0.47713  0.19039  1.0000
  H   H381      1.0  0.40294  0.44436  0.20896  1.0000
  S   S69       1.0  0.46899  0.30889  0.15351  1.0000
  C   C219      1.0  0.40086  0.27684  0.10364  1.0000
  H   H382      1.0  0.18464  0.28142  0.47979  1.0000
  C   C220      1.0  0.37797  0.26753  0.10053  1.0000
  C   C221      1.0  0.46732  0.24253  0.15377  1.0000
  H   H383      1.0  0.36305  0.27599  0.10923  1.0000
  C   C222      1.0  0.12037  0.34821  0.03399  1.0000
  C   C223      1.0  0.11696  0.35960  0.05591  1.0000
  C   C224      1.0  0.10168  0.35008  0.07345  1.0000
  C   C225      1.0  0.08964  0.32891  0.06933  1.0000
  C   C226      1.0  0.09287  0.31761  0.04731  1.0000
  C   C227      1.0  0.10811  0.32716  0.02975  1.0000
  H   H384      1.0  0.12626  0.37593  0.05939  1.0000
  H   H385      1.0  0.09945  0.35901  0.09023  1.0000
  H   H386      1.0  0.08367  0.30122  0.04389  1.0000
  H   H387      1.0  0.11041  0.31822  0.01299  1.0000
  C   C228      1.0  0.13764  0.26666  0.42766  1.0000
  H   H388      1.0  0.15975  0.40928  0.49036  1.0000
  C   C229      1.0  0.01077  0.25669  0.21337  1.0000
  H   H389      1.0  0.16603  0.45914  0.15506  1.0000
  H   H390      1.0  0.34559  0.47783  0.26655  1.0000
  H   H391      1.0  0.31718  0.29951  0.06022  1.0000
  C   C230      1.0  0.36816  0.30079  0.03601  1.0000
  H   H392      1.0  0.11306  0.27409  0.39909  1.0000
  H   H393      1.0  0.26332  0.44207  0.27921  1.0000
  H   H394      1.0  0.32266  0.47873  0.18481  1.0000
  H   H395      1.0  0.20166  0.32998  0.43759  1.0000
  H   H396      1.0  0.99860  0.25985  0.13928  1.0000
  C   C231      1.0  0.19465  0.29088  0.03905  1.0000
  H   H397      1.0  0.23893  0.47256  0.22762  1.0000
  H   H398      1.0  0.34657  0.26498  0.99254  1.0000
  H   H399      1.0  0.00187  0.29217  0.22406  1.0000
  N   N11       1.0  0.34860  0.28868  0.02256  1.0000
  C   C232      1.0  0.26325  0.25228  0.47168  1.0000
  H   H400      1.0  0.17238  0.32797  0.45040  1.0000
  H   H401      1.0  0.14113  0.28585  0.42981  1.0000
  H   H402      1.0  0.15270  0.28576  0.01458  1.0000
  H   H403      1.0  0.13728  0.25620  0.47633  1.0000
  H   H404      1.0  0.26006  0.28660  0.45494  1.0000
  H   H405      1.0  0.28972  0.46716  0.25278  1.0000
  H   H406      1.0  0.36519  0.27596  0.19787  1.0000
  H   H407      1.0  0.17574  0.26351  0.07421  1.0000
  H   H408      1.0  0.18231  0.29283  0.42618  1.0000
  C   C233      1.0  0.23808  0.28472  0.48635  1.0000
  C   C234      1.0  0.30618  0.26545  0.07271  1.0000
  C   C235      1.0  0.03858  0.37332  0.04033  1.0000
  C   C236      1.0  0.48910  0.26649  0.34811  1.0000
  H   H409      1.0  0.44111  0.28978  0.27367  1.0000
  H   H410      1.0  0.40133  0.25449  0.34263  1.0000
  C   C237      1.0  0.47810  0.24859  0.24404  1.0000
  H   H411      1.0  0.08331  0.38150  0.02231  1.0000
  H   H412      1.0  0.03468  0.39262  0.03845  1.0000
  C   C238      1.0  0.12118  0.47507  0.23462  1.0000
  C   C239      1.0  0.00821  0.39545  0.07745  1.0000
  C   C240      1.0  0.38240  0.27621  0.18823  1.0000
  H   H413      1.0  0.99709  0.35907  0.08256  1.0000
  H   H414      1.0  0.29822  0.28411  0.04048  1.0000
  H   H415      1.0  0.35016  0.28475  0.47509  1.0000
  H   H416      1.0  0.42680  0.26307  0.17750  1.0000
  C   C241      1.0  0.47695  0.25310  0.32815  1.0000
  C   C242      1.0  0.19053  0.32022  0.45064  1.0000
  H   H417      1.0  0.43761  0.27262  0.09425  1.0000
  H   H418      1.0  0.41333  0.30299  0.28251  1.0000
  H   H419      1.0  0.31295  0.45328  0.26841  1.0000
  H   H420      1.0  0.38016  0.28747  0.04437  1.0000
  H   H421      1.0  0.03540  0.36587  0.00201  1.0000
  H   H422      1.0  0.05447  0.25566  0.23901  1.0000
  H   H423      1.0  0.30597  0.28108  0.00013  1.0000
  H   H424      1.0  0.32310  0.31766  0.02481  1.0000
  C   C243      1.0  0.18982  0.29396  0.44422  1.0000
  H   H425      1.0  0.39532  0.28621  0.19901  1.0000
  H   H426      1.0  0.37982  0.28548  0.17097  1.0000
  N   N12       1.0  0.11883  0.37162  0.34663  1.0000
  C   C244      1.0  0.13090  0.38255  0.32531  1.0000
  C   C245      1.0  0.10608  0.39099  0.36011  1.0000
  C   C246      1.0  0.13800  0.36183  0.36268  1.0000
  C   C247      1.0  0.10209  0.35186  0.34010  1.0000
  C   C248      1.0  0.08934  0.35399  0.31577  1.0000
  C   C249      1.0  0.14831  0.36595  0.31175  1.0000
  C   C250      1.0  0.12947  0.35034  0.38633  1.0000
  C   C251      1.0  0.08468  0.40288  0.34769  1.0000
  C   C252      1.0  0.07556  0.42416  0.36179  1.0000
  C   C253      1.0  0.06998  0.33534  0.31341  1.0000
  C   C254      1.0  0.15179  0.37379  0.28602  1.0000
  C   C255      1.0  0.14974  0.33731  0.39885  1.0000
  H   H427      1.0  0.14120  0.39843  0.33067  1.0000
  H   H428      1.0  0.11778  0.38963  0.31253  1.0000
  H   H429      1.0  0.09875  0.38415  0.37708  1.0000
  H   H430      1.0  0.11887  0.40517  0.36488  1.0000
  H   H431      1.0  0.15093  0.37604  0.36713  1.0000
  H   H432      1.0  0.14846  0.34788  0.35344  1.0000
  H   H433      1.0  0.11166  0.33452  0.33968  1.0000
  H   H434      1.0  0.08826  0.34979  0.35413  1.0000
  H   H435      1.0  0.10213  0.35118  0.30103  1.0000
  H   H436      1.0  0.08104  0.37160  0.31295  1.0000
  H   H437      1.0  0.16591  0.36622  0.32054  1.0000
  H   H438      1.0  0.14203  0.34734  0.31172  1.0000
  H   H439      1.0  0.11508  0.33739  0.38337  1.0000
  H   H440      1.0  0.12285  0.36401  0.39875  1.0000
  H   H441      1.0  0.08931  0.40938  0.32979  1.0000
  H   H442      1.0  0.06984  0.39011  0.34639  1.0000
  H   H443      1.0  0.07001  0.41864  0.37991  1.0000
  H   H444      1.0  0.08950  0.43792  0.36306  1.0000
  H   H445      1.0  0.06003  0.43215  0.35263  1.0000
  H   H446      1.0  0.05597  0.33805  0.32707  1.0000
  H   H447      1.0  0.06168  0.33694  0.29565  1.0000
  H   H448      1.0  0.07756  0.31720  0.31527  1.0000
  H   H449      1.0  0.13502  0.37173  0.27604  1.0000
  H   H450      1.0  0.15743  0.39260  0.28505  1.0000
  H   H451      1.0  0.16564  0.36264  0.27745  1.0000
  H   H452      1.0  0.16484  0.34948  0.40177  1.0000
  H   H453      1.0  0.14348  0.33076  0.41639  1.0000
  H   H454      1.0  0.15592  0.32194  0.38823  1.0000
  H   H455      1.0  0.14309  0.26861  0.38940  1.0000
  C   C256      1.0  0.19923  0.33573  0.03695  1.0000
  C   C257      1.0  0.17878  0.45032  0.45783  1.0000
  C   C258      1.0  0.41610  0.24539  0.07808  1.0000
  H   H456      1.0  0.13376  0.28683  0.04833  1.0000
  C   C259      1.0  0.19314  0.45799  0.43608  1.0000
  H   H457      1.0  0.34576  0.48073  0.21941  1.0000
  C   C260      1.0  0.45289  0.24274  0.33647  1.0000
  H   H458      1.0  0.37936  0.31135  0.02351  1.0000
  H   H459      1.0  0.38838  0.34372  0.05243  1.0000
  C   C261      1.0  0.01446  0.29159  0.06238  1.0000
  C   C262      1.0  0.42204  0.27035  0.30138  1.0000
  H   H460      1.0  0.28450  0.31968  0.00507  1.0000
  N   N13       1.0  0.17054  0.25411  0.45715  1.0000
  C   C263      1.0  0.17027  0.47822  0.15256  1.0000
  H   H461      1.0  0.11949  0.25987  0.07978  1.0000
  N   N14       1.0  0.31861  0.45575  0.23029  1.0000
  C   C264      1.0  0.30279  0.45228  0.25172  1.0000
  C   C265      1.0  0.07010  0.24411  0.23545  1.0000
  C   C266      1.0  0.30318  0.45402  0.20857  1.0000
  C   C267      1.0  0.33749  0.43676  0.22839  1.0000
  C   C268      1.0  0.35494  0.43442  0.24931  1.0000
  C   C269      1.0  0.28849  0.42889  0.25282  1.0000
  C   C270      1.0  0.31500  0.46067  0.18453  1.0000
  H   H462      1.0  0.21156  0.28899  0.02902  1.0000
  H   H463      1.0  0.40988  0.25901  0.15179  1.0000
  C   C271      1.0  0.37016  0.41201  0.24701  1.0000
  C   C272      1.0  0.27526  0.42658  0.27643  1.0000
  C   C273      1.0  0.29694  0.46014  0.16444  1.0000
  H   H464      1.0  0.01976  0.32657  0.03088  1.0000
  C   C274      1.0  0.39126  0.25086  0.18441  1.0000
  H   H465      1.0  0.34708  0.33032  0.05153  1.0000
  H   H466      1.0  0.00560  0.28068  0.07624  1.0000
  H   H467      1.0  0.46287  0.25939  0.16271  1.0000
  H   H468      1.0  0.29651  0.43563  0.20638  1.0000
  H   H469      1.0  0.32937  0.41914  0.22522  1.0000
  H   H470      1.0  0.34881  0.43993  0.21251  1.0000
  H   H471      1.0  0.34567  0.43334  0.26661  1.0000
  C   C275      1.0  0.38195  0.33090  0.06600  1.0000
  H   H472      1.0  0.27495  0.42856  0.23863  1.0000
  H   H473      1.0  0.30027  0.41319  0.25103  1.0000
  H   H474      1.0  0.32929  0.44788  0.17998  1.0000
  C   C276      1.0  0.99648  0.36593  0.03306  1.0000
  H   H475      1.0  0.28965  0.27225  0.08109  1.0000
  H   H476      1.0  0.39669  0.31865  0.07078  1.0000
  H   H477      1.0  0.21077  0.24883  0.07045  1.0000
  H   H478      1.0  0.19707  0.41874  0.46955  1.0000
  C   C277      1.0  0.33569  0.49061  0.25539  1.0000
  H   H479      1.0  0.38347  0.41137  0.26143  1.0000
  H   H480      1.0  0.35898  0.39589  0.24831  1.0000
  H   H481      1.0  0.37979  0.41182  0.22980  1.0000
  H   H482      1.0  0.05323  0.37185  0.05352  1.0000
  H   H483      1.0  0.05581  0.34660  0.01736  1.0000
  H   H484      1.0  0.32022  0.26457  0.08640  1.0000
  H   H485      1.0  0.11692  0.46790  0.21693  1.0000
  H   H486      1.0  0.30586  0.46482  0.14745  1.0000
  H   H487      1.0  0.29050  0.47818  0.99455  1.0000
  C   C278      1.0  0.18400  0.31467  0.02979  1.0000
  C   C279      1.0  0.16510  0.27042  0.01410  1.0000
  H   H488      1.0  0.17273  0.47227  0.24948  1.0000
  H   H489      1.0  0.36717  0.44978  0.24921  1.0000
  H   H490      1.0  0.15404  0.30046  0.06891  1.0000
  H   H491      1.0  0.35392  0.30616  0.07172  1.0000
  C   C280      1.0  0.32950  0.48026  0.23071  1.0000
  C   C281      1.0  0.02266  0.33390  0.04890  1.0000
  H   H492      1.0  0.20835  0.28730  0.44360  1.0000
  H   H493      1.0  0.20457  0.24750  0.01591  1.0000
  C   C282      1.0  0.42253  0.28588  0.27903  1.0000
  H   H494      1.0  0.18335  0.31452  0.01011  1.0000
  C   C283      1.0  0.14551  0.28363  0.06366  1.0000
  H   H495      1.0  0.41349  0.27696  0.26412  1.0000
  H   H496      1.0  0.20262  0.44258  0.42822  1.0000
  H   H497      1.0  0.17023  0.46621  0.46561  1.0000
  H   H498      1.0  0.28719  0.46541  0.21068  1.0000
  C   C284      1.0  0.01239  0.36836  0.07440  1.0000
  H   H499      1.0  0.28251  0.47325  0.16766  1.0000
  H   H500      1.0  0.45047  0.24915  0.28649  1.0000
  C   C285      1.0  0.21682  0.24573  0.05204  1.0000
  H   H501      1.0  0.43118  0.28032  0.31545  1.0000
  H   H502      1.0  0.21230  0.44502  0.47580  1.0000
  C   C286      1.0  0.37871  0.25573  0.01026  1.0000
  H   H503      1.0  0.02772  0.36332  0.08585  1.0000
  C   C287      1.0  0.23740  0.49062  0.26120  1.0000
  C   C288      1.0  0.41995  0.26556  0.09234  1.0000
  H   H504      1.0  0.03381  0.28777  0.06300  1.0000
  H   H505      1.0  0.16448  0.43837  0.45174  1.0000
  H   H506      1.0  0.19969  0.33738  0.05654  1.0000
  H   H507      1.0  0.19987  0.29321  0.05790  1.0000
  C   C289      1.0  0.19622  0.24764  0.03387  1.0000
  C   C290      1.0  0.04893  0.36506  0.01614  1.0000
  H   H508      1.0  0.37074  0.24312  0.02310  1.0000
  H   H509      1.0  0.37674  0.34089  0.08214  1.0000
  H   H510      1.0  0.16578  0.31791  0.03635  1.0000
  N   N15       1.0  0.17975  0.26879  0.03639  1.0000
  H   H511      1.0  0.21756  0.33370  0.02994  1.0000
  C   C291      1.0  0.33280  0.30723  0.01128  1.0000
  H   H512      1.0  0.18107  0.46552  0.42243  1.0000
  H   H513      1.0  0.47819  0.28196  0.35369  1.0000
  H   H514      1.0  0.08609  0.46604  0.24760  1.0000
  H   H515      1.0  0.34747  0.26332  0.05124  1.0000
  H   H516      1.0  0.44278  0.25761  0.34446  1.0000
  C   C292      1.0  0.17180  0.44772  0.22006  1.0000
  S   S70       1.0  0.35742  0.48156  0.14335  1.0000
  C   C293      1.0  0.18534  0.42927  0.23474  1.0000
  N   N16       1.0  0.01697  0.36018  0.04931  1.0000
  C   C294      1.0  0.06955  0.38082  0.00834  1.0000
  H   H517      1.0  0.12936  0.46095  0.24567  1.0000
  H   H518      1.0  0.28795  0.42538  0.29138  1.0000
  C   C295      1.0  0.47860  0.27241  0.23645  1.0000
  C   C296      1.0  0.17555  0.47308  0.22994  1.0000
  H   H519      1.0  0.17850  0.44644  0.20161  1.0000
  H   H520      1.0  0.15291  0.44267  0.21987  1.0000
  C   C297      1.0  0.34464  0.26723  0.48226  1.0000
  C   C298      1.0  0.17502  0.27984  0.46273  1.0000
  C   C299      1.0  0.16003  0.25136  0.43282  1.0000
  C   C300      1.0  0.00964  0.31784  0.06708  1.0000
  H   H521      1.0  0.19150  0.35233  0.02949  1.0000
  H   H522      1.0  0.20470  0.43275  0.23395  1.0000
  H   H523      1.0  0.17947  0.42971  0.25356  1.0000
  C   C301      1.0  0.19437  0.43711  0.47629  1.0000
  H   H524      1.0  0.26428  0.41029  0.27644  1.0000
  S   S71       1.0  0.19395  0.47821  0.34426  1.0000
  H   H525      1.0  0.00744  0.28645  0.04482  1.0000
  C   C302      1.0  0.36070  0.31710  0.05675  1.0000
  C   C303      1.0  0.99808  0.40127  0.10188  1.0000
  H   H526      1.0  0.04179  0.33088  0.05258  1.0000
  H   H527      1.0  0.32812  0.25658  0.02811  1.0000
  H   H528      1.0  0.30276  0.24731  0.06605  1.0000
  C   C304      1.0  0.33515  0.27174  0.03845  1.0000
  C   C305      1.0  0.31362  0.28197  0.05246  1.0000
  C   C306      1.0  0.25358  0.26917  0.00213  1.0000
  H   H529      1.0  0.02525  0.40506  0.07551  1.0000
  C   C307      1.0  0.99945  0.27348  0.22769  1.0000
  H   H530      1.0  0.18201  0.41126  0.22768  1.0000
  C   C308      1.0  0.12916  0.26310  0.40226  1.0000
  H   H531      1.0  0.15798  0.28947  0.46560  1.0000
  H   H532      1.0  0.19481  0.47665  0.22764  1.0000
  H   H533      1.0  0.23076  0.25895  0.04785  1.0000
  H   H534      1.0  0.11728  0.29027  0.08909  1.0000
  C   C309      1.0  0.12989  0.27582  0.08449  1.0000
  H   H535      1.0  0.39456  0.26384  0.01838  1.0000
  C   C310      1.0  0.16457  0.26464  0.05811  1.0000
  H   H536      1.0  0.99526  0.38537  0.02979  1.0000
  H   H537      1.0  0.12289  0.26168  0.43976  1.0000
  H   H538      1.0  0.06323  0.39914  0.00454  1.0000
  H   H539      1.0  0.19203  0.48028  0.18374  1.0000
  H   H540      1.0  0.18569  0.47961  0.14030  1.0000
  H   H541      1.0  0.99966  0.35827  0.01522  1.0000
  H   H542      1.0  0.14079  0.27190  0.10038  1.0000
  H   H543      1.0  0.47312  0.26025  0.11980  1.0000
  H   H544      1.0  0.17698  0.27390  0.99862  1.0000
  H   H545      1.0  0.07793  0.37356  0.99204  1.0000
  H   H546      1.0  0.17357  0.25499  0.41885  1.0000
  H   H547      1.0  0.34374  0.32053  0.00151  1.0000
  H   H548      1.0  0.99696  0.42080  0.10410  1.0000
  H   H549      1.0  0.23179  0.30280  0.48477  1.0000
  H   H550      1.0  0.39423  0.24288  0.20214  1.0000
  C   C311      1.0  0.37421  0.24712  0.08666  1.0000
  H   H551      1.0  0.14545  0.47208  0.19125  1.0000
  C   C312      1.0  0.31427  0.29764  0.99351  1.0000
  H   H552      1.0  0.08609  0.25239  0.24317  1.0000
  H   H553      1.0  0.19809  0.32271  0.46856  1.0000
  H   H554      1.0  0.01597  0.32170  0.08524  1.0000
  C   C313      1.0  0.17635  0.48959  0.17626  1.0000
  H   H555      1.0  0.20627  0.47171  0.44089  1.0000
  C   C314      1.0  0.43379  0.24598  0.29660  1.0000
  H   H556      1.0  0.40317  0.26789  0.30636  1.0000
  C   C315      1.0  0.24524  0.48751  0.23765  1.0000
  S   S72       1.0  0.15580  0.48693  0.30055  1.0000
  H   H557      1.0  0.20279  0.24393  0.47515  1.0000
  H   H558      1.0  0.14795  0.43856  0.48949  1.0000
  H   H559      1.0  0.33146  0.25960  0.46992  1.0000
  H   H560      1.0  0.10087  0.48810  0.26493  1.0000
  C   C316      1.0  0.09774  0.48184  0.24658  1.0000
  H   H561      1.0  0.15569  0.24711  0.05719  1.0000
  C   C317      1.0  0.48275  0.24824  0.13216  1.0000
  C   C318      1.0  0.15003  0.24838  0.00809  1.0000
  C   C319      1.0  0.41423  0.25056  0.16913  1.0000
  H   H562      1.0  0.15489  0.48743  0.14432  1.0000
  C   C320      1.0  0.15492  0.48907  0.19367  1.0000
  H   H563      1.0  0.36047  0.25544  0.48302  1.0000
  C   C321      1.0  0.15319  0.24445  0.47522  1.0000
  H   H564      1.0  0.12462  0.24421  0.39924  1.0000
  H   H565      1.0  0.19943  0.48534  0.48733  1.0000
  H   H566      1.0  0.13733  0.24429  0.02260  1.0000
  C   C322      1.0  0.18343  0.46044  0.51285  1.0000
  Fe  Fe37      1.0  0.31868  0.47380  0.78673  1.0000
  H   H567      1.0  0.03315  0.34921  0.91428  1.0000
  H   H568      1.0  0.01682  0.30969  0.90093  1.0000
  Fe  Fe38      1.0  0.36452  0.45268  0.80926  1.0000
  S   S73       1.0  0.35366  0.46544  0.84543  1.0000
  S   S74       1.0  0.40045  0.43617  0.79829  1.0000
  Fe  Fe39      1.0  0.31671  0.45216  0.83684  1.0000
  S   S75       1.0  0.29862  0.42715  0.86429  1.0000
  H   H569      1.0  0.47822  0.45266  0.78693  1.0000
  S   S76       1.0  0.32843  0.43762  0.80135  1.0000
  H   H570      1.0  0.40144  0.27124  0.74550  1.0000
  H   H571      1.0  0.19388  0.33026  0.85216  1.0000
  S   S77       1.0  0.14350  0.31277  0.96143  1.0000
  Fe  Fe40      1.0  0.18186  0.36244  0.93111  1.0000
  S   S78       1.0  0.17438  0.32698  0.91439  1.0000
  S   S79       1.0  0.19873  0.39338  0.90956  1.0000
  Fe  Fe41      1.0  0.13657  0.33176  0.92676  1.0000
  S   S80       1.0  0.10539  0.31944  0.90378  1.0000
  Fe  Fe42      1.0  0.18195  0.31104  0.95039  1.0000
  S   S81       1.0  0.20093  0.27499  0.95271  1.0000
  S   S82       1.0  0.14330  0.36785  0.94186  1.0000
  H   H572      1.0  0.22708  0.44110  0.53063  1.0000
  C   C323      1.0  0.11501  0.31109  0.83365  1.0000
  C   C324      1.0  0.39059  0.34568  0.83011  1.0000
  S   S83       1.0  0.01949  0.36539  0.84475  1.0000
  C   C325      1.0  0.23953  0.24742  0.50756  1.0000
  H   H573      1.0  0.46898  0.24753  0.82481  1.0000
  S   S84       1.0  0.18847  0.35171  0.51871  1.0000
  Fe  Fe43      1.0  0.13436  0.31933  0.54871  1.0000
  S   S85       1.0  0.17032  0.32199  0.56544  1.0000
  S   S86       1.0  0.10194  0.30218  0.56714  1.0000
  Fe  Fe44      1.0  0.17039  0.36044  0.55363  1.0000
  S   S87       1.0  0.18514  0.39147  0.57553  1.0000
  Fe  Fe45      1.0  0.18476  0.31311  0.52905  1.0000
  S   S88       1.0  0.21056  0.28141  0.52742  1.0000
  S   S89       1.0  0.13357  0.35845  0.53903  1.0000
  S   S90       1.0  0.14858  0.30936  0.51269  1.0000
  H   H574      1.0  0.12864  0.24777  0.51867  1.0000
  C   C326      1.0  0.09618  0.27374  0.58026  1.0000
  H   H575      1.0  0.30746  0.29681  0.53941  1.0000
  H   H576      1.0  0.04441  0.32203  0.92682  1.0000
  H   H577      1.0  0.13037  0.25831  0.57292  1.0000
  H   H578      1.0  0.04616  0.28665  0.71025  1.0000
  H   H579      1.0  0.00479  0.35008  0.95174  1.0000
  H   H580      1.0  0.48529  0.35988  0.73146  1.0000
  H   H581      1.0  0.14766  0.25643  0.97031  1.0000
  C   C327      1.0  0.22268  0.35453  0.85498  1.0000
  H   H582      1.0  0.33719  0.48541  0.94941  1.0000
  C   C328      1.0  0.29301  0.26038  0.54350  1.0000
  N   N17       1.0  0.31855  0.48800  0.91590  1.0000
  H   H583      1.0  0.06151  0.26416  0.75934  1.0000
  H   H584      1.0  0.30147  0.45391  0.91050  1.0000
  C   C329      1.0  0.22549  0.42520  0.51926  1.0000
  C   C330      1.0  0.08132  0.33288  0.88815  1.0000
  C   C331      1.0  0.06504  0.31813  0.87655  1.0000
  C   C332      1.0  0.04596  0.32774  0.86345  1.0000
  C   C333      1.0  0.04294  0.35232  0.86159  1.0000
  C   C334      1.0  0.05925  0.36711  0.87314  1.0000
  C   C335      1.0  0.07821  0.35749  0.88648  1.0000
  H   H585      1.0  0.06732  0.29908  0.87757  1.0000
  H   H586      1.0  0.03380  0.31614  0.85446  1.0000
  H   H587      1.0  0.05714  0.38616  0.87183  1.0000
  H   H588      1.0  0.09048  0.36910  0.89532  1.0000
  C   C336      1.0  0.22463  0.26442  0.97069  1.0000
  H   H589      1.0  0.45152  0.29217  0.74802  1.0000
  C   C337      1.0  0.42129  0.41668  0.81218  1.0000
  C   C338      1.0  0.44225  0.41061  0.79984  1.0000
  C   C339      1.0  0.45941  0.39537  0.81002  1.0000
  C   C340      1.0  0.45566  0.38554  0.83254  1.0000
  C   C341      1.0  0.43480  0.39169  0.84494  1.0000
  C   C342      1.0  0.41774  0.40717  0.83488  1.0000
  H   H590      1.0  0.44520  0.41782  0.78227  1.0000
  H   H591      1.0  0.47541  0.39101  0.80034  1.0000
  H   H592      1.0  0.43170  0.38429  0.86241  1.0000
  H   H593      1.0  0.40175  0.41160  0.84462  1.0000
  C   C343      1.0  0.27043  0.41780  0.87604  1.0000
  C   C344      1.0  0.24908  0.42955  0.87092  1.0000
  C   C345      1.0  0.22749  0.42182  0.88132  1.0000
  C   C346      1.0  0.22672  0.40211  0.89686  1.0000
  C   C347      1.0  0.24803  0.39024  0.90179  1.0000
  C   C348      1.0  0.26963  0.39809  0.89156  1.0000
  H   H594      1.0  0.24920  0.44470  0.85907  1.0000
  H   H595      1.0  0.21123  0.43124  0.87730  1.0000
  H   H596      1.0  0.24792  0.37507  0.91362  1.0000
  H   H597      1.0  0.28588  0.38870  0.89566  1.0000
  C   C349      1.0  0.15372  0.45967  0.61002  1.0000
  C   C350      1.0  0.17813  0.45493  0.61024  1.0000
  C   C351      1.0  0.18732  0.43414  0.59949  1.0000
  C   C352      1.0  0.17237  0.41770  0.58834  1.0000
  C   C353      1.0  0.14800  0.42259  0.58782  1.0000
  C   C354      1.0  0.13881  0.44338  0.59855  1.0000
  H   H598      1.0  0.18991  0.46712  0.61897  1.0000
  H   H599      1.0  0.20618  0.43063  0.60013  1.0000
  H   H600      1.0  0.13616  0.41018  0.57949  1.0000
  H   H601      1.0  0.11991  0.44673  0.59823  1.0000
  C   C355      1.0  0.04925  0.25909  0.67094  1.0000
  H   H602      1.0  0.01821  0.27830  0.68537  1.0000
  H   H603      1.0  0.01059  0.28137  0.86914  1.0000
  H   H604      1.0  0.29885  0.28892  0.56910  1.0000
  H   H605      1.0  0.23050  0.40164  0.54969  1.0000
  C   C356      1.0  0.00195  0.30401  0.91264  1.0000
  H   H606      1.0  0.09699  0.31753  0.62208  1.0000
  C   C357      1.0  0.44949  0.34079  0.77846  1.0000
  H   H607      1.0  0.00783  0.41702  0.74109  1.0000
  H   H608      1.0  0.16612  0.46937  0.50926  1.0000
  C   C358      1.0  0.27025  0.29943  0.54652  1.0000
  C   C359      1.0  0.19753  0.34893  0.84691  1.0000
  S   S91       1.0  0.47608  0.36509  0.84568  1.0000
  C   C360      1.0  0.29957  0.48458  0.95765  1.0000
  C   C361      1.0  0.46105  0.30322  0.79758  1.0000
  C   C362      1.0  0.23058  0.27071  0.50545  1.0000
  C   C363      1.0  0.13567  0.25260  0.98555  1.0000
  C   C364      1.0  0.06021  0.27274  0.71016  1.0000
  H   H609      1.0  0.22080  0.47092  0.50580  1.0000
  H   H610      1.0  0.00270  0.26421  0.78318  1.0000
  H   H611      1.0  0.47582  0.25518  0.79450  1.0000
  C   C365      1.0  0.46533  0.33808  0.75623  1.0000
  H   H612      1.0  0.32618  0.45912  0.89197  1.0000
  H   H613      1.0  0.16967  0.25863  0.50750  1.0000
  C   C366      1.0  0.33374  0.27034  0.50690  1.0000
  H   H614      1.0  0.41854  0.30951  0.82032  1.0000
  H   H615      1.0  0.28103  0.48560  0.70419  1.0000
  H   H616      1.0  0.01360  0.32044  0.95675  1.0000
  C   C367      1.0  0.42658  0.32537  0.81170  1.0000
  N   N18       1.0  0.15477  0.36622  0.84754  1.0000
  C   C368      1.0  0.17905  0.36571  0.85865  1.0000
  C   C369      1.0  0.13796  0.37941  0.86380  1.0000
  C   C370      1.0  0.14607  0.34092  0.84623  1.0000
  C   C371      1.0  0.15492  0.37694  0.82291  1.0000
  C   C372      1.0  0.17316  0.39695  0.81782  1.0000
  H   H617      1.0  0.40144  0.35060  0.84568  1.0000
  H   H618      1.0  0.19691  0.35018  0.82730  1.0000
  C   C373      1.0  0.14344  0.40582  0.86852  1.0000
  C   C374      1.0  0.12711  0.41576  0.88780  1.0000
  C   C375      1.0  0.16845  0.40894  0.79394  1.0000
  H   H619      1.0  0.45540  0.32965  0.74169  1.0000
  H   H620      1.0  0.17764  0.36023  0.87752  1.0000
  H   H621      1.0  0.18687  0.38367  0.85933  1.0000
  H   H622      1.0  0.11971  0.37954  0.85658  1.0000
  H   H623      1.0  0.13686  0.37005  0.88128  1.0000
  H   H624      1.0  0.14636  0.33247  0.86419  1.0000
  H   H625      1.0  0.15807  0.33007  0.83491  1.0000
  H   H626      1.0  0.15869  0.36303  0.80943  1.0000
  H   H627      1.0  0.13692  0.38388  0.81853  1.0000
  H   H628      1.0  0.19143  0.38954  0.81715  1.0000
  H   H629      1.0  0.17296  0.41084  0.83155  1.0000
  C   C376      1.0  0.00125  0.45163  0.72536  1.0000
  H   H630      1.0  0.23021  0.29705  0.98927  1.0000
  H   H631      1.0  0.11941  0.34561  0.81794  1.0000
  H   H632      1.0  0.00252  0.37623  0.91849  1.0000
  H   H633      1.0  0.16188  0.40851  0.87449  1.0000
  H   H634      1.0  0.14022  0.41645  0.85223  1.0000
  H   H635      1.0  0.45772  0.37306  0.74120  1.0000
  H   H636      1.0  0.13018  0.40634  0.90487  1.0000
  H   H637      1.0  0.13093  0.43486  0.89044  1.0000
  H   H638      1.0  0.15075  0.41768  0.79395  1.0000
  H   H639      1.0  0.18210  0.42270  0.79051  1.0000
  H   H640      1.0  0.16934  0.39577  0.77938  1.0000
  H   H641      1.0  0.43991  0.27007  0.76738  1.0000
  H   H642      1.0  0.43460  0.35252  0.77286  1.0000
  H   H643      1.0  0.47164  0.29688  0.78225  1.0000
  H   H644      1.0  0.49110  0.26960  0.81843  1.0000
  Fe  Fe46      1.0  0.15234  0.34853  0.97591  1.0000
  C   C377      1.0  0.09129  0.31780  0.64098  1.0000
  H   H645      1.0  0.99594  0.34316  0.89169  1.0000
  H   H646      1.0  0.11157  0.43388  0.51302  1.0000
  H   H647      1.0  0.47372  0.31415  0.80789  1.0000
  H   H648      1.0  0.25294  0.48746  0.88292  1.0000
  C   C378      1.0  0.00023  0.25816  0.76522  1.0000
  C   C379      1.0  0.19903  0.41915  0.51573  1.0000
  C   C380      1.0  0.46018  0.47556  0.81113  1.0000
  H   H649      1.0  0.25738  0.40966  0.53437  1.0000
  H   H650      1.0  0.28351  0.25907  0.52635  1.0000
  H   H651      1.0  0.11200  0.41376  0.53796  1.0000
  S   S92       1.0  0.30179  0.47861  0.75011  1.0000
  H   H652      1.0  0.00347  0.24767  0.65778  1.0000
  H   H653      1.0  0.43879  0.33301  0.82513  1.0000
  H   H654      1.0  0.33768  0.27567  0.55560  1.0000
  C   C381      1.0  0.40616  0.34360  0.80797  1.0000
  H   H655      1.0  0.40950  0.29624  0.78307  1.0000
  H   H656      1.0  0.06537  0.30627  0.67877  1.0000
  C   C382      1.0  0.03509  0.33895  0.93097  1.0000
  H   H657      1.0  0.10821  0.41391  0.88273  1.0000
  C   C383      1.0  0.45458  0.28150  0.81337  1.0000
  C   C384      1.0  0.05110  0.35274  0.94768  1.0000
  C   C385      1.0  0.33463  0.44562  0.92699  1.0000
  C   C386      1.0  0.33743  0.42074  0.91670  1.0000
  N   N19       1.0  0.44028  0.31827  0.78970  1.0000
  H   H658      1.0  0.34667  0.42147  0.89926  1.0000
  C   C387      1.0  0.12089  0.33742  0.83581  1.0000
  H   H659      1.0  0.48947  0.26966  0.63447  1.0000
  H   H660      1.0  0.23547  0.34205  0.84659  1.0000
  H   H661      1.0  0.12751  0.30216  0.82128  1.0000
  H   H662      1.0  0.07200  0.28560  0.63775  1.0000
  S   S93       1.0  0.19151  0.34616  0.96664  1.0000
  H   H663      1.0  0.44304  0.46664  0.80774  1.0000
  H   H664      1.0  0.08556  0.29857  0.72431  1.0000
  H   H665      1.0  0.37854  0.27547  0.57059  1.0000
  H   H666      1.0  0.48293  0.37213  0.76079  1.0000
  C   C388      1.0  0.33379  0.25684  0.55971  1.0000
  C   C389      1.0  0.02743  0.27576  0.66815  1.0000
  H   H667      1.0  0.09386  0.26812  0.72983  1.0000
  C   C390      1.0  0.99778  0.27231  0.88111  1.0000
  H   H668      1.0  0.22765  0.37291  0.84984  1.0000
  H   H669      1.0  0.32591  0.25685  0.57789  1.0000
  H   H670      1.0  0.99787  0.46238  0.74140  1.0000
  H   H671      1.0  0.35256  0.45272  0.93005  1.0000
  H   H672      1.0  0.10263  0.28214  0.64665  1.0000
  C   C391      1.0  0.47955  0.25779  0.70898  1.0000
  H   H673      1.0  0.27114  0.31800  0.55291  1.0000
  C   C392      1.0  0.06746  0.28201  0.75345  1.0000
  C   C393      1.0  0.12039  0.41791  0.52058  1.0000
  H   H674      1.0  0.26566  0.29990  0.52743  1.0000
  C   C394      1.0  0.23847  0.40494  0.53193  1.0000
  C   C395      1.0  0.08932  0.25033  0.68694  1.0000
  C   C396      1.0  0.14686  0.42234  0.52403  1.0000
  C   C397      1.0  0.15964  0.42651  0.49993  1.0000
  H   H675      1.0  0.39722  0.25338  0.97632  1.0000
  H   H676      1.0  0.36748  0.25867  0.59581  1.0000
  H   H677      1.0  0.22404  0.35255  0.87453  1.0000
  H   H678      1.0  0.48148  0.32766  0.76039  1.0000
  C   C398      1.0  0.02758  0.45400  0.71922  1.0000
  C   C399      1.0  0.06822  0.24731  0.60111  1.0000
  C   C400      1.0  0.08609  0.29251  0.64933  1.0000
  H   H679      1.0  0.04331  0.37042  0.95165  1.0000
  C   C401      1.0  0.37500  0.25738  0.57762  1.0000
  C   C402      1.0  0.48613  0.28169  0.71158  1.0000
  H   H680      1.0  0.05167  0.25630  0.71706  1.0000
  H   H681      1.0  0.14869  0.43774  0.53600  1.0000
  H   H682      1.0  0.19168  0.41760  0.53393  1.0000
  H   H683      1.0  0.10578  0.32567  0.65156  1.0000
  H   H684      1.0  0.31979  0.41243  0.91431  1.0000
  C   C403      1.0  0.20274  0.47864  0.50555  1.0000
  C   C404      1.0  0.23566  0.27872  0.98746  1.0000
  H   H685      1.0  0.11592  0.30226  0.85130  1.0000
  H   H686      1.0  0.18393  0.45832  0.53253  1.0000
  S   S94       1.0  0.46254  0.24951  0.68389  1.0000
  C   C405      1.0  0.01056  0.33380  0.94242  1.0000
  H   H687      1.0  0.01719  0.26323  0.63318  1.0000
  H   H688      1.0  0.45983  0.35085  0.79175  1.0000
  H   H689      1.0  0.31818  0.28229  0.50486  1.0000
  C   C406      1.0  0.11305  0.25540  0.58070  1.0000
  H   H690      1.0  0.06870  0.35541  0.93917  1.0000
  H   H691      1.0  0.47889  0.44322  0.81766  1.0000
  S   S95       1.0  0.14080  0.48539  0.62374  1.0000
  C   C407      1.0  0.47383  0.26233  0.81270  1.0000
  H   H692      1.0  0.37698  0.35975  0.82733  1.0000
  C   C408      1.0  0.43516  0.28607  0.75685  1.0000
  H   H693      1.0  0.43765  0.27336  0.80785  1.0000
  H   H694      1.0  0.32304  0.29361  0.97631  1.0000
  H   H695      1.0  0.41347  0.36153  0.80438  1.0000
  H   H696      1.0  0.11763  0.40263  0.50857  1.0000
  C   C409      1.0  0.42387  0.30541  0.77303  1.0000
  H   H697      1.0  0.03263  0.29332  0.66093  1.0000
  H   H698      1.0  0.38141  0.32868  0.83384  1.0000
  H   H699      1.0  0.03872  0.44730  0.73402  1.0000
  C   C410      1.0  0.41805  0.27828  0.73755  1.0000
  C   C411      1.0  0.30619  0.48356  0.98386  1.0000
  H   H700      1.0  0.07516  0.32911  0.64239  1.0000
  H   H701      1.0  0.09671  0.30912  0.82681  1.0000
  H   H702      1.0  0.28221  0.30862  0.97532  1.0000
  C   C412      1.0  0.47327  0.36231  0.74692  1.0000
  H   H703      1.0  0.25601  0.29014  0.55654  1.0000
  H   H704      1.0  0.39472  0.33852  0.79292  1.0000
  N   N20       1.0  0.06954  0.26860  0.68535  1.0000
  H   H705      1.0  0.12314  0.26770  0.98793  1.0000
  H   H706      1.0  0.03197  0.44396  0.70287  1.0000
  H   H707      1.0  0.45243  0.28733  0.83206  1.0000
  C   C413      1.0  0.99447  0.42535  0.72917  1.0000
  Fe  Fe47      1.0  0.15145  0.34863  0.50448  1.0000
  H   H708      1.0  0.41376  0.29338  0.72554  1.0000
  H   H709      1.0  0.34801  0.40943  0.92891  1.0000
  H   H710      1.0  0.46053  0.48060  0.83011  1.0000
  H   H711      1.0  0.34724  0.27891  0.51811  1.0000
  H   H712      1.0  0.09458  0.29756  0.68579  1.0000
  H   H713      1.0  0.48101  0.29448  0.69815  1.0000
  H   H714      1.0  0.05508  0.25438  0.65277  1.0000
  H   H715      1.0  0.10708  0.34527  0.84735  1.0000
  C   C414      1.0  0.48064  0.45857  0.80545  1.0000
  C   C415      1.0  0.00937  0.26524  0.65118  1.0000
  H   H716      1.0  0.00742  0.25922  0.89232  1.0000
  C   C416      1.0  0.07868  0.28067  0.72876  1.0000
  H   H717      1.0  0.41442  0.31842  0.76145  1.0000
  H   H718      1.0  0.06048  0.28337  0.59018  1.0000
  H   H719      1.0  0.32586  0.44370  0.94452  1.0000
  H   H720      1.0  0.15436  0.40647  0.53303  1.0000
  H   H721      1.0  0.42645  0.26405  0.72678  1.0000
  C   C417      1.0  0.07867  0.29191  0.67578  1.0000
  H   H722      1.0  0.03190  0.47296  0.71608  1.0000
  N   N21       1.0  0.31624  0.24667  0.54242  1.0000
  C   C418      1.0  0.07375  0.26944  0.59053  1.0000
  H   H723      1.0  0.05382  0.34266  0.96443  1.0000
  H   H724      1.0  0.00967  0.29095  0.92540  1.0000
  C   C419      1.0  0.29415  0.28709  0.55010  1.0000
  H   H725      1.0  0.08068  0.28853  0.76634  1.0000
  H   H726      1.0  0.10638  0.25902  0.69143  1.0000
  H   H727      1.0  0.05081  0.24433  0.60859  1.0000
  C   C420      1.0  0.31958  0.46177  0.91039  1.0000
  H   H728      1.0  0.05200  0.29434  0.75349  1.0000
  H   H729      1.0  0.28078  0.25243  0.55694  1.0000
  H   H730      1.0  0.36743  0.47603  0.90286  1.0000
  C   C421      1.0  0.29467  0.31583  0.98861  1.0000
  S   S96       1.0  0.35572  0.48776  0.79166  1.0000
  H   H731      1.0  0.29520  0.47942  0.87337  1.0000
  S   S97       1.0  0.30522  0.48770  0.82164  1.0000
  H   H732      1.0  0.09556  0.24482  0.64844  1.0000
  H   H733      1.0  0.30229  0.33255  0.98146  1.0000
  H   H734      1.0  0.23764  0.38837  0.52141  1.0000
  C   C422      1.0  0.32580  0.24625  0.51740  1.0000
  H   H735      1.0  0.99367  0.27714  0.64991  1.0000
  H   H736      1.0  0.99733  0.41668  0.71175  1.0000
  H   H737      1.0  0.00032  0.42681  0.77872  1.0000
  H   H738      1.0  0.29334  0.46679  0.95225  1.0000
  N   N22       1.0  0.18447  0.43636  0.50120  1.0000
  H   H739      1.0  0.32056  0.47033  0.98688  1.0000
  C   C423      1.0  0.35811  0.24406  0.56140  1.0000
  H   H740      1.0  0.36669  0.24282  0.54374  1.0000
  H   H741      1.0  0.23479  0.42828  0.50219  1.0000
  H   H742      1.0  0.39214  0.24761  0.57871  1.0000
  H   H743      1.0  0.46104  0.49174  0.79983  1.0000
  H   H744      1.0  0.19803  0.40111  0.50788  1.0000
  H   H745      1.0  0.28013  0.48789  0.91630  1.0000
  H   H746      1.0  0.04288  0.24209  0.67892  1.0000
  H   H747      1.0  0.36900  0.28702  0.98989  1.0000
  H   H748      1.0  0.31713  0.49359  0.22276  1.0000
  S   S98       1.0  0.19566  0.65437  0.47111  1.0000
  Fe  Fe48      1.0  0.14662  0.69119  0.43823  1.0000
  S   S99       1.0  0.18198  0.68177  0.42169  1.0000
  S   S100      1.0  0.11483  0.70770  0.41799  1.0000
  Fe  Fe49      1.0  0.17722  0.64498  0.43709  1.0000
  S   S101      1.0  0.18946  0.60934  0.42128  1.0000
  Fe  Fe50      1.0  0.19735  0.69189  0.45719  1.0000
  S   S102      1.0  0.23276  0.71176  0.45722  1.0000
  S   S103      1.0  0.14106  0.65354  0.45141  1.0000
  H   H749      1.0  0.48380  0.72666  0.32885  1.0000
  H   H750      1.0  0.25644  0.71979  0.12482  1.0000
  Fe  Fe51      1.0  0.15369  0.66815  0.00685  1.0000
  S   S104      1.0  0.01628  0.64913  0.13730  1.0000
  Fe  Fe52      1.0  0.31374  0.56173  0.14121  1.0000
  S   S105      1.0  0.32053  0.57928  0.17617  1.0000
  S   S106      1.0  0.29754  0.58236  0.10935  1.0000
  Fe  Fe53      1.0  0.34369  0.51753  0.15681  1.0000
  S   S107      1.0  0.35198  0.53309  0.19235  1.0000
  Fe  Fe54      1.0  0.31320  0.54354  0.19301  1.0000
  S   S108      1.0  0.29190  0.54227  0.22790  1.0000
  Fe  Fe55      1.0  0.35867  0.56735  0.17243  1.0000
  S   S109      1.0  0.38730  0.59489  0.18154  1.0000
  S   S110      1.0  0.30439  0.52638  0.15816  1.0000
  S   S111      1.0  0.35238  0.55123  0.13683  1.0000
  C   C424      1.0  0.23005  0.73980  0.99773  1.0000
  S   S112      1.0  0.14080  0.70345  0.01961  1.0000
  Fe  Fe56      1.0  0.17833  0.65673  0.05482  1.0000
  S   S113      1.0  0.16592  0.69175  0.06980  1.0000
  S   S114      1.0  0.19844  0.63334  0.08219  1.0000
  Fe  Fe57      1.0  0.13050  0.68440  0.05345  1.0000
  S   S115      1.0  0.09497  0.69660  0.06979  1.0000
  Fe  Fe58      1.0  0.17723  0.70760  0.03474  1.0000
  C   C425      1.0  0.13781  0.58961  0.46286  1.0000
  S   S116      1.0  0.14183  0.64846  0.03999  1.0000
  S   S117      1.0  0.19124  0.67316  0.02049  1.0000
  H   H751      1.0  0.08843  0.49591  0.23631  1.0000
  S   S118      1.0  0.14313  0.52865  0.35649  1.0000
  C   C426      1.0  0.22166  0.72495  0.08719  1.0000
  H   H752      1.0  0.16523  0.53050  0.21159  1.0000
  N   N23       1.0  0.04692  0.72601  0.16705  1.0000
  H   H753      1.0  0.12743  0.73753  0.31396  1.0000
  C   C427      1.0  0.41645  0.60264  0.17156  1.0000
  C   C428      1.0  0.42765  0.59162  0.15229  1.0000
  C   C429      1.0  0.44968  0.60011  0.14375  1.0000
  C   C430      1.0  0.46103  0.61948  0.15448  1.0000
  C   C431      1.0  0.45035  0.62977  0.17438  1.0000
  C   C432      1.0  0.42817  0.62153  0.18269  1.0000
  H   H754      1.0  0.41914  0.57689  0.14368  1.0000
  H   H755      1.0  0.45773  0.59195  0.12836  1.0000
  H   H756      1.0  0.45877  0.64463  0.18287  1.0000
  H   H757      1.0  0.41981  0.63015  0.19766  1.0000
  C   C433      1.0  0.27038  0.52243  0.23991  1.0000
  H   H758      1.0  0.46309  0.72686  0.25534  1.0000
  C   C434      1.0  0.26236  0.52568  0.26336  1.0000
  H   H759      1.0  0.07287  0.72109  0.39210  1.0000
  H   H760      1.0  0.26911  0.54035  0.27353  1.0000
  C   C435      1.0  0.26980  0.59652  0.10234  1.0000
  C   C436      1.0  0.26765  0.60916  0.08077  1.0000
  C   C437      1.0  0.24608  0.62034  0.07419  1.0000
  C   C438      1.0  0.22615  0.61904  0.08906  1.0000
  C   C439      1.0  0.22835  0.60651  0.11067  1.0000
  C   C440      1.0  0.24996  0.59547  0.11733  1.0000
  H   H761      1.0  0.28274  0.61004  0.06890  1.0000
  H   H762      1.0  0.24478  0.62967  0.05746  1.0000
  H   H763      1.0  0.21315  0.60525  0.12237  1.0000
  H   H764      1.0  0.25113  0.58584  0.13393  1.0000
  C   C441      1.0  0.24034  0.68750  0.07596  1.0000
  C   C442      1.0  0.03747  0.66179  0.11735  1.0000
  C   C443      1.0  0.06006  0.65120  0.11511  1.0000
  C   C444      1.0  0.07767  0.66116  0.10020  1.0000
  C   C445      1.0  0.07301  0.68207  0.08750  1.0000
  C   C446      1.0  0.05038  0.69257  0.08966  1.0000
  C   C447      1.0  0.03266  0.68238  0.10423  1.0000
  H   H765      1.0  0.06400  0.63520  0.12505  1.0000
  H   H766      1.0  0.09495  0.65284  0.09881  1.0000
  H   H767      1.0  0.04646  0.70862  0.07980  1.0000
  H   H768      1.0  0.01526  0.69042  0.10531  1.0000
  H   H769      1.0  0.37789  0.66261  0.13415  1.0000
  H   H770      1.0  0.30621  0.72634  0.11304  1.0000
  H   H771      1.0  0.34052  0.52717  0.24375  1.0000
  C   C448      1.0  0.17593  0.58691  0.40374  1.0000
  C   C449      1.0  0.18989  0.56771  0.39577  1.0000
  C   C450      1.0  0.18020  0.54966  0.38155  1.0000
  C   C451      1.0  0.15631  0.55056  0.37500  1.0000
  C   C452      1.0  0.14226  0.56962  0.38324  1.0000
  C   C453      1.0  0.15193  0.58760  0.39758  1.0000
  H   H772      1.0  0.20846  0.56689  0.40040  1.0000
  H   H773      1.0  0.19129  0.53521  0.37540  1.0000
  H   H774      1.0  0.12373  0.57046  0.37845  1.0000
  H   H775      1.0  0.14084  0.60194  0.40387  1.0000
  C   C454      1.0  0.28151  0.69778  0.10531  1.0000
  H   H776      1.0  0.14215  0.50289  0.18740  1.0000
  H   H777      1.0  0.15010  0.60387  0.45743  1.0000
  N   N24       1.0  0.37012  0.63140  0.11322  1.0000
  C   C455      1.0  0.34776  0.62529  0.12678  1.0000
  C   C456      1.0  0.36453  0.64417  0.09027  1.0000
  C   C457      1.0  0.36267  0.67168  0.09108  1.0000
  C   C458      1.0  0.36977  0.59137  0.09024  1.0000
  C   C459      1.0  0.33104  0.64619  0.13319  1.0000
  C   C460      1.0  0.31076  0.63818  0.14936  1.0000
  C   C461      1.0  0.35044  0.68156  0.06900  1.0000
  H   H778      1.0  0.01959  0.65558  0.20471  1.0000
  H   H779      1.0  0.33659  0.61303  0.11650  1.0000
  H   H780      1.0  0.35230  0.61552  0.14344  1.0000
  H   H781      1.0  0.37838  0.64028  0.07664  1.0000
  H   H782      1.0  0.34773  0.63711  0.08281  1.0000
  H   H783      1.0  0.38061  0.67959  0.09186  1.0000
  H   H784      1.0  0.35279  0.67810  0.10669  1.0000
  H   H785      1.0  0.36533  0.60047  0.07335  1.0000
  H   H786      1.0  0.35311  0.58439  0.09795  1.0000
  H   H787      1.0  0.34049  0.66043  0.14262  1.0000
  H   H788      1.0  0.32288  0.65342  0.11679  1.0000
  H   H789      1.0  0.29847  0.65327  0.15266  1.0000
  H   H790      1.0  0.30056  0.62367  0.14106  1.0000
  H   H791      1.0  0.31780  0.63191  0.16666  1.0000
  H   H792      1.0  0.36020  0.67610  0.05275  1.0000
  H   H793      1.0  0.33188  0.67512  0.06807  1.0000
  H   H794      1.0  0.35005  0.70125  0.06968  1.0000
  H   H795      1.0  0.37551  0.55757  0.07280  1.0000
  C   C462      1.0  0.26836  0.73959  0.47502  1.0000
  C   C463      1.0  0.38259  0.60824  0.10766  1.0000
  H   H796      1.0  0.36740  0.50935  0.24342  1.0000
  C   C464      1.0  0.15739  0.51570  0.45395  1.0000
  H   H797      1.0  0.09891  0.72449  0.17052  1.0000
  H   H798      1.0  0.41382  0.68780  0.12890  1.0000
  C   C465      1.0  0.47101  0.52935  0.14706  1.0000
  H   H799      1.0  0.10977  0.70133  0.13417  1.0000
  H   H800      1.0  0.41131  0.65466  0.10027  1.0000
  C   C466      1.0  0.38608  0.64543  0.12924  1.0000
  C   C467      1.0  0.25059  0.69873  0.05292  1.0000
  S   S119      1.0  0.16216  0.70262  0.47329  1.0000
  H   H801      1.0  0.04174  0.67296  0.21938  1.0000
  H   H802      1.0  0.22385  0.72190  0.99513  1.0000
  C   C468      1.0  0.46974  0.73913  0.36188  1.0000
  H   H803      1.0  0.00986  0.73436  0.16150  1.0000
  C   C469      1.0  0.26023  0.67982  0.03610  1.0000
  H   H804      1.0  0.09948  0.58458  0.46318  1.0000
  C   C470      1.0  0.42317  0.67080  0.13259  1.0000
  H   H805      1.0  0.19214  0.51382  0.21152  1.0000
  H   H806      1.0  0.24913  0.67710  0.13920  1.0000
  H   H807      1.0  0.21005  0.66970  0.15810  1.0000
  N   N25       1.0  0.23646  0.70441  0.09629  1.0000
  H   H808      1.0  0.27801  0.67975  0.11226  1.0000
  C   C471      1.0  0.22225  0.69185  0.11531  1.0000
  H   H809      1.0  0.33396  0.73563  0.00379  1.0000
  C   C472      1.0  0.17168  0.55064  0.47784  1.0000
  H   H810      1.0  0.24162  0.65757  0.11521  1.0000
  H   H811      1.0  0.10315  0.73044  0.33357  1.0000
  H   H812      1.0  0.22632  0.64252  0.15305  1.0000
  C   C473      1.0  0.23448  0.67065  0.12793  1.0000
  C   C474      1.0  0.21711  0.65763  0.14425  1.0000
  H   H813      1.0  0.38602  0.59813  0.12435  1.0000
  H   H814      1.0  0.39092  0.56039  0.10049  1.0000
  H   H815      1.0  0.26450  0.73065  0.09648  1.0000
  Fe  Fe59      1.0  0.15968  0.66405  0.48495  1.0000
  C   C475      1.0  0.17480  0.51580  0.22086  1.0000
  H   H816      1.0  0.21744  0.70414  0.12986  1.0000
  H   H817      1.0  0.20516  0.68550  0.10780  1.0000
  H   H818      1.0  0.13459  0.53776  0.47459  1.0000
  C   C476      1.0  0.30164  0.70837  0.11977  1.0000
  C   C477      1.0  0.24445  0.73287  0.47733  1.0000
  H   H819      1.0  0.11021  0.60492  0.44090  1.0000
  C   C478      1.0  0.02562  0.67395  0.20821  1.0000
  H   H820      1.0  0.28796  0.69584  0.08681  1.0000
  H   H821      1.0  0.40022  0.61154  0.09948  1.0000
  H   H822      1.0  0.20338  0.54983  0.26384  1.0000
  C   C479      1.0  0.25926  0.71415  0.10612  1.0000
  H   H823      1.0  0.48723  0.55202  0.17233  1.0000
  H   H824      1.0  0.19284  0.55968  0.23526  1.0000
  C   C480      1.0  0.38548  0.57003  0.08415  1.0000
  H   H825      1.0  0.01437  0.68647  0.17428  1.0000
  H   H826      1.0  0.20210  0.65043  0.13388  1.0000
  H   H827      1.0  0.23633  0.70849  0.04340  1.0000
  H   H828      1.0  0.29650  0.70950  0.13877  1.0000
  C   C481      1.0  0.48722  0.74146  0.34122  1.0000
  H   H829      1.0  0.42272  0.63451  0.12195  1.0000
  C   C482      1.0  0.10786  0.73360  0.40052  1.0000
  H   H830      1.0  0.21611  0.53751  0.23732  1.0000
  H   H831      1.0  0.26669  0.68841  0.01953  1.0000
  H   H832      1.0  0.14033  0.57449  0.45060  1.0000
  H   H833      1.0  0.44191  0.67243  0.12663  1.0000
  C   C483      1.0  0.03956  0.71213  0.18884  1.0000
  H   H834      1.0  0.18760  0.50991  0.25745  1.0000
  H   H835      1.0  0.12804  0.51199  0.22575  1.0000
  C   C484      1.0  0.06622  0.71359  0.15319  1.0000
  C   C485      1.0  0.08936  0.70785  0.16660  1.0000
  C   C486      1.0  0.03095  0.68646  0.18469  1.0000
  H   H836      1.0  0.24603  0.66712  0.03144  1.0000
  C   C487      1.0  0.41138  0.65043  0.11947  1.0000
  H   H837      1.0  0.27912  0.73179  0.46115  1.0000
  C   C488      1.0  0.10586  0.69249  0.15141  1.0000
  H   H838      1.0  0.15499  0.52654  0.43758  1.0000
  C   C489      1.0  0.24585  0.51002  0.27389  1.0000
  H   H839      1.0  0.18150  0.50827  0.17261  1.0000
  H   H840      1.0  0.05422  0.71073  0.20176  1.0000
  Fe  Fe60      1.0  0.15729  0.49388  0.34006  1.0000
  H   H841      1.0  0.31760  0.69695  0.11837  1.0000
  H   H842      1.0  0.26495  0.71146  0.05677  1.0000
  H   H843      1.0  0.02051  0.71038  0.14423  1.0000
  H   H844      1.0  0.05946  0.69683  0.14551  1.0000
  C   C490      1.0  0.18072  0.52455  0.24619  1.0000
  H   H845      1.0  0.08593  0.69798  0.18329  1.0000
  H   H846      1.0  0.01131  0.68348  0.21797  1.0000
  C   C491      1.0  0.19938  0.54410  0.24550  1.0000
  H   H847      1.0  0.04458  0.67576  0.17530  1.0000
  H   H848      1.0  0.47579  0.51556  0.13386  1.0000
  H   H849      1.0  0.24010  0.51267  0.29201  1.0000
  H   H850      1.0  0.21672  0.56758  0.48714  1.0000
  H   H851      1.0  0.46084  0.54379  0.13818  1.0000
  H   H852      1.0  0.14457  0.50084  0.45348  1.0000
  H   H853      1.0  0.18536  0.59497  0.47077  1.0000
  H   H854      1.0  0.25189  0.67240  0.08117  1.0000
  H   H855      1.0  0.12283  0.68937  0.16084  1.0000
  H   H856      1.0  0.09760  0.67501  0.14794  1.0000
  C   C492      1.0  0.02551  0.72806  0.15115  1.0000
  H   H857      1.0  0.16468  0.53212  0.25486  1.0000
  H   H858      1.0  0.22325  0.67905  0.07099  1.0000
  H   H859      1.0  0.38834  0.63596  0.14649  1.0000
  H   H860      1.0  0.45941  0.52114  0.16077  1.0000
  H   H861      1.0  0.40162  0.57582  0.07439  1.0000
  N   N26       1.0  0.13140  0.66442  0.35656  1.0000
  C   C493      1.0  0.15811  0.66470  0.35811  1.0000
  C   C494      1.0  0.12260  0.68959  0.35332  1.0000
  C   C495      1.0  0.12195  0.65551  0.38011  1.0000
  C   C496      1.0  0.12236  0.64845  0.33719  1.0000
  C   C497      1.0  0.13810  0.64579  0.31466  1.0000
  C   C498      1.0  0.16979  0.64108  0.36635  1.0000
  C   C499      1.0  0.09461  0.65645  0.38348  1.0000
  C   C500      1.0  0.13010  0.70256  0.33026  1.0000
  S   S120      1.0  0.48723  0.63131  0.14106  1.0000
  C   C501      1.0  0.12509  0.63228  0.29532  1.0000
  C   C502      1.0  0.19643  0.64073  0.36139  1.0000
  C   C503      1.0  0.08695  0.64269  0.40562  1.0000
  H   H862      1.0  0.16386  0.67859  0.37081  1.0000
  H   H863      1.0  0.16633  0.66996  0.34102  1.0000
  H   H864      1.0  0.10291  0.69035  0.35335  1.0000
  H   H865      1.0  0.12836  0.70057  0.36857  1.0000
  H   H866      1.0  0.13004  0.66550  0.39497  1.0000
  H   H867      1.0  0.12721  0.63668  0.38295  1.0000
  H   H868      1.0  0.11978  0.63002  0.34401  1.0000
  H   H869      1.0  0.10440  0.65444  0.33150  1.0000
  H   H870      1.0  0.15447  0.63562  0.31881  1.0000
  H   H871      1.0  0.14356  0.66310  0.30720  1.0000
  H   H872      1.0  0.16734  0.63903  0.38577  1.0000
  H   H873      1.0  0.16170  0.62551  0.35767  1.0000
  H   H874      1.0  0.08537  0.64877  0.36804  1.0000
  H   H875      1.0  0.08843  0.67502  0.38585  1.0000
  H   H876      1.0  0.14954  0.70206  0.32748  1.0000
  H   H877      1.0  0.12112  0.69450  0.31487  1.0000
  C   C504      1.0  0.12263  0.72868  0.33093  1.0000
  C   C505      1.0  0.35061  0.51304  0.25314  1.0000
  H   H878      1.0  0.27518  0.66996  0.04438  1.0000
  H   H879      1.0  0.13690  0.63014  0.27964  1.0000
  H   H880      1.0  0.11997  0.61435  0.30177  1.0000
  H   H881      1.0  0.10894  0.64215  0.28970  1.0000
  H   H882      1.0  0.20417  0.62387  0.36822  1.0000
  H   H883      1.0  0.20001  0.64187  0.34206  1.0000
  H   H884      1.0  0.20519  0.65570  0.37052  1.0000
  H   H885      1.0  0.06741  0.64403  0.40781  1.0000
  H   H886      1.0  0.09190  0.62366  0.40407  1.0000
  H   H887      1.0  0.09536  0.65028  0.42161  1.0000
  H   H888      1.0  0.42309  0.66735  0.15199  1.0000
  H   H889      1.0  0.20575  0.71833  0.07793  1.0000
  H   H890      1.0  0.17553  0.55743  0.45960  1.0000
  C   C506      1.0  0.26128  0.50354  0.22695  1.0000
  C   C507      1.0  0.48017  0.73507  0.25248  1.0000
  N   N27       1.0  0.16087  0.49300  0.21938  1.0000
  H   H891      1.0  0.22720  0.60805  0.47255  1.0000
  H   H892      1.0  0.26675  0.50128  0.20870  1.0000
  H   H893      1.0  0.35503  0.51967  0.27105  1.0000
  H   H894      1.0  0.04143  0.73704  0.11643  1.0000
  C   C508      1.0  0.18452  0.58996  0.48984  1.0000
  H   H895      1.0  0.14180  0.50097  0.25186  1.0000
  H   H896      1.0  0.10889  0.61405  0.47145  1.0000
  H   H897      1.0  0.08121  0.74164  0.20109  1.0000
  H   H898      1.0  0.02502  0.72175  0.19830  1.0000
  H   H899      1.0  0.26646  0.67435  0.48107  1.0000
  H   H900      1.0  0.18834  0.54159  0.48333  1.0000
  H   H901      1.0  0.13179  0.73799  0.34552  1.0000
  C   C509      1.0  0.15291  0.53080  0.47597  1.0000
  C   C510      1.0  0.08546  0.73528  0.38959  1.0000
  H   H902      1.0  0.23169  0.73522  0.07356  1.0000
  C   C511      1.0  0.14213  0.58215  0.48899  1.0000
  H   H903      1.0  0.31911  0.49553  0.26498  1.0000
  H   H904      1.0  0.07159  0.72441  0.13755  1.0000
  H   H905      1.0  0.99889  0.72971  0.10900  1.0000
  C   C512      1.0  0.13808  0.49655  0.23312  1.0000
  C   C513      1.0  0.11252  0.59884  0.45950  1.0000
  H   H906      1.0  0.47271  0.72222  0.37165  1.0000
  H   H907      1.0  0.17568  0.50830  0.45401  1.0000
  H   H908      1.0  0.19872  0.73546  0.11708  1.0000
  H   H909      1.0  0.45133  0.73930  0.35499  1.0000
  Fe  Fe61      1.0  0.05495  0.66276  0.80855  1.0000
  S   S121      1.0  0.06874  0.69823  0.82099  1.0000
  S   S122      1.0  0.08219  0.64125  0.78588  1.0000
  Fe  Fe62      1.0  0.00784  0.67024  0.83718  1.0000
  S   S123      1.0  0.01957  0.70554  0.85026  1.0000
  Fe  Fe63      1.0  0.03207  0.71222  0.81284  1.0000
  Fe  Fe64      1.0  0.48394  0.66546  0.83492  1.0000
  Fe  Fe65      1.0  0.05506  0.68819  0.85736  1.0000
  S   S124      1.0  0.07048  0.69742  0.89399  1.0000
  S   S125      1.0  0.01878  0.67747  0.79893  1.0000
  S   S126      1.0  0.04283  0.65218  0.84570  1.0000
  Fe  Fe66      1.0  0.15524  0.51751  0.64442  1.0000
  S   S127      1.0  0.19276  0.53106  0.64329  1.0000
  Fe  Fe67      1.0  0.13777  0.56106  0.67487  1.0000
  S   S128      1.0  0.17419  0.57700  0.67404  1.0000
  S   S129      1.0  0.10488  0.57887  0.69258  1.0000
  Fe  Fe68      1.0  0.17588  0.56680  0.63533  1.0000
  S   S130      1.0  0.19158  0.59000  0.60534  1.0000
  Fe  Fe69      1.0  0.18751  0.53985  0.68212  1.0000
  S   S131      1.0  0.20992  0.53632  0.71596  1.0000
  S   S132      1.0  0.13868  0.55312  0.63541  1.0000
  S   S133      1.0  0.15074  0.52417  0.68380  1.0000
  S   S134      1.0  0.35219  0.53613  0.84305  1.0000
  S   S135      1.0  0.14471  0.64900  0.51997  1.0000
  Fe  Fe70      1.0  0.43539  0.65337  0.81455  1.0000
  S   S136      1.0  0.44914  0.65478  0.85166  1.0000
  S   S137      1.0  0.41683  0.61994  0.80007  1.0000
  Fe  Fe71      1.0  0.45957  0.70158  0.80174  1.0000
  H   H910      1.0  0.22310  0.63608  0.60804  1.0000
  Fe  Fe72      1.0  0.43885  0.69378  0.85164  1.0000
  S   S138      1.0  0.41996  0.70951  0.88469  1.0000
  S   S139      1.0  0.47064  0.66318  0.79754  1.0000
  S   S140      1.0  0.42288  0.69169  0.81518  1.0000
  S   S141      1.0  0.14751  0.65756  0.96802  1.0000
  H   H911      1.0  0.08231  0.63094  0.59577  1.0000
  H   H912      1.0  0.10445  0.54018  0.80479  1.0000
  H   H913      1.0  0.13159  0.64059  0.61332  1.0000
  C   C514      1.0  0.40773  0.73804  0.89195  1.0000
  H   H914      1.0  0.21454  0.73711  0.56917  1.0000
  C   C515      1.0  0.47762  0.58421  0.87604  1.0000
  C   C516      1.0  0.08543  0.64951  0.60122  1.0000
  C   C517      1.0  0.32551  0.73144  0.96658  1.0000
  H   H915      1.0  0.15710  0.70886  0.95405  1.0000
  H   H916      1.0  0.06206  0.56720  0.84877  1.0000
  C   C518      1.0  0.37093  0.55884  0.83107  1.0000
  C   C519      1.0  0.37523  0.57935  0.84451  1.0000
  C   C520      1.0  0.38972  0.59787  0.83570  1.0000
  C   C521      1.0  0.39993  0.59634  0.81309  1.0000
  C   C522      1.0  0.39583  0.57571  0.79974  1.0000
  C   C523      1.0  0.38160  0.55705  0.80867  1.0000
  H   H917      1.0  0.36720  0.58100  0.86188  1.0000
  H   H918      1.0  0.39255  0.61358  0.84621  1.0000
  H   H919      1.0  0.40355  0.57425  0.78221  1.0000
  H   H920      1.0  0.37870  0.54140  0.79813  1.0000
  C   C524      1.0  0.17797  0.60483  0.58089  1.0000
  C   C525      1.0  0.19245  0.61490  0.56313  1.0000
  C   C526      1.0  0.18259  0.62812  0.54420  1.0000
  C   C527      1.0  0.15805  0.63150  0.54279  1.0000
  C   C528      1.0  0.14353  0.62107  0.56032  1.0000
  C   C529      1.0  0.15339  0.60767  0.57913  1.0000
  H   H921      1.0  0.21148  0.61268  0.56419  1.0000
  H   H922      1.0  0.19397  0.63598  0.53089  1.0000
  H   H923      1.0  0.12451  0.62340  0.55936  1.0000
  H   H924      1.0  0.14204  0.59973  0.59242  1.0000
  C   C530      1.0  0.23423  0.51811  0.72506  1.0000
  C   C531      1.0  0.23964  0.51660  0.74937  1.0000
  C   C532      1.0  0.25964  0.50376  0.75744  1.0000
  H   H925      1.0  0.22826  0.52546  0.76206  1.0000
  C   C533      1.0  0.22995  0.72834  0.57775  1.0000
  C   C534      1.0  0.09103  0.68447  0.91447  1.0000
  C   C535      1.0  0.09007  0.69147  0.93838  1.0000
  C   C536      1.0  0.10673  0.68292  0.95505  1.0000
  C   C537      1.0  0.12511  0.66773  0.94795  1.0000
  C   C538      1.0  0.12608  0.66068  0.92404  1.0000
  C   C539      1.0  0.10910  0.66882  0.90745  1.0000
  H   H926      1.0  0.07618  0.70348  0.94412  1.0000
  H   H927      1.0  0.10525  0.68798  0.97345  1.0000
  H   H928      1.0  0.14012  0.64886  0.91829  1.0000
  H   H929      1.0  0.11030  0.66344  0.88913  1.0000
  H   H930      1.0  0.21070  0.65875  0.57135  1.0000
  H   H931      1.0  0.14645  0.71381  0.55249  1.0000
  H   H932      1.0  0.07373  0.54599  0.88503  1.0000
  H   H933      1.0  0.18912  0.67904  0.94528  1.0000
  C   C540      1.0  0.08817  0.62491  0.75916  1.0000
  C   C541      1.0  0.07039  0.61865  0.74315  1.0000
  C   C542      1.0  0.07590  0.60473  0.72298  1.0000
  C   C543      1.0  0.09923  0.59676  0.71834  1.0000
  C   C544      1.0  0.11705  0.60325  0.73419  1.0000
  C   C545      1.0  0.11153  0.61713  0.75438  1.0000
  H   H934      1.0  0.05232  0.62432  0.74643  1.0000
  H   H935      1.0  0.06189  0.59994  0.71095  1.0000
  H   H936      1.0  0.13509  0.59737  0.73104  1.0000
  H   H937      1.0  0.12552  0.62173  0.76652  1.0000
  H   H938      1.0  0.10245  0.59524  0.80252  1.0000
  H   H939      1.0  0.12521  0.72441  0.97578  1.0000
  H   H940      1.0  0.16300  0.52775  0.55506  1.0000
  H   H941      1.0  0.37533  0.52542  0.72114  1.0000
  H   H942      1.0  0.26002  0.66962  0.54662  1.0000
  C   C546      1.0  0.15037  0.54287  0.55629  1.0000
  H   H943      1.0  0.31931  0.52520  0.75988  1.0000
  C   C547      1.0  0.24278  0.66483  0.59105  1.0000
  H   H944      1.0  0.25852  0.70011  0.51475  1.0000
  C   C548      1.0  0.22150  0.67431  0.57642  1.0000
  H   H945      1.0  0.04885  0.56698  0.78949  1.0000
  C   C549      1.0  0.49164  0.57922  0.80885  1.0000
  H   H946      1.0  0.24532  0.72101  0.54407  1.0000
  H   H947      1.0  0.07523  0.53467  0.79442  1.0000
  C   C550      1.0  0.03746  0.58930  0.81769  1.0000
  H   H948      1.0  0.01263  0.59548  0.78872  1.0000
  H   H949      1.0  0.17189  0.57927  0.53112  1.0000
  H   H950      1.0  0.30637  0.72920  0.97055  1.0000
  H   H951      1.0  0.06409  0.59417  0.79023  1.0000
  H   H952      1.0  0.11215  0.56987  0.77411  1.0000
  C   C551      1.0  0.09648  0.55824  0.77239  1.0000
  H   H953      1.0  0.04409  0.59963  0.83280  1.0000
  H   H954      1.0  0.03042  0.62092  0.79633  1.0000
  H   H955      1.0  0.33554  0.52076  0.90532  1.0000
  H   H956      1.0  0.34840  0.55919  0.72809  1.0000
  C   C552      1.0  0.36478  0.52591  0.73780  1.0000
  H   H957      1.0  0.06485  0.66287  0.57158  1.0000
  H   H958      1.0  0.18889  0.63196  0.64491  1.0000
  H   H959      1.0  0.47034  0.62082  0.88637  1.0000
  H   H960      1.0  0.23382  0.65576  0.53601  1.0000
  H   H961      1.0  0.20738  0.72991  0.95081  1.0000
  C   C553      1.0  0.02070  0.60536  0.80356  1.0000
  H   H962      1.0  0.27434  0.58506  0.69609  1.0000
  C   C554      1.0  0.45956  0.55870  0.83005  1.0000
  H   H963      1.0  0.13378  0.53635  0.56472  1.0000
  H   H964      1.0  0.11479  0.57567  0.82358  1.0000
  C   C555      1.0  0.24246  0.67332  0.53850  1.0000
  H   H965      1.0  0.13142  0.56733  0.53416  1.0000
  H   H966      1.0  0.26339  0.50260  0.77618  1.0000
  C   C556      1.0  0.11449  0.61918  0.84255  1.0000
  H   H967      1.0  0.44547  0.57264  0.83134  1.0000
  H   H968      1.0  0.45762  0.55099  0.81202  1.0000
  C   C557      1.0  0.43652  0.72015  0.70535  1.0000
  C   C558      1.0  0.12931  0.64398  0.63259  1.0000
  H   H969      1.0  0.02686  0.57437  0.82501  1.0000
  H   H970      1.0  0.28225  0.70772  0.89588  1.0000
  C   C559      1.0  0.24797  0.68365  0.51350  1.0000
  H   H971      1.0  0.47763  0.60115  0.91053  1.0000
  C   C560      1.0  0.09277  0.60379  0.83807  1.0000
  C   C561      1.0  0.08977  0.54096  0.85010  1.0000
  H   H972      1.0  0.10967  0.54509  0.73873  1.0000
  H   H973      1.0  0.45696  0.58648  0.79209  1.0000
  H   H974      1.0  0.21011  0.68441  0.58888  1.0000
  C   C562      1.0  0.08851  0.54897  0.79716  1.0000
  S   S142      1.0  0.47508  0.70453  0.83844  1.0000
  C   C563      1.0  0.24156  0.71056  0.56039  1.0000
  H   H975      1.0  0.22246  0.61936  0.50224  1.0000
  H   H976      1.0  0.31995  0.69914  0.90262  1.0000
  H   H977      1.0  0.29277  0.51666  0.91336  1.0000
  C   C564      1.0  0.19361  0.71735  0.94483  1.0000
  H   H978      1.0  0.04790  0.65868  0.59843  1.0000
  H   H979      1.0  0.48911  0.73694  0.61586  1.0000
  C   C565      1.0  0.26422  0.50159  0.87504  1.0000
  H   H980      1.0  0.25847  0.51914  0.88192  1.0000
  C   C566      1.0  0.16750  0.56368  0.51994  1.0000
  C   C567      1.0  0.07042  0.55471  0.83608  1.0000
  C   C568      1.0  0.42686  0.53156  0.84528  1.0000
  H   H981      1.0  0.12743  0.57012  0.49388  1.0000
  H   H982      1.0  0.08765  0.59557  0.85522  1.0000
  H   H983      1.0  0.05621  0.54186  0.83157  1.0000
  N   N28       1.0  0.22741  0.68873  0.55455  1.0000
  N   N29       1.0  0.16601  0.57108  0.49413  1.0000
  H   H984      1.0  0.48785  0.58950  0.76044  1.0000
  H   H985      1.0  0.19984  0.68089  0.52897  1.0000
  H   H986      1.0  0.25418  0.67958  0.59699  1.0000
  C   C569      1.0  0.48184  0.60572  0.89182  1.0000
  H   H987      1.0  0.06783  0.68365  0.59549  1.0000
  H   H988      1.0  0.17596  0.64204  0.61753  1.0000
  H   H989      1.0  0.17512  0.66090  0.64341  1.0000
  H   H990      1.0  0.39961  0.50588  0.90082  1.0000
  H   H991      1.0  0.17956  0.60657  0.49929  1.0000
  H   H992      1.0  0.32135  0.73621  0.88295  1.0000
  H   H993      1.0  0.08219  0.56837  0.76339  1.0000
  H   H994      1.0  0.16929  0.73810  0.89618  1.0000
  N   N30       1.0  0.10497  0.63642  0.64074  1.0000
  C   C570      1.0  0.08680  0.65192  0.62859  1.0000
  C   C571      1.0  0.10210  0.63912  0.66721  1.0000
  H   H995      1.0  0.45657  0.54240  0.86593  1.0000
  C   C572      1.0  0.10167  0.61062  0.63467  1.0000
  C   C573      1.0  0.07626  0.60069  0.63825  1.0000
  H   H996      1.0  0.45870  0.57928  0.87812  1.0000
  C   C574      1.0  0.15049  0.63123  0.64473  1.0000
  C   C575      1.0  0.10821  0.66378  0.67749  1.0000
  C   C576      1.0  0.10493  0.66396  0.70440  1.0000
  C   C577      1.0  0.07522  0.57441  0.63188  1.0000
  H   H997      1.0  0.46357  0.52204  0.84266  1.0000
  H   H998      1.0  0.06883  0.64881  0.63624  1.0000
  H   H999      1.0  0.08353  0.63532  0.67270  1.0000
  H   H1000     1.0  0.11295  0.62567  0.67679  1.0000
  H   H1001     1.0  0.10723  0.60710  0.61608  1.0000
  H   H1002     1.0  0.11361  0.59935  0.64566  1.0000
  H   H1003     1.0  0.06326  0.61013  0.62689  1.0000
  H   H1004     1.0  0.07043  0.60235  0.65696  1.0000
  C   C578      1.0  0.48293  0.59018  0.84977  1.0000
  H   H1005     1.0  0.15100  0.61226  0.63958  1.0000
  H   H1006     1.0  0.14947  0.63224  0.66431  1.0000
  H   H1007     1.0  0.12691  0.66854  0.67375  1.0000
  H   H1008     1.0  0.09649  0.67776  0.67000  1.0000
  H   H1009     1.0  0.10886  0.68187  0.71138  1.0000
  H   H1010     1.0  0.08641  0.65939  0.70936  1.0000
  H   H1011     1.0  0.11721  0.65104  0.71290  1.0000
  H   H1012     1.0  0.08655  0.56377  0.64403  1.0000
  H   H1013     1.0  0.05673  0.56798  0.63376  1.0000
  H   H1014     1.0  0.08118  0.57153  0.61332  1.0000
  H   H1015     1.0  0.21546  0.51336  0.51584  1.0000
  Fe  Fe73      1.0  0.34309  0.49973  0.82725  1.0000
  C   C579      1.0  0.14496  0.55311  0.53171  1.0000
  H   H1016     1.0  0.10210  0.65565  0.59268  1.0000
  C   C580      1.0  0.35400  0.70286  0.91884  1.0000
  H   H1017     1.0  0.36214  0.71106  0.90286  1.0000
  C   C581      1.0  0.36002  0.67642  0.91807  1.0000
  C   C582      1.0  0.32677  0.70707  0.91922  1.0000
  H   H1018     1.0  0.31901  0.69615  0.93378  1.0000
  H   H1019     1.0  0.25365  0.65215  0.58061  1.0000
  C   C583      1.0  0.48383  0.60462  0.77235  1.0000
  H   H1020     1.0  0.18235  0.55089  0.52258  1.0000
  H   H1021     1.0  0.48904  0.56970  0.88285  1.0000
  C   C584      1.0  0.29492  0.49783  0.90775  1.0000
  H   H1022     1.0  0.36258  0.71025  0.93477  1.0000
  C   C585      1.0  0.07983  0.53125  0.87346  1.0000
  H   H1023     1.0  0.00319  0.72221  0.75871  1.0000
  C   C586      1.0  0.06524  0.66464  0.59117  1.0000
  H   H1024     1.0  0.35243  0.66818  0.90199  1.0000
  H   H1025     1.0  0.37960  0.67410  0.91736  1.0000
  H   H1026     1.0  0.35317  0.66722  0.93413  1.0000
  N   N31       1.0  0.30868  0.56204  0.75724  1.0000
  C   C587      1.0  0.32756  0.54293  0.75719  1.0000
  C   C588      1.0  0.29228  0.55804  0.77812  1.0000
  C   C589      1.0  0.29415  0.55918  0.73499  1.0000
  C   C590      1.0  0.31874  0.58687  0.75749  1.0000
  C   C591      1.0  0.34266  0.59046  0.77046  1.0000
  H   H1027     1.0  0.23148  0.68763  0.50363  1.0000
  C   C592      1.0  0.27132  0.57461  0.73329  1.0000
  C   C593      1.0  0.30356  0.55810  0.80304  1.0000
  C   C594      1.0  0.28531  0.55154  0.82209  1.0000
  C   C595      1.0  0.34844  0.61681  0.77266  1.0000
  C   C596      1.0  0.23422  0.65144  0.61310  1.0000
  C   C597      1.0  0.26186  0.57545  0.70796  1.0000
  H   H1028     1.0  0.06477  0.51912  0.87015  1.0000
  H   H1029     1.0  0.33978  0.54480  0.77238  1.0000
  H   H1030     1.0  0.27808  0.57179  0.77865  1.0000
  H   H1031     1.0  0.28311  0.54077  0.77608  1.0000
  H   H1032     1.0  0.20737  0.49438  0.54039  1.0000
  H   H1033     1.0  0.30503  0.56336  0.71901  1.0000
  H   H1034     1.0  0.32177  0.59352  0.73909  1.0000
  H   H1035     1.0  0.30558  0.59944  0.76528  1.0000
  H   H1036     1.0  0.35741  0.58201  0.76047  1.0000
  H   H1037     1.0  0.34262  0.58270  0.78846  1.0000
  H   H1038     1.0  0.37780  0.52936  0.89914  1.0000
  H   H1039     1.0  0.41843  0.72182  0.71307  1.0000
  H   H1040     1.0  0.27458  0.59309  0.73898  1.0000
  H   H1041     1.0  0.25718  0.56692  0.74473  1.0000
  H   H1042     1.0  0.31827  0.54508  0.80439  1.0000
  H   H1043     1.0  0.31003  0.57606  0.80738  1.0000
  H   H1044     1.0  0.27762  0.53383  0.81856  1.0000
  H   H1045     1.0  0.29406  0.55091  0.83967  1.0000
  H   H1046     1.0  0.27080  0.56494  0.82268  1.0000
  H   H1047     1.0  0.33488  0.62598  0.78369  1.0000
  H   H1048     1.0  0.36592  0.61890  0.78132  1.0000
  H   H1049     1.0  0.34935  0.62537  0.75490  1.0000
  H   H1050     1.0  0.24971  0.64457  0.62316  1.0000
  C   C598      1.0  0.17400  0.64231  0.63712  1.0000
  C   C599      1.0  0.21028  0.58326  0.49709  1.0000
  H   H1051     1.0  0.24445  0.58477  0.70768  1.0000
  C   C600      1.0  0.29209  0.73308  0.92373  1.0000
  H   H1052     1.0  0.25925  0.55725  0.70108  1.0000
  H   H1053     1.0  0.09644  0.52555  0.83985  1.0000
  H   H1054     1.0  0.13940  0.59812  0.50030  1.0000
  H   H1055     1.0  0.13148  0.66348  0.63448  1.0000
  C   C601      1.0  0.45301  0.53808  0.84722  1.0000
  H   H1056     1.0  0.17189  0.72675  0.97468  1.0000
  H   H1057     1.0  0.25935  0.70553  0.56728  1.0000
  C   C602      1.0  0.20493  0.69531  0.54137  1.0000
  H   H1058     1.0  0.41557  0.54649  0.85149  1.0000
  H   H1059     1.0  0.07853  0.61588  0.83201  1.0000
  H   H1060     1.0  0.09046  0.67095  0.63203  1.0000
  C   C603      1.0  0.10368  0.53783  0.75611  1.0000
  C   C604      1.0  0.25110  0.72685  0.90684  1.0000
  H   H1061     1.0  0.22380  0.66335  0.62487  1.0000
  H   H1062     1.0  0.20804  0.71116  0.52993  1.0000
  H   H1063     1.0  0.10490  0.55258  0.85445  1.0000
  H   H1064     1.0  0.21943  0.68867  0.94693  1.0000
  C   C605      1.0  0.16903  0.72449  0.95528  1.0000
  H   H1065     1.0  0.24529  0.50753  0.69014  1.0000
  S   S143      1.0  0.46294  0.73477  0.77775  1.0000
  H   H1066     1.0  0.24652  0.71422  0.92131  1.0000
  H   H1067     1.0  0.11855  0.52745  0.76389  1.0000
  C   C606      1.0  0.09803  0.58502  0.81885  1.0000
  C   C607      1.0  0.05779  0.57946  0.80177  1.0000
  C   C608      1.0  0.14149  0.73938  0.92413  1.0000
  H   H1068     1.0  0.15405  0.51892  0.49167  1.0000
  N   N32       1.0  0.07861  0.56743  0.81390  1.0000
  C   C609      1.0  0.00029  0.74092  0.75540  1.0000
  H   H1069     1.0  0.12004  0.62842  0.82598  1.0000
  H   H1070     1.0  0.33222  0.53312  0.71988  1.0000
  C   C610      1.0  0.27494  0.49282  0.74121  1.0000
  H   H1071     1.0  0.11000  0.63286  0.85595  1.0000
  H   H1072     1.0  0.32235  0.51259  0.94489  1.0000
  H   H1073     1.0  0.26304  0.74046  0.59344  1.0000
  C   C611      1.0  0.18218  0.69985  0.55639  1.0000
  H   H1074     1.0  0.20042  0.69114  0.97254  1.0000
  H   H1075     1.0  0.22424  0.71966  0.59447  1.0000
  H   H1076     1.0  0.28867  0.54035  0.73289  1.0000
  H   H1077     1.0  0.08841  0.52594  0.75295  1.0000
  H   H1078     1.0  0.00628  0.61201  0.81533  1.0000
  H   H1079     1.0  0.18457  0.50818  0.52253  1.0000
  C   C612      1.0  0.34274  0.54136  0.73422  1.0000
  H   H1080     1.0  0.13708  0.53892  0.52094  1.0000
  C   C613      1.0  0.20106  0.69255  0.95294  1.0000
  H   H1081     1.0  0.12945  0.60825  0.84933  1.0000
  H   H1082     1.0  0.33417  0.71373  0.96658  1.0000
  H   H1083     1.0  0.46910  0.60323  0.84439  1.0000
  H   H1084     1.0  0.09388  0.52118  0.88297  1.0000
  H   H1085     1.0  0.28639  0.72097  0.93828  1.0000
  H   H1086     1.0  0.15969  0.70949  0.90731  1.0000
  N   N33       1.0  0.31875  0.73257  0.92115  1.0000
  H   H1087     1.0  0.40385  0.72912  0.92895  1.0000
  H   H1088     1.0  0.46957  0.61156  0.80683  1.0000
  H   H1089     1.0  0.15800  0.69957  0.52643  1.0000
  C   C614      1.0  0.26940  0.49410  0.71692  1.0000
  H   H1090     1.0  0.42221  0.52723  0.82670  1.0000
  H   H1091     1.0  0.28442  0.49716  0.95582  1.0000
  C   C615      1.0  0.24911  0.50650  0.70888  1.0000
  C   C616      1.0  0.26250  0.66621  0.49863  1.0000
  C   C617      1.0  0.27772  0.72600  0.90156  1.0000
  N   N34       1.0  0.48386  0.56965  0.83275  1.0000
  H   H1092     1.0  0.47059  0.61633  0.76355  1.0000
  H   H1093     1.0  0.27955  0.66187  0.50743  1.0000
  C   C618      1.0  0.36368  0.49446  0.90859  1.0000
  C   C619      1.0  0.47374  0.59579  0.79597  1.0000
  H   H1094     1.0  0.42305  0.51581  0.85656  1.0000
  C   C620      1.0  0.15388  0.72777  0.90254  1.0000
  H   H1095     1.0  0.46203  0.73704  0.64957  1.0000
  H   H1096     1.0  0.18539  0.71157  0.57164  1.0000
  H   H1097     1.0  0.28113  0.73831  0.88654  1.0000
  C   C621      1.0  0.20247  0.49996  0.52212  1.0000
  H   H1098     1.0  0.44829  0.71215  0.71901  1.0000
  H   H1099     1.0  0.12803  0.72614  0.92982  1.0000
  H   H1100     1.0  0.15805  0.55663  0.56793  1.0000
  H   H1101     1.0  0.30081  0.51087  0.87141  1.0000
  H   H1102     1.0  0.36736  0.49622  0.92775  1.0000
  H   H1103     1.0  0.21148  0.57936  0.51634  1.0000
  H   H1104     1.0  0.17531  0.68270  0.56337  1.0000
  H   H1105     1.0  0.37607  0.53313  0.75208  1.0000
  H   H1106     1.0  0.24106  0.72188  0.89076  1.0000
  C   C622      1.0  0.16261  0.71121  0.54147  1.0000
  H   H1107     1.0  0.19386  0.71747  0.92526  1.0000
  H   H1108     1.0  0.43609  0.70811  0.68986  1.0000
  C   C623      1.0  0.13684  0.72568  0.88169  1.0000
  H   H1109     1.0  0.33619  0.49851  0.88322  1.0000
  H   H1110     1.0  0.37994  0.50743  0.87592  1.0000
  H   H1111     1.0  0.26168  0.50149  0.85554  1.0000
  C   C624      1.0  0.33774  0.50128  0.90263  1.0000
  H   H1112     1.0  0.99292  0.67007  0.93567  1.0000
  H   H1113     1.0  0.12089  0.71542  0.88690  1.0000
  C   C625      1.0  0.29032  0.49698  0.88070  1.0000
  H   H1114     1.0  0.21227  0.73833  0.49714  1.0000
  H   H1115     1.0  0.25240  0.64970  0.49564  1.0000
  H   H1116     1.0  0.35954  0.50747  0.74238  1.0000
  H   H1117     1.0  0.16832  0.72875  0.53446  1.0000
  H   H1118     1.0  0.14573  0.71629  0.86683  1.0000
  C   C626      1.0  0.38124  0.51034  0.89531  1.0000
  H   H1119     1.0  0.25550  0.73841  0.96905  1.0000
  H   H1120     1.0  0.24569  0.59806  0.49661  1.0000
  H   H1121     1.0  0.46430  0.74187  0.69124  1.0000
  C   C627      1.0  0.32067  0.49311  0.94202  1.0000
  C   C628      1.0  0.22739  0.60349  0.49175  1.0000
  H   H1122     1.0  0.31210  0.50124  0.99002  1.0000
  S   S144      1.0  0.35419  0.85658  0.46660  1.0000
  Fe  Fe74      1.0  0.06005  0.86700  0.30306  1.0000
  S   S145      1.0  0.04867  0.85696  0.33995  1.0000
  S   S146      1.0  0.07562  0.90290  0.29125  1.0000
  Fe  Fe75      1.0  0.03640  0.82175  0.28204  1.0000
  S   S147      1.0  0.02378  0.80921  0.31796  1.0000
  S   S148      1.0  0.02930  0.80576  0.24539  1.0000
  Fe  Fe76      1.0  0.01340  0.84780  0.32355  1.0000
  Fe  Fe77      1.0  0.06033  0.81939  0.33104  1.0000
  S   S149      1.0  0.08785  0.80001  0.35492  1.0000
  S   S150      1.0  0.02424  0.85946  0.28731  1.0000
  S   S151      1.0  0.07340  0.83021  0.29448  1.0000
  S   S152      1.0  0.35007  0.87220  0.01955  1.0000
  Fe  Fe78      1.0  0.43997  0.82487  0.35157  1.0000
  S   S153      1.0  0.45028  0.86174  0.33981  1.0000
  S   S154      1.0  0.42285  0.81248  0.38678  1.0000
  Fe  Fe79      1.0  0.46348  0.80234  0.30647  1.0000
  S   S155      1.0  0.46476  0.76788  0.28510  1.0000
  Fe  Fe80      1.0  0.43918  0.85132  0.30254  1.0000
  S   S156      1.0  0.41177  0.86628  0.27565  1.0000
  S   S157      1.0  0.47587  0.80842  0.34384  1.0000
  S   S158      1.0  0.42676  0.81539  0.31529  1.0000
  H   H1123     1.0  0.42762  0.86088  0.17739  1.0000
  Fe  Fe81      1.0  0.35669  0.95987  0.17601  1.0000
  S   S159      1.0  0.32116  0.94239  0.17580  1.0000
  S   S160      1.0  0.38908  0.94680  0.19753  1.0000
  Fe  Fe82      1.0  0.31939  0.95211  0.13684  1.0000
  S   S161      1.0  0.30452  0.92637  0.10908  1.0000
  Fe  Fe83      1.0  0.30582  0.97875  0.18329  1.0000
  H   H1124     1.0  0.23039  0.94642  0.47445  1.0000
  S   S162      1.0  0.35608  0.96741  0.13650  1.0000
  Fe  Fe84      1.0  0.48585  0.84472  0.33100  1.0000
  S   S163      1.0  0.14069  0.98111  0.34048  1.0000
  C   C629      1.0  0.28954  0.86635  0.44973  1.0000
  H   H1125     1.0  0.43764  0.85508  0.48554  1.0000
  C   C630      1.0  0.01900  0.90823  0.38218  1.0000
  C   C631      1.0  0.44531  0.86747  0.18260  1.0000
  N   N35       1.0  0.35025  0.95961  0.26976  1.0000
  C   C632      1.0  0.40656  0.88814  0.25307  1.0000
  C   C633      1.0  0.38515  0.88750  0.24029  1.0000
  C   C634      1.0  0.37962  0.90499  0.22305  1.0000
  C   C635      1.0  0.39540  0.92355  0.21837  1.0000
  C   C636      1.0  0.41699  0.92391  0.23080  1.0000
  C   C637      1.0  0.42256  0.90638  0.24799  1.0000
  H   H1126     1.0  0.37259  0.87351  0.24399  1.0000
  H   H1127     1.0  0.36311  0.90423  0.21351  1.0000
  H   H1128     1.0  0.42945  0.93805  0.22731  1.0000
  H   H1129     1.0  0.43908  0.90724  0.25759  1.0000
  C   C638      1.0  0.29219  0.83935  0.45020  1.0000
  H   H1130     1.0  0.31022  0.92785  0.27078  1.0000
  C   C639      1.0  0.33656  0.88865  0.04318  1.0000
  C   C640      1.0  0.35079  0.90332  0.05735  1.0000
  C   C641      1.0  0.34118  0.91571  0.07697  1.0000
  C   C642      1.0  0.31726  0.91306  0.08319  1.0000
  C   C643      1.0  0.30306  0.89838  0.06904  1.0000
  C   C644      1.0  0.31253  0.88646  0.04910  1.0000
  H   H1131     1.0  0.36940  0.90519  0.05304  1.0000
  H   H1132     1.0  0.35234  0.92708  0.08742  1.0000
  H   H1133     1.0  0.28454  0.89614  0.07358  1.0000
  H   H1134     1.0  0.30133  0.87517  0.03858  1.0000
  C   C645      1.0  0.22824  0.77697  0.01874  1.0000
  H   H1135     1.0  0.36363  0.77225  0.46134  1.0000
  H   H1136     1.0  0.22044  0.78795  0.03240  1.0000
  H   H1137     1.0  0.09302  0.74230  0.99941  1.0000
  C   C646      1.0  0.09251  0.92472  0.30633  1.0000
  C   C647      1.0  0.10532  0.91960  0.32690  1.0000
  C   C648      1.0  0.11988  0.93707  0.33710  1.0000
  C   C649      1.0  0.12171  0.95993  0.32705  1.0000
  C   C650      1.0  0.10844  0.96522  0.30679  1.0000
  C   C651      1.0  0.09393  0.94774  0.29657  1.0000
  H   H1138     1.0  0.10450  0.90201  0.33463  1.0000
  H   H1139     1.0  0.12996  0.93277  0.35282  1.0000
  H   H1140     1.0  0.02719  0.91582  0.27541  1.0000
  H   H1141     1.0  0.08396  0.95198  0.28077  1.0000
  C   C652      1.0  0.01052  0.78220  0.23641  1.0000
  C   C653      1.0  0.07903  0.75524  0.37558  1.0000
  C   C654      1.0  0.21895  0.95940  0.20113  1.0000
  C   C655      1.0  0.21223  0.94640  0.48200  1.0000
  C   C656      1.0  0.09490  0.77402  0.37226  1.0000
  H   H1142     1.0  0.47157  0.75427  0.37424  1.0000
  H   H1143     1.0  0.05867  0.96913  0.33042  1.0000
  H   H1144     1.0  0.35576  0.93009  0.29400  1.0000
  H   H1145     1.0  0.99347  0.91089  0.35337  1.0000
  C   C657      1.0  0.37439  0.84455  0.44524  1.0000
  C   C658      1.0  0.37888  0.85731  0.42415  1.0000
  C   C659      1.0  0.39403  0.84812  0.40633  1.0000
  C   C660      1.0  0.40484  0.82588  0.40927  1.0000
  C   C661      1.0  0.40047  0.81321  0.43046  1.0000
  C   C662      1.0  0.38542  0.82247  0.44832  1.0000
  H   H1146     1.0  0.37047  0.87441  0.42151  1.0000
  H   H1147     1.0  0.39710  0.85810  0.39018  1.0000
  H   H1148     1.0  0.40860  0.79595  0.43296  1.0000
  H   H1149     1.0  0.38203  0.81239  0.46429  1.0000
  H   H1150     1.0  0.01281  0.87018  0.37943  1.0000
  H   H1151     1.0  0.06172  0.75618  0.36749  1.0000
  C   C663      1.0  0.45872  0.82591  0.19494  1.0000
  H   H1152     1.0  0.48665  0.77601  0.21664  1.0000
  C   C664      1.0  0.45564  0.85226  0.20258  1.0000
  H   H1153     1.0  0.14113  0.75137  0.40513  1.0000
  H   H1154     1.0  0.20147  0.97681  0.24092  1.0000
  H   H1155     1.0  0.44211  0.82031  0.18609  1.0000
  H   H1156     1.0  0.20226  0.97816  0.46195  1.0000
  C   C665      1.0  0.38913  0.94936  0.29319  1.0000
  H   H1157     1.0  0.29704  0.76062  0.48903  1.0000
  H   H1158     1.0  0.22141  0.97892  0.20123  1.0000
  C   C666      1.0  0.39999  0.92975  0.30856  1.0000
  C   C667      1.0  0.99931  0.95591  0.35007  1.0000
  H   H1159     1.0  0.30718  0.87491  0.44812  1.0000
  H   H1160     1.0  0.25251  0.80425  0.00676  1.0000
  H   H1161     1.0  0.48257  0.80614  0.24810  1.0000
  C   C668      1.0  0.47934  0.78804  0.20274  1.0000
  C   C669      1.0  0.32935  0.76796  0.44425  1.0000
  C   C670      1.0  0.47660  0.84841  0.46012  1.0000
  H   H1162     1.0  0.18142  0.98331  0.29456  1.0000
  C   C671      1.0  0.11736  0.77225  0.38307  1.0000
  H   H1163     1.0  0.35106  0.97113  0.32111  1.0000
  H   H1164     1.0  0.00719  0.75926  0.10039  1.0000
  C   C672      1.0  0.27643  0.77052  0.41287  1.0000
  H   H1165     1.0  0.37658  0.97171  0.24454  1.0000
  N   N36       1.0  0.16929  0.95800  0.25046  1.0000
  C   C673      1.0  0.15395  0.93958  0.23879  1.0000
  C   C674      1.0  0.19344  0.95901  0.23850  1.0000
  C   C675      1.0  0.17276  0.95034  0.27593  1.0000
  H   H1166     1.0  0.30277  0.83458  0.46600  1.0000
  H   H1167     1.0  0.45242  0.76119  0.19479  1.0000
  C   C676      1.0  0.12902  0.93573  0.24980  1.0000
  C   C677      1.0  0.18974  0.96580  0.29084  1.0000
  H   H1168     1.0  0.99596  0.91643  0.26907  1.0000
  H   H1169     1.0  0.41699  0.93591  0.31615  1.0000
  H   H1170     1.0  0.19667  0.77815  0.10774  1.0000
  C   C678      1.0  0.11446  0.91856  0.23500  1.0000
  C   C679      1.0  0.19520  0.95395  0.31464  1.0000
  H   H1171     1.0  0.16324  0.92206  0.23905  1.0000
  H   H1172     1.0  0.15109  0.94376  0.21982  1.0000
  H   H1173     1.0  0.23350  0.95080  0.21129  1.0000
  H   H1174     1.0  0.20603  0.94627  0.24701  1.0000
  H   H1175     1.0  0.17932  0.93163  0.27663  1.0000
  H   H1176     1.0  0.15564  0.95054  0.28582  1.0000
  C   C680      1.0  0.12384  0.75223  0.39698  1.0000
  H   H1177     1.0  0.03829  0.98484  0.34955  1.0000
  H   H1178     1.0  0.28806  0.75576  0.41864  1.0000
  H   H1179     1.0  0.10940  0.98275  0.29897  1.0000
  H   H1180     1.0  0.13042  0.92782  0.26779  1.0000
  H   H1181     1.0  0.11896  0.95265  0.25080  1.0000
  H   H1182     1.0  0.04070  0.92620  0.31719  1.0000
  H   H1183     1.0  0.48309  0.75828  0.33195  1.0000
  H   H1184     1.0  0.19208  0.93376  0.20908  1.0000
  H   H1185     1.0  0.03396  0.76257  0.13389  1.0000
  H   H1186     1.0  0.05642  0.93312  0.35503  1.0000
  H   H1187     1.0  0.17857  0.94956  0.32429  1.0000
  H   H1188     1.0  0.33941  0.76603  0.48157  1.0000
  H   H1189     1.0  0.47217  0.74354  0.16034  1.0000
  C   C681      1.0  0.06624  0.75410  0.19838  1.0000
  H   H1190     1.0  0.22006  0.95333  0.18247  1.0000
  H   H1191     1.0  0.11183  0.92563  0.21679  1.0000
  H   H1192     1.0  0.12336  0.90095  0.23410  1.0000
  H   H1193     1.0  0.09676  0.91611  0.24336  1.0000
  H   H1194     1.0  0.20564  0.96620  0.32577  1.0000
  C   C682      1.0  0.46561  0.77224  0.18516  1.0000
  H   H1195     1.0  0.20562  0.93740  0.31195  1.0000
  N   N37       1.0  0.35928  0.87039  0.13612  1.0000
  C   C683      1.0  0.33919  0.88423  0.14729  1.0000
  C   C684      1.0  0.37882  0.88736  0.12924  1.0000
  C   C685      1.0  0.35007  0.85961  0.11349  1.0000
  C   C686      1.0  0.36855  0.85064  0.15194  1.0000
  C   C687      1.0  0.36711  0.85454  0.17917  1.0000
  C   C688      1.0  0.31553  0.87054  0.15020  1.0000
  C   C689      1.0  0.36890  0.84817  0.09691  1.0000
  C   C690      1.0  0.38941  0.90266  0.14919  1.0000
  C   C691      1.0  0.40747  0.92021  0.13910  1.0000
  C   C692      1.0  0.37888  0.83413  0.19276  1.0000
  C   C693      1.0  0.29819  0.88347  0.16658  1.0000
  C   C694      1.0  0.35726  0.83323  0.07775  1.0000
  H   H1196     1.0  0.33530  0.90033  0.13649  1.0000
  H   H1197     1.0  0.34422  0.89136  0.16481  1.0000
  H   H1198     1.0  0.39412  0.87765  0.12133  1.0000
  H   H1199     1.0  0.37232  0.89977  0.11520  1.0000
  H   H1200     1.0  0.34042  0.87320  0.10280  1.0000
  H   H1201     1.0  0.33676  0.84564  0.11754  1.0000
  H   H1202     1.0  0.35877  0.83386  0.14870  1.0000
  H   H1203     1.0  0.38733  0.84646  0.14733  1.0000
  H   H1204     1.0  0.34839  0.85539  0.18525  1.0000
  H   H1205     1.0  0.37570  0.87118  0.18454  1.0000
  H   H1206     1.0  0.30673  0.86891  0.13271  1.0000
  H   H1207     1.0  0.31864  0.85242  0.15737  1.0000
  H   H1208     1.0  0.38128  0.83661  0.10700  1.0000
  H   H1209     1.0  0.37926  0.86223  0.08770  1.0000
  H   H1210     1.0  0.37558  0.91316  0.15849  1.0000
  H   H1211     1.0  0.39901  0.89136  0.16207  1.0000
  H   H1212     1.0  0.39885  0.93263  0.12638  1.0000
  H   H1213     1.0  0.41508  0.93082  0.15370  1.0000
  H   H1214     1.0  0.42219  0.91070  0.13000  1.0000
  H   H1215     1.0  0.37783  0.83763  0.21210  1.0000
  H   H1216     1.0  0.36971  0.81716  0.18917  1.0000
  H   H1217     1.0  0.39784  0.83236  0.18771  1.0000
  C   C695      1.0  0.02824  0.74448  0.12904  1.0000
  H   H1218     1.0  0.29335  0.90101  0.15886  1.0000
  H   H1219     1.0  0.28171  0.87294  0.16853  1.0000
  H   H1220     1.0  0.34806  0.81774  0.08573  1.0000
  H   H1221     1.0  0.34424  0.84402  0.06757  1.0000
  H   H1222     1.0  0.37098  0.82667  0.06515  1.0000
  C   C696      1.0  0.00622  0.77905  0.21209  1.0000
  C   C697      1.0  0.00481  0.74712  0.11578  1.0000
  H   H1223     1.0  0.01415  0.79113  0.19941  1.0000
  H   H1224     1.0  0.46043  0.84455  0.44967  1.0000
  H   H1225     1.0  0.32319  0.96042  0.24252  1.0000
  C   C698      1.0  0.10827  0.75343  0.99381  1.0000
  H   H1226     1.0  0.12986  0.78655  0.38071  1.0000
  C   C699      1.0  0.21979  0.75378  0.01548  1.0000
  C   C700      1.0  0.24647  0.78627  0.00424  1.0000
  H   H1227     1.0  0.33576  0.91064  0.26206  1.0000
  H   H1228     1.0  0.30016  0.89894  0.24023  1.0000
  H   H1229     1.0  0.40244  0.95424  0.27940  1.0000
  N   N38       1.0  0.46547  0.80814  0.21400  1.0000
  H   H1230     1.0  0.47233  0.82618  0.18054  1.0000
  H   H1231     1.0  0.44321  0.88608  0.18871  1.0000
  H   H1232     1.0  0.33816  0.76356  0.42724  1.0000
  H   H1233     1.0  0.24623  0.76144  0.43560  1.0000
  C   C701      1.0  0.27856  0.75603  0.49068  1.0000
  C   C702      1.0  0.44371  0.79745  0.22549  1.0000
  C   C703      1.0  0.00702  0.88538  0.39051  1.0000
  H   H1234     1.0  0.03848  0.90553  0.38383  1.0000
  C   C704      1.0  0.00444  0.92449  0.30557  1.0000
  C   C705      1.0  0.42806  0.81408  0.24080  1.0000
  C   C706      1.0  0.40832  0.80022  0.25324  1.0000
  C   C707      1.0  0.05436  0.75085  0.17385  1.0000
  H   H1235     1.0  0.43166  0.79014  0.21188  1.0000
  H   H1236     1.0  0.44903  0.78211  0.23693  1.0000
  H   H1237     1.0  0.42202  0.81852  0.48621  1.0000
  C   C708      1.0  0.47334  0.84053  0.48591  1.0000
  H   H1238     1.0  0.44398  0.85428  0.21825  1.0000
  H   H1239     1.0  0.18115  0.96272  0.20125  1.0000
  C   C709      1.0  0.19476  0.95310  0.21165  1.0000
  H   H1240     1.0  0.27891  0.77319  0.39350  1.0000
  H   H1241     1.0  0.41929  0.82761  0.22953  1.0000
  H   H1242     1.0  0.39681  0.79137  0.24012  1.0000
  H   H1243     1.0  0.41596  0.78666  0.26543  1.0000
  H   H1244     1.0  0.39724  0.81259  0.26390  1.0000
  H   H1245     1.0  0.38785  0.92498  0.32338  1.0000
  H   H1246     1.0  0.38622  0.96498  0.30459  1.0000
  S   S164      1.0  0.28320  0.97994  0.21743  1.0000
  H   H1247     1.0  0.27624  0.79082  0.44534  1.0000
  N   N39       1.0  0.30665  0.80356  0.42517  1.0000
  C   C710      1.0  0.31771  0.79844  0.40130  1.0000
  C   C711      1.0  0.28167  0.79373  0.42651  1.0000
  C   C712      1.0  0.30489  0.83022  0.42752  1.0000
  C   C713      1.0  0.32159  0.79431  0.44539  1.0000
  C   C714      1.0  0.36606  0.94091  0.28101  1.0000
  C   C715      1.0  0.34315  0.80805  0.39722  1.0000
  C   C716      1.0  0.32328  0.92484  0.25637  1.0000
  C   C717      1.0  0.21299  0.74320  0.10588  1.0000
  H   H1248     1.0  0.13943  0.98056  0.21608  1.0000
  H   H1249     1.0  0.05303  0.75106  0.21278  1.0000
  C   C718      1.0  0.35340  0.79947  0.37363  1.0000
  H   H1250     1.0  0.20689  0.96874  0.28170  1.0000
  H   H1251     1.0  0.30630  0.80589  0.38698  1.0000
  H   H1252     1.0  0.31857  0.77909  0.39794  1.0000
  H   H1253     1.0  0.06637  0.75846  0.16006  1.0000
  H   H1254     1.0  0.26870  0.80690  0.41929  1.0000
  H   H1255     1.0  0.29564  0.83802  0.41186  1.0000
  H   H1256     1.0  0.32280  0.83836  0.42774  1.0000
  H   H1257     1.0  0.33781  0.80527  0.44732  1.0000
  H   H1258     1.0  0.31201  0.79640  0.46256  1.0000
  H   H1259     1.0  0.18677  0.76048  0.08328  1.0000
  H   H1260     1.0  0.21576  0.77403  0.08233  1.0000
  H   H1261     1.0  0.34320  0.82772  0.39664  1.0000
  H   H1262     1.0  0.35526  0.80191  0.41138  1.0000
  H   H1263     1.0  0.30600  0.88595  0.18440  1.0000
  H   H1264     1.0  0.27422  0.83175  0.45238  1.0000
  C   C719      1.0  0.04219  0.94669  0.35791  1.0000
  C   C720      1.0  0.19626  0.95956  0.46442  1.0000
  C   C721      1.0  0.07552  0.77932  0.20129  1.0000
  H   H1265     1.0  0.28112  0.87239  0.46650  1.0000
  H   H1266     1.0  0.43838  0.82289  0.25482  1.0000
  H   H1267     1.0  0.02711  0.95428  0.31224  1.0000
  H   H1268     1.0  0.45632  0.78320  0.17167  1.0000
  C   C722      1.0  0.99963  0.76685  0.25264  1.0000
  H   H1269     1.0  0.35527  0.77985  0.37367  1.0000
  H   H1270     1.0  0.34193  0.80512  0.35867  1.0000
  H   H1271     1.0  0.37127  0.80723  0.37084  1.0000
  H   H1272     1.0  0.99957  0.84898  0.23011  1.0000
  C   C723      1.0  0.05204  0.97077  0.34890  1.0000
  H   H1273     1.0  0.37242  0.92816  0.26737  1.0000
  C   C724      1.0  0.33669  0.94805  0.24989  1.0000
  C   C725      1.0  0.30958  0.91545  0.23514  1.0000
  H   H1274     1.0  0.47307  0.85996  0.20718  1.0000
  C   C726      1.0  0.48085  0.81873  0.23295  1.0000
  H   H1275     1.0  0.31383  0.75634  0.44690  1.0000
  H   H1276     1.0  0.22773  0.74889  0.11741  1.0000
  H   H1277     1.0  0.06090  0.79247  0.19927  1.0000
  H   H1278     1.0  0.34881  0.94390  0.23479  1.0000
  H   H1279     1.0  0.01373  0.92247  0.39451  1.0000
  S   S165      1.0  0.19612  0.74347  0.03370  1.0000
  H   H1280     1.0  0.08303  0.78136  0.21932  1.0000
  H   H1281     1.0  0.01194  0.88151  0.40916  1.0000
  C   C727      1.0  0.01275  0.91416  0.35600  1.0000
  H   H1282     1.0  0.29624  0.92870  0.22906  1.0000
  S   S166      1.0  0.47566  0.83769  0.29284  1.0000
  H   H1283     1.0  0.00280  0.76899  0.27139  1.0000
  H   H1284     1.0  0.47241  0.83466  0.24079  1.0000
  H   H1285     1.0  0.08673  0.96494  0.36501  1.0000
  C   C728      1.0  0.02411  0.93650  0.32032  1.0000
  H   H1286     1.0  0.03863  0.76290  0.17442  1.0000
  C   C729      1.0  0.01025  0.92528  0.27910  1.0000
  H   H1287     1.0  0.27824  0.87208  0.43468  1.0000
  C   C730      1.0  0.48575  0.75597  0.26471  1.0000
  H   H1288     1.0  0.31871  0.98000  0.27815  1.0000
  N   N40       1.0  0.01945  0.93849  0.34664  1.0000
  H   H1289     1.0  0.08964  0.78312  0.18803  1.0000
  H   H1290     1.0  0.40369  0.91369  0.29787  1.0000
  C   C731      1.0  0.20246  0.76530  0.09402  1.0000
  H   H1291     1.0  0.00279  0.90557  0.31072  1.0000
  C   C732      1.0  0.15777  0.98222  0.25053  1.0000
  H   H1292     1.0  0.46998  0.82120  0.48572  1.0000
  H   H1293     1.0  0.04035  0.94806  0.37741  1.0000
  C   C733      1.0  0.99346  0.96309  0.37585  1.0000
  H   H1294     1.0  0.32184  0.91134  0.22027  1.0000
  H   H1295     1.0  0.32228  0.95424  0.29563  1.0000
  H   H1296     1.0  0.00245  0.97236  0.33955  1.0000
  H   H1297     1.0  0.02192  0.90008  0.34562  1.0000
  C   C734      1.0  0.07282  0.97893  0.36404  1.0000
  H   H1298     1.0  0.45730  0.86735  0.16691  1.0000
  H   H1299     1.0  0.14173  0.98232  0.26211  1.0000
  H   H1300     1.0  0.00923  0.96992  0.38516  1.0000
  H   H1301     1.0  0.48039  0.86771  0.45904  1.0000
  H   H1302     1.0  0.06672  0.98319  0.38227  1.0000
  H   H1303     1.0  0.01166  0.94391  0.27275  1.0000
  H   H1304     1.0  0.20565  0.92791  0.48321  1.0000
  H   H1305     1.0  0.23837  0.77592  0.40816  1.0000
  H   H1306     1.0  0.25777  0.98123  0.26153  1.0000
  H   H1307     1.0  0.19700  0.95059  0.44695  1.0000
  C   C735      1.0  0.34705  0.76200  0.46386  1.0000
  C   C736      1.0  0.48242  0.75514  0.17232  1.0000
  H   H1308     1.0  0.12111  0.75389  0.00866  1.0000
  C   C737      1.0  0.33238  0.96903  0.28738  1.0000
  C   C738      1.0  0.25067  0.76290  0.41649  1.0000
  H   H1309     1.0  0.17756  0.95960  0.47072  1.0000
  C   C739      1.0  0.36497  0.97916  0.25879  1.0000
  S   S167      1.0  0.30062  0.98702  0.14427  1.0000
  H   H1310     1.0  0.30895  0.98354  0.32810  1.0000
  C   C740      1.0  0.34236  0.98338  0.30831  1.0000
  H   H1311     1.0  0.24781  0.74529  0.40827  1.0000
  H   H1312     1.0  0.37739  0.98694  0.27168  1.0000
  H   H1313     1.0  0.35156  0.74280  0.46332  1.0000
  C   C741      1.0  0.22520  0.98743  0.73062  1.0000
  H   H1314     1.0  0.24559  0.74503  0.91215  1.0000
  S   S168      1.0  0.01932  0.86346  0.63533  1.0000
  C   C742      1.0  0.18876  0.77695  0.95639  1.0000
  Fe  Fe85      1.0  0.31628  0.86060  0.54972  1.0000
  S   S169      1.0  0.32060  0.82455  0.56655  1.0000
  S   S170      1.0  0.30003  0.89279  0.56918  1.0000
  Fe  Fe86      1.0  0.34209  0.84375  0.50355  1.0000
  S   S171      1.0  0.34692  0.80672  0.51776  1.0000
  Fe  Fe87      1.0  0.30917  0.81017  0.53101  1.0000
  S   S172      1.0  0.27753  0.78466  0.53080  1.0000
  Fe  Fe88      1.0  0.35799  0.82473  0.55186  1.0000
  S   S173      1.0  0.39179  0.81076  0.57037  1.0000
  S   S174      1.0  0.30358  0.84641  0.51491  1.0000
  S   S175      1.0  0.35452  0.86159  0.53690  1.0000
  Fe  Fe89      1.0  0.13483  0.94339  0.66829  1.0000
  S   S176      1.0  0.13990  0.95572  0.63074  1.0000
  S   S177      1.0  0.10203  0.92423  0.68368  1.0000
  Fe  Fe90      1.0  0.18273  0.96646  0.68356  1.0000
  H   H1315     1.0  0.47351  0.81398  0.55335  1.0000
  S   S178      1.0  0.21133  0.96584  0.71244  1.0000
  C   C743      1.0  0.42845  0.88728  0.53494  1.0000
  Fe  Fe91      1.0  0.17840  0.94418  0.63428  1.0000
  S   S179      1.0  0.19552  0.91860  0.60715  1.0000
  H   H1316     1.0  0.47714  0.77331  0.67006  1.0000
  S   S180      1.0  0.17246  0.92992  0.67112  1.0000
  S   S181      1.0  0.47322  0.85959  0.63237  1.0000
  Fe  Fe92      1.0  0.31061  0.86641  0.93975  1.0000
  S   S182      1.0  0.34865  0.86522  0.95073  1.0000
  S   S183      1.0  0.29484  0.89501  0.91512  1.0000
  Fe  Fe93      1.0  0.30032  0.81790  0.96504  1.0000
  S   S184      1.0  0.33814  0.81491  0.97765  1.0000
  S   S185      1.0  0.27803  0.78381  0.96607  1.0000
  H   H1317     1.0  0.40056  0.82362  0.50955  1.0000
  Fe  Fe94      1.0  0.34863  0.82632  0.94070  1.0000
  S   S186      1.0  0.37404  0.81069  0.91241  1.0000
  S   S187      1.0  0.29580  0.85636  0.97588  1.0000
  S   S188      1.0  0.31109  0.82840  0.92794  1.0000
  H   H1318     1.0  0.15452  0.96720  0.76296  1.0000
  H   H1319     1.0  0.24774  0.97972  0.86807  1.0000
  H   H1320     1.0  0.10962  0.95646  0.75764  1.0000
  C   C744      1.0  0.38652  0.78229  0.90516  1.0000
  C   C745      1.0  0.39363  0.77785  0.88160  1.0000
  H   H1321     1.0  0.43503  0.83090  0.66933  1.0000
  H   H1322     1.0  0.31000  0.94575  0.95410  1.0000
  H   H1323     1.0  0.39088  0.79139  0.86825  1.0000
  H   H1324     1.0  0.43711  0.81242  0.83227  1.0000
  H   H1325     1.0  0.25571  0.97045  0.51088  1.0000
  H   H1326     1.0  0.22617  0.91877  0.54993  1.0000
  C   C746      1.0  0.17452  0.76477  0.93643  1.0000
  H   H1327     1.0  0.38036  0.79482  0.62523  1.0000
  C   C747      1.0  0.41453  0.82515  0.58688  1.0000
  C   C748      1.0  0.43577  0.81276  0.59164  1.0000
  C   C749      1.0  0.45414  0.82320  0.60489  1.0000
  C   C750      1.0  0.45133  0.84605  0.61413  1.0000
  C   C751      1.0  0.43020  0.85853  0.60911  1.0000
  C   C752      1.0  0.41202  0.84827  0.59547  1.0000
  H   H1328     1.0  0.43806  0.79492  0.58501  1.0000
  H   H1329     1.0  0.47036  0.81344  0.60820  1.0000
  H   H1330     1.0  0.42778  0.87625  0.61602  1.0000
  H   H1331     1.0  0.39584  0.85809  0.59206  1.0000
  H   H1332     1.0  0.01535  0.77377  0.65910  1.0000
  H   H1333     1.0  0.42635  0.79841  0.69999  1.0000
  H   H1334     1.0  0.11084  0.86017  0.66591  1.0000
  C   C753      1.0  0.27145  0.89802  0.58228  1.0000
  C   C754      1.0  0.26749  0.91913  0.59505  1.0000
  C   C755      1.0  0.24471  0.92517  0.60388  1.0000
  C   C756      1.0  0.22538  0.91027  0.59987  1.0000
  C   C757      1.0  0.22948  0.88887  0.58765  1.0000
  C   C758      1.0  0.25230  0.88274  0.57899  1.0000
  H   H1335     1.0  0.28210  0.93112  0.59778  1.0000
  H   H1336     1.0  0.24201  0.94166  0.61323  1.0000
  H   H1337     1.0  0.21475  0.87715  0.58441  1.0000
  H   H1338     1.0  0.25495  0.86644  0.56928  1.0000
  C   C759      1.0  0.32860  0.95901  0.87585  1.0000
  C   C760      1.0  0.34124  0.94692  0.89374  1.0000
  C   C761      1.0  0.33130  0.92734  0.90592  1.0000
  C   C762      1.0  0.30846  0.91958  0.90040  1.0000
  C   C763      1.0  0.29575  0.93184  0.88269  1.0000
  C   C764      1.0  0.30577  0.95127  0.87037  1.0000
  H   H1339     1.0  0.35886  0.95277  0.89824  1.0000
  H   H1340     1.0  0.34125  0.91830  0.91964  1.0000
  H   H1341     1.0  0.27808  0.92604  0.87824  1.0000
  H   H1342     1.0  0.29591  0.96006  0.85644  1.0000
  C   C765      1.0  0.09500  0.82561  0.67348  1.0000
  H   H1343     1.0  0.07843  0.85146  0.69585  1.0000
  H   H1344     1.0  0.44086  0.88914  0.54999  1.0000
  H   H1345     1.0  0.23028  0.98173  0.54422  1.0000
  H   H1346     1.0  0.32168  0.76255  0.94468  1.0000
  C   C766      1.0  0.07847  0.90896  0.66917  1.0000
  C   C767      1.0  0.05774  0.90343  0.68209  1.0000
  C   C768      1.0  0.03912  0.89038  0.67179  1.0000
  C   C769      1.0  0.04111  0.88220  0.64848  1.0000
  C   C770      1.0  0.06176  0.88788  0.63552  1.0000
  C   C771      1.0  0.08022  0.90126  0.64568  1.0000
  H   H1347     1.0  0.05602  0.90940  0.70019  1.0000
  H   H1348     1.0  0.02330  0.88647  0.68192  1.0000
  H   H1349     1.0  0.06361  0.88170  0.61749  1.0000
  H   H1350     1.0  0.09599  0.90524  0.63544  1.0000
  N   N41       1.0  0.39270  0.87021  0.87527  1.0000
  C   C772      1.0  0.39017  0.87670  0.90110  1.0000
  C   C773      1.0  0.36992  0.85944  0.86630  1.0000
  C   C774      1.0  0.41209  0.85161  0.87355  1.0000
  C   C775      1.0  0.39998  0.89110  0.86011  1.0000
  C   C776      1.0  0.38398  0.91343  0.86138  1.0000
  C   C777      1.0  0.41225  0.88780  0.91286  1.0000
  C   C778      1.0  0.41525  0.83945  0.84908  1.0000
  C   C779      1.0  0.34620  0.86920  0.87658  1.0000
  C   C780      1.0  0.32502  0.86105  0.86208  1.0000
  C   C781      1.0  0.39514  0.93425  0.84802  1.0000
  C   C782      1.0  0.40698  0.89454  0.93856  1.0000
  C   C783      1.0  0.43571  0.82152  0.84963  1.0000
  H   H1351     1.0  0.38532  0.86064  0.91162  1.0000
  H   H1352     1.0  0.37534  0.88934  0.90404  1.0000
  H   H1353     1.0  0.36916  0.86072  0.84661  1.0000
  H   H1354     1.0  0.36943  0.84008  0.87044  1.0000
  H   H1355     1.0  0.40904  0.83724  0.88688  1.0000
  H   H1356     1.0  0.42961  0.85932  0.87793  1.0000
  H   H1357     1.0  0.41845  0.89646  0.86428  1.0000
  H   H1358     1.0  0.40051  0.88608  0.84110  1.0000
  H   H1359     1.0  0.38110  0.91917  0.87988  1.0000
  H   H1360     1.0  0.36667  0.90995  0.85289  1.0000
  H   H1361     1.0  0.42733  0.87509  0.91317  1.0000
  H   H1362     1.0  0.41777  0.90415  0.90335  1.0000
  H   H1363     1.0  0.41932  0.85260  0.83498  1.0000
  H   H1364     1.0  0.39904  0.82969  0.84399  1.0000
  H   H1365     1.0  0.34374  0.86255  0.89502  1.0000
  H   H1366     1.0  0.34562  0.88874  0.87711  1.0000
  H   H1367     1.0  0.32581  0.86870  0.84392  1.0000
  H   H1368     1.0  0.32468  0.84143  0.86104  1.0000
  H   H1369     1.0  0.30833  0.86719  0.87068  1.0000
  H   H1370     1.0  0.39812  0.92972  0.82910  1.0000
  H   H1371     1.0  0.38303  0.94985  0.84880  1.0000
  H   H1372     1.0  0.41225  0.93926  0.85619  1.0000
  H   H1373     1.0  0.08947  0.77540  0.75084  1.0000
  H   H1374     1.0  0.42289  0.90275  0.94651  1.0000
  H   H1375     1.0  0.39207  0.90749  0.93952  1.0000
  H   H1376     1.0  0.17740  0.79033  0.96545  1.0000
  C   C784      1.0  0.41172  0.78756  0.50592  1.0000
  H   H1377     1.0  0.25317  0.75774  0.56822  1.0000
  H   H1378     1.0  0.30467  0.96876  0.97559  1.0000
  H   H1379     1.0  0.31905  0.80139  0.87264  1.0000
  H   H1380     1.0  0.20526  0.80272  0.93250  1.0000
  H   H1381     1.0  0.13115  0.74351  0.87538  1.0000
  S   S189      1.0  0.02566  0.74921  0.79673  1.0000
  H   H1382     1.0  0.10812  0.82096  0.68736  1.0000
  H   H1383     1.0  0.39793  0.80889  0.67470  1.0000
  H   H1384     1.0  0.23561  0.95610  0.56205  1.0000
  H   H1385     1.0  0.36369  0.81086  0.64736  1.0000
  H   H1386     1.0  0.22352  0.77698  0.93925  1.0000
  N   N42       1.0  0.15710  0.74618  0.94466  1.0000
  C   C785      1.0  0.24549  0.98081  0.74358  1.0000
  C   C786      1.0  0.40554  0.90014  0.54186  1.0000
  C   C787      1.0  0.24109  0.75906  0.51136  1.0000
  H   H1387     1.0  0.18679  0.97442  0.54571  1.0000
  H   H1388     1.0  0.49018  0.82269  0.52768  1.0000
  C   C788      1.0  0.48208  0.74357  0.75404  1.0000
  C   C789      1.0  0.31862  0.77199  0.89740  1.0000
  C   C790      1.0  0.12167  0.96407  0.74403  1.0000
  C   C791      1.0  0.27231  0.94658  0.53587  1.0000
  C   C792      1.0  0.14776  0.95618  0.74819  1.0000
  C   C793      1.0  0.29670  0.94267  0.52460  1.0000
  H   H1389     1.0  0.13441  0.77494  0.95681  1.0000
  C   C794      1.0  0.48180  0.76746  0.74646  1.0000
  C   C795      1.0  0.30631  0.98099  0.93882  1.0000
  H   H1390     1.0  0.04432  0.76970  0.64556  1.0000
  H   H1391     1.0  0.34405  0.78162  0.86979  1.0000
  H   H1392     1.0  0.15186  0.76143  0.97948  1.0000
  H   H1393     1.0  0.21918  0.79980  0.96099  1.0000
  H   H1394     1.0  0.41004  0.86075  0.51509  1.0000
  H   H1395     1.0  0.21705  0.91510  0.78359  1.0000
  C   C796      1.0  0.40082  0.74260  0.91556  1.0000
  H   H1396     1.0  0.18741  0.75748  0.92347  1.0000
  H   H1397     1.0  0.47055  0.78006  0.75562  1.0000
  C   C797      1.0  0.02947  0.78242  0.64834  1.0000
  H   H1398     1.0  0.43270  0.80785  0.86358  1.0000
  H   H1399     1.0  0.05067  0.77914  0.73019  1.0000
  C   C798      1.0  0.04935  0.79874  0.68493  1.0000
  C   C799      1.0  0.44240  0.79728  0.68849  1.0000
  H   H1400     1.0  0.16508  0.77914  0.92654  1.0000
  H   H1401     1.0  0.40238  0.87852  0.94917  1.0000
  H   H1402     1.0  0.30213  0.97340  0.92137  1.0000
  H   H1403     1.0  0.04921  0.84571  0.74250  1.0000
  H   H1404     1.0  0.23843  0.76080  0.59637  1.0000
  H   H1405     1.0  0.45257  0.80844  0.51747  1.0000
  H   H1406     1.0  0.43641  0.84068  0.71209  1.0000
  C   C800      1.0  0.44915  0.82270  0.68034  1.0000
  C   C801      1.0  0.45301  0.83886  0.70157  1.0000
  H   H1407     1.0  0.45838  0.85674  0.69518  1.0000
  H   H1408     1.0  0.46730  0.83166  0.71305  1.0000
  H   H1409     1.0  0.38579  0.76782  0.94046  1.0000
  H   H1410     1.0  0.18386  0.94420  0.78756  1.0000
  N   N43       1.0  0.15164  0.93010  0.75347  1.0000
  H   H1411     1.0  0.22799  0.94511  0.78446  1.0000
  C   C802      1.0  0.14067  0.91631  0.73348  1.0000
  H   H1412     1.0  0.12350  0.83582  0.64948  1.0000
  C   C803      1.0  0.13986  0.92412  0.77689  1.0000
  C   C804      1.0  0.15089  0.90354  0.79171  1.0000
  H   H1413     1.0  0.40925  0.75285  0.85679  1.0000
  H   H1414     1.0  0.13132  0.75520  0.91780  1.0000
  C   C805      1.0  0.14381  0.88901  0.73411  1.0000
  C   C806      1.0  0.13368  0.87761  0.71186  1.0000
  C   C807      1.0  0.13464  0.89648  0.81230  1.0000
  C   C808      1.0  0.19822  0.97729  0.58144  1.0000
  H   H1415     1.0  0.01194  0.79490  0.77876  1.0000
  C   C809      1.0  0.46423  0.84967  0.54046  1.0000
  H   H1416     1.0  0.44689  0.75526  0.71441  1.0000
  H   H1417     1.0  0.12118  0.91938  0.73286  1.0000
  H   H1418     1.0  0.14769  0.92290  0.71617  1.0000
  H   H1419     1.0  0.00750  0.87246  0.71974  1.0000
  H   H1420     1.0  0.49026  0.84402  0.49514  1.0000
  H   H1421     1.0  0.26812  0.98145  0.90641  1.0000
  H   H1422     1.0  0.12078  0.92003  0.77406  1.0000
  C   C810      1.0  0.11976  0.74282  0.97165  1.0000
  H   H1423     1.0  0.15442  0.88752  0.78106  1.0000
  H   H1424     1.0  0.23043  0.76650  0.52550  1.0000
  H   H1425     1.0  0.23356  0.86547  0.50998  1.0000
  H   H1426     1.0  0.06479  0.77586  0.77117  1.0000
  H   H1427     1.0  0.11565  0.95819  0.72631  1.0000
  H   H1428     1.0  0.16273  0.88374  0.73509  1.0000
  H   H1429     1.0  0.13391  0.88143  0.74936  1.0000
  H   H1430     1.0  0.14236  0.88490  0.69567  1.0000
  H   H1431     1.0  0.13680  0.85815  0.71238  1.0000
  H   H1432     1.0  0.11427  0.88087  0.71077  1.0000
  S   S190      1.0  0.14453  0.97872  0.68437  1.0000
  H   H1433     1.0  0.23586  0.90748  0.49738  1.0000
  H   H1434     1.0  0.40629  0.78235  0.52418  1.0000
  H   H1435     1.0  0.20255  0.91987  0.52981  1.0000
  N   N44       1.0  0.43905  0.77946  0.66900  1.0000
  C   C811      1.0  0.45296  0.85454  0.49793  1.0000
  H   H1436     1.0  0.19472  0.76395  0.96994  1.0000
  H   H1437     1.0  0.40944  0.91891  0.54613  1.0000
  H   H1438     1.0  0.45275  0.83058  0.85314  1.0000
  H   H1439     1.0  0.06423  0.78607  0.68179  1.0000
  H   H1440     1.0  0.02283  0.81697  0.66275  1.0000
  H   H1441     1.0  0.20986  0.96821  0.59449  1.0000
  C   C812      1.0  0.38182  0.80695  0.64060  1.0000
  H   H1442     1.0  0.43200  0.81488  0.54001  1.0000
  H   H1443     1.0  0.25278  0.96315  0.74154  1.0000
  H   H1444     1.0  0.46586  0.82246  0.66991  1.0000
  H   H1445     1.0  0.05118  0.86699  0.71884  1.0000
  H   H1446     1.0  0.22168  0.87415  0.53830  1.0000
  H   H1447     1.0  0.31524  0.77289  0.85892  1.0000
  H   H1448     1.0  0.32582  0.98336  0.93924  1.0000
  H   H1449     1.0  0.46773  0.79139  0.64632  1.0000
  C   C813      1.0  0.17806  0.92568  0.75353  1.0000
  H   H1450     1.0  0.00095  0.75886  0.84005  1.0000
  C   C814      1.0  0.32465  0.78251  0.87313  1.0000
  H   H1451     1.0  0.20493  0.87984  0.51163  1.0000
  H   H1452     1.0  0.00512  0.85034  0.74300  1.0000
  C   C815      1.0  0.01685  0.86391  0.73482  1.0000
  H   H1453     1.0  0.34855  0.74724  0.93999  1.0000
  H   H1454     1.0  0.04400  0.80544  0.74681  1.0000
  H   H1455     1.0  0.13974  0.93981  0.78882  1.0000
  C   C816      1.0  0.23506  0.90335  0.51652  1.0000
  H   H1456     1.0  0.32792  0.78265  0.91088  1.0000
  H   H1457     1.0  0.19239  0.95614  0.51250  1.0000
  C   C817      1.0  0.24807  0.74920  0.98303  1.0000
  H   H1458     1.0  0.45607  0.85237  0.55832  1.0000
  H   H1459     1.0  0.11751  0.88970  0.80558  1.0000
  H   H1460     1.0  0.29927  0.77411  0.90017  1.0000
  H   H1461     1.0  0.09104  0.80945  0.66319  1.0000
  H   H1462     1.0  0.42748  0.77695  0.50051  1.0000
  H   H1463     1.0  0.09482  0.84745  0.64146  1.0000
  H   H1464     1.0  0.39270  0.89989  0.52700  1.0000
  C   C818      1.0  0.43755  0.82039  0.52188  1.0000
  C   C819      1.0  0.22201  0.92284  0.53111  1.0000
  H   H1465     1.0  0.16804  0.90905  0.79940  1.0000
  C   C820      1.0  0.10671  0.84339  0.65660  1.0000
  Fe  Fe95      1.0  0.33422  0.85404  0.98667  1.0000
  C   C821      1.0  0.21047  0.78987  0.94655  1.0000
  H   H1466     1.0  0.47428  0.86619  0.53650  1.0000
  C   C822      1.0  0.07498  0.78665  0.75814  1.0000
  C   C823      1.0  0.46267  0.77544  0.65685  1.0000
  H   H1467     1.0  0.19149  0.94630  0.56052  1.0000
  C   C824      1.0  0.21115  0.95814  0.50671  1.0000
  H   H1468     1.0  0.02196  0.78721  0.63078  1.0000
  C   C825      1.0  0.40408  0.75594  0.87501  1.0000
  H   H1469     1.0  0.43600  0.89668  0.51936  1.0000
  H   H1470     1.0  0.14322  0.88223  0.82296  1.0000
  C   C826      1.0  0.19258  0.94199  0.77005  1.0000
  H   H1471     1.0  0.21412  0.97756  0.50432  1.0000
  C   C827      1.0  0.22301  0.87928  0.51933  1.0000
  H   H1472     1.0  0.39693  0.78344  0.49377  1.0000
  H   H1473     1.0  0.18542  0.92798  0.73528  1.0000
  C   C828      1.0  0.00929  0.75760  0.77114  1.0000
  H   H1474     1.0  0.05120  0.81338  0.64852  1.0000
  N   N45       1.0  0.44507  0.84605  0.52212  1.0000
  S   S191      1.0  0.34249  0.98311  0.86059  1.0000
  S   S192      1.0  0.18992  0.98033  0.64666  1.0000
  H   H1475     1.0  0.41492  0.85281  0.54512  1.0000
  C   C829      1.0  0.26503  0.76573  0.50909  1.0000
  N   N46       1.0  0.22776  0.94842  0.52532  1.0000
  H   H1476     1.0  0.08675  0.79892  0.71309  1.0000
  H   H1477     1.0  0.02051  0.87773  0.74821  1.0000
  H   H1478     1.0  0.41856  0.77484  0.63701  1.0000
  H   H1479     1.0  0.08267  0.80199  0.76758  1.0000
  H   H1480     1.0  0.17985  0.97734  0.58867  1.0000
  C   C830      1.0  0.21761  0.93229  0.77390  1.0000
  C   C831      1.0  0.39036  0.76451  0.92214  1.0000
  H   H1481     1.0  0.22676  0.92976  0.75659  1.0000
  C   C832      1.0  0.19876  0.96436  0.55770  1.0000
  C   C833      1.0  0.42369  0.86076  0.52927  1.0000
  H   H1482     1.0  0.39739  0.89168  0.55775  1.0000
  H   H1483     1.0  0.45676  0.79125  0.70052  1.0000
  C   C834      1.0  0.05847  0.79511  0.73841  1.0000
  N   N47       1.0  0.05740  0.81959  0.69945  1.0000
  H   H1484     1.0  0.27368  0.96174  0.54828  1.0000
  C   C835      1.0  0.07203  0.81031  0.71981  1.0000
  C   C836      1.0  0.03570  0.83287  0.70805  1.0000
  C   C837      1.0  0.03818  0.80482  0.66059  1.0000
  C   C838      1.0  0.04015  0.85266  0.72652  1.0000
  H   H1485     1.0  0.15827  0.96164  0.73228  1.0000
  H   H1486     1.0  0.13121  0.91191  0.82402  1.0000
  H   H1487     1.0  0.03580  0.78834  0.69493  1.0000
  C   C839      1.0  0.14139  0.75753  0.96328  1.0000
  H   H1488     1.0  0.08092  0.82513  0.72912  1.0000
  H   H1489     1.0  0.02241  0.82037  0.71562  1.0000
  H   H1490     1.0  0.02650  0.84154  0.69286  1.0000
  H   H1491     1.0  0.06156  0.84473  0.67067  1.0000
  H   H1492     1.0  0.38985  0.82389  0.63455  1.0000
  C   C840      1.0  0.07234  0.83639  0.68489  1.0000
  H   H1493     1.0  0.31004  0.93978  0.53876  1.0000
  C   C841      1.0  0.22434  0.96315  0.54743  1.0000
  H   H1494     1.0  0.18232  0.90704  0.75825  1.0000
  H   H1495     1.0  0.28077  0.95830  0.95703  1.0000
  C   C842      1.0  0.30000  0.96243  0.95762  1.0000
  C   C843      1.0  0.48238  0.82919  0.54444  1.0000
  C   C844      1.0  0.00526  0.78187  0.76653  1.0000
  H   H1496     1.0  0.19428  0.95991  0.76197  1.0000
  C   C845      1.0  0.25303  0.95181  0.51702  1.0000
  H   H1497     1.0  0.26783  0.93063  0.54637  1.0000
  C   C846      1.0  0.41716  0.81408  0.50478  1.0000
  C   C847      1.0  0.42163  0.78846  0.65079  1.0000
  H   H1498     1.0  0.25360  0.90128  0.52279  1.0000
  H   H1499     1.0  0.45915  0.87319  0.49880  1.0000
  C   C848      1.0  0.39676  0.79573  0.66026  1.0000
  H   H1500     1.0  0.42906  0.80387  0.64102  1.0000
  C   C849      1.0  0.25633  0.77252  0.98612  1.0000
  H   H1501     1.0  0.38705  0.77997  0.66695  1.0000
  H   H1502     1.0  0.25712  0.94082  0.50132  1.0000
  Fe  Fe96      1.0  0.15087  0.99061  0.64684  1.0000
  H   H1503     1.0  0.34648  0.74629  0.89830  1.0000
  H   H1504     1.0  0.28583  0.75094  0.92930  1.0000
  H   H1505     1.0  0.45018  0.75511  0.62599  1.0000
  C   C850      1.0  0.32678  0.74575  0.89923  1.0000
  C   C851      1.0  0.46409  0.75402  0.63975  1.0000
  H   H1506     1.0  0.35529  0.74879  0.98378  1.0000
  H   H1507     1.0  0.30200  0.95836  0.51387  1.0000
  H   H1508     1.0  0.32674  0.76292  0.98869  1.0000
  H   H1509     1.0  0.29662  0.92664  0.51324  1.0000
  C   C852      1.0  0.33610  0.74561  0.98689  1.0000
  C   C853      1.0  0.32926  0.74440  0.94253  1.0000
  H   H1510     1.0  0.41269  0.76027  0.68927  1.0000
  C   C854      1.0  0.42965  0.75681  0.67973  1.0000
  H   H1511     1.0  0.27176  0.99119  0.76936  1.0000
  C   C855      1.0  0.23078  0.74292  0.49546  1.0000
  H   H1512     1.0  0.10172  0.77170  0.99013  1.0000
  C   C856      1.0  0.99267  0.78944  0.74627  1.0000
  H   H1513     1.0  0.49029  0.76884  0.61539  1.0000
  C   C857      1.0  0.48806  0.75306  0.62704  1.0000
  C   C858      1.0  0.11910  0.99108  0.74475  1.0000
  H   H1514     1.0  0.10593  0.74246  0.95772  1.0000
  H   H1515     1.0  0.42511  0.74392  0.66562  1.0000
  C   C859      1.0  0.44604  0.74445  0.69811  1.0000
  H   H1516     1.0  0.99188  0.75304  0.87008  1.0000
  C   C860      1.0  0.24727  0.74796  0.58431  1.0000
  H   H1517     1.0  0.59653  0.01923  0.15698  1.0000
  S   S193      1.0  0.86086  0.03074  0.34052  1.0000
  Fe  Fe97      1.0  0.69170  0.04587  0.18549  1.0000
  S   S194      1.0  0.65482  0.03148  0.18932  1.0000
  S   S195      1.0  0.71370  0.04187  0.21934  1.0000
  Fe  Fe98      1.0  0.67937  0.06811  0.13658  1.0000
  S   S196      1.0  0.64190  0.05488  0.13842  1.0000
  S   S197      1.0  0.69483  0.09001  0.10564  1.0000
  Fe  Fe99      1.0  0.64194  0.06719  0.17674  1.0000
  S   S198      1.0  0.61069  0.08933  0.19220  1.0000
  Fe  Fe100     1.0  0.65862  0.02053  0.15107  1.0000
  S   S199      1.0  0.67864  0.08215  0.17407  1.0000
  S   S200      1.0  0.69622  0.03316  0.14790  1.0000
  Fe  Fe101     1.0  0.53333  0.20982  0.31303  1.0000
  S   S201      1.0  0.51975  0.17449  0.30077  1.0000
  H   H1518     1.0  0.67599  0.99238  0.21894  1.0000
  Fe  Fe102     1.0  0.55455  0.18835  0.35935  1.0000
  S   S202      1.0  0.54223  0.15175  0.34972  1.0000
  S   S203      1.0  0.57080  0.20094  0.39454  1.0000
  Fe  Fe103     1.0  0.55536  0.15978  0.31228  1.0000
  S   S204      1.0  0.58127  0.13373  0.29332  1.0000
  Fe  Fe104     1.0  0.50784  0.16962  0.33905  1.0000
  S   S205      1.0  0.56951  0.19562  0.32286  1.0000
  S   S206      1.0  0.51948  0.20568  0.35035  1.0000
  S   S207      1.0  0.64500  0.14335  0.01817  1.0000
  S   S208      1.0  0.64061  0.15490  0.47163  1.0000
  Fe  Fe105     1.0  0.93394  0.15104  0.30792  1.0000
  S   S209      1.0  0.94564  0.15218  0.34570  1.0000
  S   S210      1.0  0.91538  0.11841  0.29235  1.0000
  Fe  Fe106     1.0  0.95670  0.19996  0.29696  1.0000
  H   H1519     1.0  0.55600  0.01352  0.26213  1.0000
  Fe  Fe107     1.0  0.93397  0.19080  0.34565  1.0000
  S   S211      1.0  0.91101  0.20521  0.37645  1.0000
  S   S212      1.0  0.96944  0.16224  0.29256  1.0000
  S   S213      1.0  0.91990  0.18875  0.30846  1.0000
  H   H1520     1.0  0.67711  0.10202  0.99415  1.0000
  H   H1521     1.0  0.87129  0.00888  0.21288  1.0000
  C   C861      1.0  0.93531  0.00793  0.31635  1.0000
  C   C862      1.0  0.63995  0.23296  0.39587  1.0000
  H   H1522     1.0  0.57348  0.09935  0.11395  1.0000
  H   H1523     1.0  0.79098  0.07089  0.32308  1.0000
  C   C863      1.0  0.84757  0.03400  0.23009  1.0000
  H   H1524     1.0  0.94082  0.05536  0.32540  1.0000
  H   H1525     1.0  0.72184  0.16979  0.45011  1.0000
  H   H1526     1.0  0.67083  0.21080  0.40083  1.0000
  H   H1527     1.0  0.71749  0.12031  0.00168  1.0000
  C   C864      1.0  0.63764  0.16199  0.10208  1.0000
  N   N48       1.0  0.66840  0.23281  0.43221  1.0000
  C   C865      1.0  0.58997  0.18744  0.41577  1.0000
  C   C866      1.0  0.59620  0.20039  0.43605  1.0000
  C   C867      1.0  0.61164  0.19073  0.45323  1.0000
  C   C868      1.0  0.62095  0.16784  0.45050  1.0000
  C   C869      1.0  0.61479  0.15492  0.43020  1.0000
  C   C870      1.0  0.59943  0.16463  0.41293  1.0000
  H   H1528     1.0  0.58912  0.21811  0.43836  1.0000
  H   H1529     1.0  0.61652  0.20107  0.46845  1.0000
  H   H1530     1.0  0.62197  0.13725  0.42777  1.0000
  H   H1531     1.0  0.59494  0.15447  0.39739  1.0000
  C   C871      1.0  0.68098  0.10335  0.08041  1.0000
  C   C872      1.0  0.65699  0.10004  0.07528  1.0000
  C   C873      1.0  0.64642  0.11210  0.05597  1.0000
  C   C874      1.0  0.65975  0.12727  0.04118  1.0000
  C   C875      1.0  0.68393  0.12994  0.04579  1.0000
  C   C876      1.0  0.69441  0.11813  0.06531  1.0000
  H   H1532     1.0  0.64655  0.08832  0.08636  1.0000
  H   H1533     1.0  0.62774  0.10975  0.05252  1.0000
  H   H1534     1.0  0.69443  0.14164  0.03474  1.0000
  H   H1535     1.0  0.71302  0.12078  0.06896  1.0000
  C   C877      1.0  0.60419  0.10357  0.21994  1.0000
  C   C878      1.0  0.58332  0.11732  0.22213  1.0000
  C   C879      1.0  0.57647  0.12750  0.24407  1.0000
  C   C880      1.0  0.59020  0.12375  0.26439  1.0000
  C   C881      1.0  0.61133  0.11040  0.26204  1.0000
  C   C882      1.0  0.61843  0.10068  0.24002  1.0000
  H   H1536     1.0  0.57213  0.11985  0.20682  1.0000
  H   H1537     1.0  0.56019  0.13764  0.24542  1.0000
  H   H1538     1.0  0.62224  0.10742  0.27750  1.0000
  H   H1539     1.0  0.63472  0.09056  0.23874  1.0000
  C   C883      1.0  0.87774  0.05392  0.32690  1.0000
  C   C884      1.0  0.88178  0.05502  0.30243  1.0000
  C   C885      1.0  0.89345  0.07475  0.29223  1.0000
  C   C886      1.0  0.90188  0.09336  0.30637  1.0000
  C   C887      1.0  0.89913  0.09157  0.33096  1.0000
  C   C888      1.0  0.88682  0.07219  0.34109  1.0000
  H   H1540     1.0  0.87573  0.04075  0.29138  1.0000
  H   H1541     1.0  0.89595  0.07560  0.27322  1.0000
  H   H1542     1.0  0.90631  0.10522  0.34213  1.0000
  H   H1543     1.0  0.88428  0.07132  0.36010  1.0000
  H   H1544     1.0  0.80896  0.04882  0.33787  1.0000
  C   C889      1.0  0.73665  0.02181  0.22771  1.0000
  H   H1545     1.0  0.62540  0.01426  0.26667  1.0000
  H   H1546     1.0  0.78418  0.03962  0.32029  1.0000
  H   H1547     1.0  0.73135  0.02831  0.26497  1.0000
  H   H1548     1.0  0.82345  0.03331  0.30050  1.0000
  H   H1549     1.0  0.75099  0.09208  0.21314  1.0000
  S   S214      1.0  0.97011  0.20309  0.33430  1.0000
  N   N49       1.0  0.85296  0.15801  0.36421  1.0000
  C   C890      1.0  0.87785  0.14971  0.36964  1.0000
  C   C891      1.0  0.85057  0.16351  0.33800  1.0000
  C   C892      1.0  0.84875  0.18083  0.37759  1.0000
  C   C893      1.0  0.83460  0.14031  0.37226  1.0000
  C   C894      1.0  0.83715  0.11481  0.36247  1.0000
  C   C895      1.0  0.88350  0.14446  0.39605  1.0000
  C   C896      1.0  0.82483  0.19377  0.37288  1.0000
  C   C897      1.0  0.86514  0.14807  0.32041  1.0000
  C   C898      1.0  0.85851  0.15374  0.29478  1.0000
  C   C899      1.0  0.81979  0.09791  0.37466  1.0000
  C   C900      1.0  0.90871  0.13480  0.39886  1.0000
  H   H1550     1.0  0.94336  0.03191  0.28811  1.0000
  H   H1551     1.0  0.89081  0.16305  0.36310  1.0000
  H   H1552     1.0  0.88238  0.13343  0.35977  1.0000
  H   H1553     1.0  0.83162  0.16284  0.33262  1.0000
  H   H1554     1.0  0.85646  0.18204  0.33417  1.0000
  H   H1555     1.0  0.86319  0.19363  0.37351  1.0000
  H   H1556     1.0  0.84934  0.17777  0.39705  1.0000
  H   H1557     1.0  0.83408  0.13926  0.39196  1.0000
  H   H1558     1.0  0.81656  0.14643  0.36710  1.0000
  H   H1559     1.0  0.85513  0.10740  0.36529  1.0000
  H   H1560     1.0  0.83295  0.11464  0.34330  1.0000
  H   H1561     1.0  0.88240  0.16085  0.40679  1.0000
  H   H1562     1.0  0.87118  0.13107  0.40352  1.0000
  C   C901      1.0  0.66156  0.05949  0.00964  1.0000
  H   H1563     1.0  0.58175  0.02224  0.27772  1.0000
  H   H1564     1.0  0.88434  0.15178  0.32233  1.0000
  H   H1565     1.0  0.86259  0.12887  0.32338  1.0000
  H   H1566     1.0  0.86976  0.14305  0.28263  1.0000
  H   H1567     1.0  0.83964  0.14938  0.29149  1.0000
  H   H1568     1.0  0.86159  0.17280  0.29074  1.0000
  H   H1569     1.0  0.80119  0.10374  0.37167  1.0000
  H   H1570     1.0  0.82210  0.07980  0.36729  1.0000
  H   H1571     1.0  0.82326  0.09696  0.39400  1.0000
  H   H1572     1.0  0.91137  0.11846  0.38823  1.0000
  H   H1573     1.0  0.92178  0.14841  0.39322  1.0000
  H   H1574     1.0  0.91202  0.13044  0.41777  1.0000
  H   H1575     1.0  0.66475  0.20370  0.45701  1.0000
  C   C902      1.0  0.59328  0.00932  0.17376  1.0000
  C   C903      1.0  0.65703  0.21892  0.41244  1.0000
  H   H1576     1.0  0.62492  0.20093  0.38050  1.0000
  H   H1577     1.0  0.64895  0.17720  0.10726  1.0000
  H   H1578     1.0  0.69586  0.04379  0.02150  1.0000
  C   C904      1.0  0.81509  0.05117  0.29998  1.0000
  C   C905      1.0  0.82415  0.21791  0.38511  1.0000
  C   C906      1.0  0.76686  0.08050  0.21105  1.0000
  C   C907      1.0  0.76947  0.99506  0.21853  1.0000
  H   H1579     1.0  0.62340  0.23790  0.40543  1.0000
  H   H1580     1.0  0.94340  0.00007  0.33249  1.0000
  H   H1581     1.0  0.74709  0.01234  0.19237  1.0000
  S   S215      1.0  0.96136  0.23358  0.27453  1.0000
  C   C908      1.0  0.95802  0.04637  0.32117  1.0000
  H   H1582     1.0  0.64318  0.05232  0.01002  1.0000
  H   H1583     1.0  0.66088  0.07570  0.02086  1.0000
  H   H1584     1.0  0.53458  0.09221  0.26674  1.0000
  H   H1585     1.0  0.62641  0.08906  0.00055  1.0000
  C   C909      1.0  0.76072  0.00417  0.25942  1.0000
  H   H1586     1.0  0.79070  0.04015  0.23134  1.0000
  C   C910      1.0  0.53760  0.07981  0.25176  1.0000
  C   C911      1.0  0.70807  0.18155  0.45796  1.0000
  H   H1587     1.0  0.60023  0.08188  0.10965  1.0000
  H   H1588     1.0  0.96404  0.03831  0.33805  1.0000
  H   H1589     1.0  0.86156  0.04771  0.23075  1.0000
  H   H1590     1.0  0.96828  0.05927  0.27465  1.0000
  C   C912      1.0  0.63278  0.21800  0.37459  1.0000
  C   C913      1.0  0.53922  0.14421  0.43758  1.0000
  C   C914      1.0  0.77822  0.07609  0.23522  1.0000
  H   H1591     1.0  0.61298  0.19596  0.05612  1.0000
  H   H1592     1.0  0.83737  0.03587  0.21346  1.0000
  H   H1593     1.0  0.84371  0.03451  0.26752  1.0000
  H   H1594     1.0  0.58338  0.07904  0.13671  1.0000
  H   H1595     1.0  0.84692  0.12613  0.24921  1.0000
  N   N50       1.0  0.58362  0.02869  0.23983  1.0000
  C   C915      1.0  0.58482  0.01357  0.21782  1.0000
  H   H1596     1.0  0.65083  0.03597  0.05157  1.0000
  C   C916      1.0  0.56523  0.04788  0.23565  1.0000
  C   C917      1.0  0.60694  0.04064  0.24472  1.0000
  C   C918      1.0  0.62842  0.02430  0.24999  1.0000
  C   C919      1.0  0.58908  0.02679  0.19398  1.0000
  C   C920      1.0  0.97655  0.08532  0.32879  1.0000
  H   H1597     1.0  0.84471  0.08075  0.21943  1.0000
  H   H1598     1.0  0.63538  0.20539  0.07663  1.0000
  C   C921      1.0  0.65094  0.03883  0.25361  1.0000
  H   H1599     1.0  0.64670  0.20374  0.41980  1.0000
  C   C922      1.0  0.75240  0.22593  0.99418  1.0000
  H   H1600     1.0  0.51837  0.14824  0.46916  1.0000
  H   H1601     1.0  0.71352  0.20861  0.43181  1.0000
  H   H1602     1.0  0.74816  0.20724  0.99473  1.0000
  C   C923      1.0  0.97889  0.09563  0.27771  1.0000
  N   N51       1.0  0.97550  0.06452  0.31198  1.0000
  H   H1603     1.0  0.57130  0.06044  0.22157  1.0000
  H   H1604     1.0  0.61188  0.05257  0.22983  1.0000
  H   H1605     1.0  0.60527  0.05243  0.26036  1.0000
  C   C924      1.0  0.93097  0.22922  0.21490  1.0000
  H   H1606     1.0  0.63224  0.23747  0.44461  1.0000
  H   H1607     1.0  0.57345  0.03784  0.18917  1.0000
  H   H1608     1.0  0.60472  0.03838  0.19488  1.0000
  H   H1609     1.0  0.74251  0.00397  0.14214  1.0000
  H   H1610     1.0  0.80981  0.18320  0.37996  1.0000
  C   C925      1.0  0.75055  0.00976  0.21104  1.0000
  C   C926      1.0  0.96652  0.07336  0.28828  1.0000
  H   H1611     1.0  0.69365  0.17025  0.46523  1.0000
  H   H1612     1.0  0.82686  0.21588  0.40451  1.0000
  H   H1613     1.0  0.65491  0.04994  0.23779  1.0000
  H   H1614     1.0  0.64897  0.05058  0.26924  1.0000
  H   H1615     1.0  0.66628  0.02675  0.25662  1.0000
  H   H1616     1.0  0.67321  0.02264  0.01511  1.0000
  H   H1617     1.0  0.59885  0.99980  0.21934  1.0000
  H   H1618     1.0  0.92009  0.21294  0.21362  1.0000
  H   H1619     1.0  0.78207  0.22250  0.01805  1.0000
  H   H1620     1.0  0.55789  0.14085  0.43214  1.0000
  H   H1621     1.0  0.68714  0.22387  0.46480  1.0000
  H   H1622     1.0  0.95495  0.07778  0.36035  1.0000
  H   H1623     1.0  0.97220  0.08748  0.24060  1.0000
  C   C927      1.0  0.96880  0.10202  0.25339  1.0000
  C   C928      1.0  0.95227  0.02546  0.30443  1.0000
  H   H1624     1.0  0.54319  0.18416  0.46410  1.0000
  C   C929      1.0  0.67905  0.21505  0.44934  1.0000
  C   C930      1.0  0.55875  0.06367  0.25729  1.0000
  H   H1625     1.0  0.58475  0.13582  0.48461  1.0000
  C   C931      1.0  0.88420  0.23697  0.40284  1.0000
  H   H1626     1.0  0.60639  0.19233  0.18062  1.0000
  C   C932      1.0  0.97404  0.07976  0.35576  1.0000
  H   H1627     1.0  0.82913  0.06471  0.30188  1.0000
  C   C933      1.0  0.90090  0.23439  0.38431  1.0000
  C   C934      1.0  0.74191  0.01897  0.25192  1.0000
  H   H1628     1.0  0.60414  0.18187  0.09722  1.0000
  C   C935      1.0  0.53741  0.14659  0.46452  1.0000
  H   H1629     1.0  0.78891  0.03934  0.27499  1.0000
  N   N52       1.0  0.62982  0.14811  0.12378  1.0000
  C   C936      1.0  0.65161  0.13619  0.13392  1.0000
  C   C937      1.0  0.61262  0.12946  0.11557  1.0000
  C   C938      1.0  0.61794  0.16485  0.14109  1.0000
  C   C939      1.0  0.61937  0.15814  0.16784  1.0000
  C   C940      1.0  0.67291  0.15288  0.13836  1.0000
  C   C941      1.0  0.60394  0.11133  0.13427  1.0000
  C   C942      1.0  0.58935  0.09176  0.12282  1.0000
  C   C943      1.0  0.60237  0.17317  0.18275  1.0000
  C   C944      1.0  0.69138  0.14140  0.15452  1.0000
  H   H1630     1.0  0.65797  0.12202  0.12179  1.0000
  H   H1631     1.0  0.64762  0.12666  0.15070  1.0000
  H   H1632     1.0  0.62056  0.11936  0.10064  1.0000
  H   H1633     1.0  0.63756  0.16116  0.17455  1.0000
  H   H1634     1.0  0.61514  0.13933  0.17131  1.0000
  H   H1635     1.0  0.68189  0.15707  0.12126  1.0000
  H   H1636     1.0  0.66702  0.16980  0.14649  1.0000
  H   H1637     1.0  0.61894  0.10257  0.14338  1.0000
  H   H1638     1.0  0.59225  0.12017  0.14742  1.0000
  H   H1639     1.0  0.62563  0.18297  0.13961  1.0000
  H   H1640     1.0  0.80668  0.22660  0.38216  1.0000
  H   H1641     1.0  0.71621  0.19176  0.47254  1.0000
  H   H1642     1.0  0.60429  0.16827  0.20176  1.0000
  H   H1643     1.0  0.77956  0.08937  0.19882  1.0000
  H   H1644     1.0  0.70645  0.15371  0.15692  1.0000
  H   H1645     1.0  0.68357  0.13738  0.17219  1.0000
  H   H1646     1.0  0.69832  0.12480  0.14647  1.0000
  H   H1647     1.0  0.64901  0.15070  0.09040  1.0000
  H   H1648     1.0  0.55400  0.05308  0.27322  1.0000
  H   H1649     1.0  0.96860  0.01559  0.29943  1.0000
  H   H1650     1.0  0.82042  0.01952  0.25320  1.0000
  H   H1651     1.0  0.60911  0.99805  0.17733  1.0000
  H   H1652     1.0  0.76420  0.06907  0.24725  1.0000
  Fe  Fe108     1.0  0.84639  0.99547  0.32590  1.0000
  H   H1653     1.0  0.82094  0.10109  0.22478  1.0000
  C   C945      1.0  0.67661  0.04039  0.02282  1.0000
  C   C946      1.0  0.67012  0.03910  0.04913  1.0000
  H   H1654     1.0  0.82192  0.19700  0.35371  1.0000
  H   H1655     1.0  0.60876  0.15797  0.07645  1.0000
  H   H1656     1.0  0.78949  0.07050  0.27930  1.0000
  C   C947      1.0  0.98421  0.09957  0.37091  1.0000
  H   H1657     1.0  0.54851  0.03984  0.22905  1.0000
  H   H1658     1.0  0.87200  0.00765  0.24475  1.0000
  C   C948      1.0  0.62747  0.18973  0.06791  1.0000
  C   C949      1.0  0.85472  0.11264  0.23718  1.0000
  H   H1659     1.0  0.84709  0.07591  0.26594  1.0000
  H   H1660     1.0  0.98308  0.06318  0.36119  1.0000
  H   H1661     1.0  0.80845  0.06109  0.21660  1.0000
  H   H1662     1.0  0.57760  0.99779  0.17134  1.0000
  H   H1663     1.0  0.96187  0.09816  0.32502  1.0000
  H   H1664     1.0  0.69104  0.18709  0.42471  1.0000
  H   H1665     1.0  0.78426  0.09332  0.24233  1.0000
  H   H1666     1.0  0.94725  0.07760  0.28953  1.0000
  C   C950      1.0  0.77170  0.23464  0.00733  1.0000
  H   H1667     1.0  0.53278  0.16059  0.42856  1.0000
  H   H1668     1.0  0.67506  0.05580  0.05811  1.0000
  H   H1669     1.0  0.91838  0.01689  0.32129  1.0000
  H   H1670     1.0  0.67997  0.02427  0.05771  1.0000
  C   C951      1.0  0.79869  0.05279  0.32156  1.0000
  C   C952      1.0  0.69836  0.19832  0.43895  1.0000
  C   C953      1.0  0.61759  0.17239  0.08636  1.0000
  Fe  Fe109     1.0  0.98057  0.16454  0.33055  1.0000
  H   H1671     1.0  0.64119  0.18091  0.05677  1.0000
  H   H1672     1.0  0.82097  0.09328  0.26725  1.0000
  H   H1673     1.0  0.59890  0.16725  0.13646  1.0000
  H   H1674     1.0  0.87127  0.10543  0.24513  1.0000
  H   H1675     1.0  0.57381  0.07523  0.26194  1.0000
  H   H1676     1.0  0.59623  0.13784  0.10845  1.0000
  H   H1677     1.0  0.76110  0.06352  0.20311  1.0000
  H   H1678     1.0  0.85934  0.12148  0.22015  1.0000
  H   H1679     1.0  0.56787  0.00374  0.21581  1.0000
  H   H1680     1.0  0.52831  0.12907  0.43161  1.0000
  H   H1681     1.0  0.64836  0.21427  0.36306  1.0000
  H   H1682     1.0  0.87772  0.22134  0.41192  1.0000
  C   C954      1.0  0.86023  0.00996  0.22918  1.0000
  H   H1683     1.0  0.58372  0.16987  0.17754  1.0000
  N   N53       1.0  0.81575  0.05748  0.25426  1.0000
  C   C955      1.0  0.79893  0.05791  0.23354  1.0000
  C   C956      1.0  0.83146  0.03579  0.25230  1.0000
  C   C957      1.0  0.80108  0.05469  0.27661  1.0000
  C   C958      1.0  0.83035  0.07980  0.25622  1.0000
  C   C959      1.0  0.83694  0.09282  0.23277  1.0000
  H   H1684     1.0  0.84718  0.99526  0.22890  1.0000
  H   H1685     1.0  0.97739  0.11839  0.24657  1.0000
  H   H1686     1.0  0.70784  0.08009  0.01510  1.0000
  H   H1687     1.0  0.52133  0.06915  0.24925  1.0000
  H   H1688     1.0  0.54100  0.09049  0.23551  1.0000
  C   C960      1.0  0.57575  0.01390  0.26093  1.0000
  H   H1689     1.0  0.94942  0.10537  0.25460  1.0000
  H   H1690     1.0  0.63186  0.01180  0.23528  1.0000
  C   C961      1.0  0.49417  0.23998  0.26117  1.0000
  C   C962      1.0  0.77480  0.99235  0.24276  1.0000
  H   H1691     1.0  0.54442  0.12993  0.47242  1.0000
  H   H1692     1.0  0.99131  0.20638  0.24172  1.0000
  H   H1693     1.0  0.94994  0.22392  0.21433  1.0000
  H   H1694     1.0  0.75371  0.13966  0.48559  1.0000
  H   H1695     1.0  0.61927  0.22770  0.36398  1.0000
  H   H1696     1.0  0.92705  0.23786  0.23214  1.0000
  H   H1697     1.0  0.98112  0.09560  0.38997  1.0000
  H   H1698     1.0  0.69926  0.23818  0.40981  1.0000
  H   H1699     1.0  0.65084  0.23770  0.48204  1.0000
  H   H1700     1.0  0.97565  0.11680  0.36665  1.0000
  H   H1701     1.0  0.49407  0.22148  0.26628  1.0000
  H   H1702     1.0  0.76443  0.00207  0.27811  1.0000
  H   H1703     1.0  0.83815  0.22969  0.37775  1.0000
  H   H1704     1.0  0.97618  0.11119  0.28931  1.0000
  H   H1705     1.0  0.73031  0.99617  0.11382  1.0000
  H   H1706     1.0  0.76136  0.23582  0.48118  1.0000
  C   C963      1.0  0.55131  0.16853  0.47312  1.0000
  H   H1707     1.0  0.55822  0.21778  0.47637  1.0000
  H   H1708     1.0  0.56958  0.16739  0.46572  1.0000
  H   H1709     1.0  0.92987  0.23661  0.17768  1.0000
  H   H1710     1.0  0.98205  0.24060  0.12027  1.0000
  H   H1711     1.0  0.93115  0.99332  0.30394  1.0000
  H   H1712     1.0  0.74321  0.10136  0.00037  1.0000
  H   H1713     1.0  0.98080  0.99876  0.36704  1.0000
  C   C964      1.0  0.72551  0.10482  0.99252  1.0000
  C   C965      1.0  0.70987  0.08301  0.99574  1.0000
  C   C966      1.0  0.98183  0.24183  0.25193  1.0000
  Fe  Fe110     1.0  0.68037  0.14893  0.93654  1.0000
  S   S216      1.0  0.64311  0.15100  0.95006  1.0000
  S   S217      1.0  0.69469  0.11588  0.91695  1.0000
  Fe  Fe111     1.0  0.69264  0.19757  0.95967  1.0000
  S   S218      1.0  0.65569  0.20113  0.97506  1.0000
  H   H1714     1.0  0.76232  0.22115  0.57491  1.0000
  H   H1715     1.0  0.69569  0.03815  0.98154  1.0000
  Fe  Fe112     1.0  0.64314  0.18976  0.93903  1.0000
  S   S219      1.0  0.61156  0.20440  0.91724  1.0000
  S   S220      1.0  0.69700  0.15928  0.97144  1.0000
  S   S221      1.0  0.67976  0.18692  0.92327  1.0000
  H   H1716     1.0  0.79637  0.19144  0.52576  1.0000
  S   S222      1.0  0.51155  0.15237  0.63752  1.0000
  H   H1717     1.0  0.96730  0.22758  0.65040  1.0000
  S   S223      1.0  0.64549  0.03313  0.85659  1.0000
  Fe  Fe113     1.0  0.84073  0.01701  0.65324  1.0000
  S   S224      1.0  0.84475  0.03174  0.68990  1.0000
  Fe  Fe114     1.0  0.81068  0.06104  0.63665  1.0000
  S   S225      1.0  0.81429  0.07819  0.67234  1.0000
  S   S226      1.0  0.79238  0.07799  0.60390  1.0000
  Fe  Fe115     1.0  0.85263  0.06655  0.67160  1.0000
  S   S227      1.0  0.88443  0.08646  0.68700  1.0000
  Fe  Fe116     1.0  0.80605  0.04182  0.68737  1.0000
  S   S228      1.0  0.77914  0.04331  0.71804  1.0000
  S   S229      1.0  0.84987  0.05163  0.63506  1.0000
  S   S230      1.0  0.80119  0.02491  0.65156  1.0000
  Fe  Fe117     1.0  0.67695  0.16364  0.55528  1.0000
  S   S231      1.0  0.66244  0.19883  0.56833  1.0000
  S   S232      1.0  0.70194  0.14566  0.58272  1.0000
  Fe  Fe118     1.0  0.64950  0.16973  0.50817  1.0000
  S   S233      1.0  0.63452  0.20478  0.51880  1.0000
  Fe  Fe119     1.0  0.67116  0.21274  0.53187  1.0000
  C   C967      1.0  0.60859  0.09655  0.96787  1.0000
  Fe  Fe120     1.0  0.62700  0.18757  0.55420  1.0000
  S   S234      1.0  0.59051  0.19828  0.56935  1.0000
  S   S235      1.0  0.68693  0.17846  0.51927  1.0000
  S   S236      1.0  0.64058  0.15162  0.54305  1.0000
  S   S237      1.0  0.96784  0.14586  0.63729  1.0000
  H   H1718     1.0  0.51046  0.18739  0.71520  1.0000
  C   C968      1.0  0.90771  0.10228  0.67247  1.0000
  C   C969      1.0  0.92821  0.10798  0.68534  1.0000
  C   C970      1.0  0.94695  0.12083  0.67476  1.0000
  C   C971      1.0  0.94525  0.12863  0.65124  1.0000
  C   C972      1.0  0.92474  0.12293  0.63838  1.0000
  C   C973      1.0  0.90616  0.10972  0.64883  1.0000
  H   H1719     1.0  0.92976  0.10224  0.70356  1.0000
  H   H1720     1.0  0.96272  0.12475  0.68479  1.0000
  H   H1721     1.0  0.92321  0.12880  0.62015  1.0000
  H   H1722     1.0  0.89053  0.10558  0.63865  1.0000
  C   C974      1.0  0.76671  0.09635  0.59869  1.0000
  C   C975      1.0  0.75419  0.10772  0.61694  1.0000
  C   C976      1.0  0.73455  0.12265  0.61170  1.0000
  C   C977      1.0  0.72687  0.12636  0.58821  1.0000
  C   C978      1.0  0.73933  0.11491  0.57001  1.0000
  C   C979      1.0  0.75913  0.10024  0.57519  1.0000
  H   H1723     1.0  0.75967  0.10509  0.63510  1.0000
  H   H1724     1.0  0.72513  0.13127  0.62603  1.0000
  H   H1725     1.0  0.73348  0.11708  0.55196  1.0000
  H   H1726     1.0  0.76854  0.09158  0.56087  1.0000
  C   C980      1.0  0.76263  0.02164  0.73412  1.0000
  C   C981      1.0  0.74542  0.02933  0.75059  1.0000
  C   C982      1.0  0.73273  0.01298  0.76476  1.0000
  H   H1727     1.0  0.74194  0.04812  0.75249  1.0000
  H   H1728     1.0  0.71972  0.01924  0.77746  1.0000
  C   C983      1.0  0.53267  0.16466  0.61727  1.0000
  C   C984      1.0  0.55390  0.15220  0.61256  1.0000
  C   C985      1.0  0.57157  0.16182  0.59748  1.0000
  C   C986      1.0  0.56835  0.18422  0.58714  1.0000
  C   C987      1.0  0.54700  0.19652  0.59160  1.0000
  C   C988      1.0  0.52925  0.18679  0.60642  1.0000
  H   H1729     1.0  0.55680  0.13506  0.62081  1.0000
  H   H1730     1.0  0.58786  0.15210  0.59432  1.0000
  H   H1731     1.0  0.54425  0.21386  0.58375  1.0000
  H   H1732     1.0  0.51308  0.19663  0.60976  1.0000
  C   C989      1.0  0.68052  0.09270  0.90080  1.0000
  C   C990      1.0  0.65584  0.09072  0.89937  1.0000
  C   C991      1.0  0.64553  0.07237  0.88595  1.0000
  C   C992      1.0  0.65963  0.05535  0.87411  1.0000
  C   C993      1.0  0.68432  0.05704  0.87599  1.0000
  C   C994      1.0  0.69462  0.07563  0.88911  1.0000
  H   H1733     1.0  0.64470  0.10328  0.90867  1.0000
  H   H1734     1.0  0.62643  0.07124  0.88479  1.0000
  H   H1735     1.0  0.69547  0.04423  0.86702  1.0000
  H   H1736     1.0  0.71372  0.07680  0.89015  1.0000
  C   C995      1.0  0.93550  0.99456  0.62841  1.0000
  H   H1737     1.0  0.90091  0.18906  0.68352  1.0000
  H   H1738     1.0  0.90403  0.02783  0.63224  1.0000
  C   C996      1.0  0.69604  0.15061  0.85992  1.0000
  H   H1739     1.0  0.49387  0.20765  0.53089  1.0000
  H   H1740     1.0  0.92018  0.99790  0.67684  1.0000
  H   H1741     1.0  0.70163  0.16893  0.86429  1.0000
  H   H1742     1.0  0.72815  0.15450  0.49783  1.0000
  C   C997      1.0  0.82008  0.23183  0.53088  1.0000
  C   C998      1.0  0.91243  0.01585  0.67928  1.0000
  C   C999      1.0  0.58991  0.22111  0.63766  1.0000
  C   C1000     1.0  0.52480  0.18455  0.53475  1.0000
  H   H1743     1.0  0.51724  0.16486  0.69333  1.0000
  H   H1744     1.0  0.66862  0.14973  0.88630  1.0000
  N   N54       1.0  0.66887  0.06589  0.98448  1.0000
  H   H1745     1.0  0.53174  0.16432  0.72168  1.0000
  H   H1746     1.0  0.71943  0.06782  0.98770  1.0000
  H   H1747     1.0  0.69983  0.01999  0.68187  1.0000
  H   H1748     1.0  0.98403  0.17947  0.71159  1.0000
  H   H1749     1.0  0.65148  0.07917  0.95279  1.0000
  C   C1001     1.0  0.67968  0.04464  0.97219  1.0000
  C   C1002     1.0  0.80184  0.22146  0.54815  1.0000
  C   C1003     1.0  0.97714  0.05691  0.66146  1.0000
  H   H1750     1.0  0.62382  0.15142  0.81905  1.0000
  H   H1751     1.0  0.96466  0.01855  0.62555  1.0000
  C   C1004     1.0  0.76947  0.00570  0.81669  1.0000
  H   H1752     1.0  0.85803  0.23049  0.97051  1.0000
  H   H1753     1.0  0.52064  0.21868  0.68586  1.0000
  H   H1754     1.0  0.57606  0.22898  0.69706  1.0000
  H   H1755     1.0  0.63976  0.20064  0.82721  1.0000
  H   H1756     1.0  0.61281  0.18928  0.81472  1.0000
  H   H1757     1.0  0.79200  0.23670  0.55582  1.0000
  H   H1758     1.0  0.54767  0.13597  0.51188  1.0000
  H   H1759     1.0  0.74517  0.22377  0.54850  1.0000
  H   H1760     1.0  0.59828  0.14539  0.83611  1.0000
  C   C1005     1.0  0.61506  0.18461  0.85343  1.0000
  H   H1761     1.0  0.88488  0.18638  0.72325  1.0000
  C   C1006     1.0  0.95481  0.21471  0.64263  1.0000
  H   H1762     1.0  0.89182  0.03128  0.59138  1.0000
  H   H1763     1.0  0.51883  0.19183  0.49723  1.0000
  H   H1764     1.0  0.66698  0.02955  0.97284  1.0000
  C   C1007     1.0  0.98228  0.16632  0.74717  1.0000
  N   N55       1.0  0.55364  0.22445  0.66640  1.0000
  H   H1765     1.0  0.59566  0.23251  0.49329  1.0000
  H   H1766     1.0  0.94236  0.22644  0.71153  1.0000
  C   C1008     1.0  0.68704  0.04824  0.94586  1.0000
  N   N56       1.0  0.93831  0.03687  0.64713  1.0000
  C   C1009     1.0  0.91677  0.04275  0.63240  1.0000
  C   C1010     1.0  0.93093  0.03505  0.67284  1.0000
  C   C1011     1.0  0.95528  0.05749  0.64488  1.0000
  H   H1767     1.0  0.96235  0.05878  0.62646  1.0000
  Fe  Fe121     1.0  0.65735  0.99742  0.84004  1.0000
  C   C1012     1.0  0.92201  0.05000  0.60631  1.0000
  H   H1768     1.0  0.51561  0.16186  0.50591  1.0000
  C   C1013     1.0  0.56096  0.15048  0.51241  1.0000
  H   H1769     1.0  0.92433  0.19446  0.65208  1.0000
  C   C1014     1.0  0.61800  0.14475  0.83671  1.0000
  H   H1770     1.0  0.60959  0.11165  0.51117  1.0000
  H   H1771     1.0  0.66546  0.99952  0.70159  1.0000
  H   H1772     1.0  0.90663  0.05769  0.64055  1.0000
  C   C1015     1.0  0.77187  0.23505  0.92289  1.0000
  H   H1773     1.0  0.94648  0.03100  0.68421  1.0000
  H   H1774     1.0  0.92386  0.05249  0.67894  1.0000
  H   H1775     1.0  0.94580  0.07456  0.64811  1.0000
  C   C1016     1.0  0.56031  0.21739  0.49589  1.0000
  H   H1776     1.0  0.62243  0.11022  0.85533  1.0000
  H   H1777     1.0  0.98292  0.14732  0.74208  1.0000
  H   H1778     1.0  0.72908  0.00731  0.68507  1.0000
  H   H1779     1.0  0.78019  0.02193  0.81923  1.0000
  H   H1780     1.0  0.92882  0.06846  0.60562  1.0000
  H   H1781     1.0  0.63528  0.05695  0.96854  1.0000
  H   H1782     1.0  0.66574  0.12810  0.86348  1.0000
  C   C1017     1.0  0.57250  0.20878  0.65528  1.0000
  H   H1783     1.0  0.62206  0.20182  0.64761  1.0000
  H   H1784     1.0  0.96486  0.19926  0.63561  1.0000
  C   C1018     1.0  0.83352  0.03905  0.76991  1.0000
  H   H1785     1.0  0.64508  0.11688  0.83350  1.0000
  H   H1786     1.0  0.74306  0.13149  0.51456  1.0000
  C   C1019     1.0  0.54231  0.23919  0.64696  1.0000
  H   H1787     1.0  0.62003  0.19620  0.86851  1.0000
  H   H1788     1.0  0.58593  0.13615  0.87244  1.0000
  H   H1789     1.0  0.79975  0.02091  0.76679  1.0000
  H   H1790     1.0  0.92062  0.01494  0.71703  1.0000
  H   H1791     1.0  0.97154  0.16842  0.76358  1.0000
  C   C1020     1.0  0.64682  0.07276  0.97091  1.0000
  H   H1792     1.0  0.81166  0.21212  0.56244  1.0000
  H   H1793     1.0  0.98754  0.09351  0.65397  1.0000
  N   N57       1.0  0.84196  0.08244  0.75611  1.0000
  C   C1021     1.0  0.86784  0.07681  0.75192  1.0000
  C   C1022     1.0  0.82763  0.06011  0.75317  1.0000
  C   C1023     1.0  0.83433  0.09964  0.73690  1.0000
  C   C1024     1.0  0.83718  0.09356  0.78002  1.0000
  C   C1025     1.0  0.85354  0.08593  0.80085  1.0000
  C   C1026     1.0  0.88450  0.09863  0.75023  1.0000
  C   C1027     1.0  0.80744  0.10554  0.73587  1.0000
  H   H1794     1.0  0.58353  0.20018  0.66921  1.0000
  C   C1028     1.0  0.62594  0.11840  0.83779  1.0000
  C   C1029     1.0  0.90506  0.01762  0.70532  1.0000
  C   C1030     1.0  0.91051  0.09122  0.75225  1.0000
  C   C1031     1.0  0.80261  0.12703  0.71992  1.0000
  H   H1795     1.0  0.87003  0.06675  0.73506  1.0000
  H   H1796     1.0  0.87489  0.06478  0.76580  1.0000
  H   H1797     1.0  0.80842  0.06380  0.75602  1.0000
  H   H1798     1.0  0.82925  0.05371  0.73459  1.0000
  H   H1799     1.0  0.83964  0.09283  0.71909  1.0000
  H   H1800     1.0  0.84360  0.11684  0.73891  1.0000
  H   H1801     1.0  0.83857  0.11325  0.77891  1.0000
  H   H1802     1.0  0.81847  0.09026  0.78553  1.0000
  H   H1803     1.0  0.87140  0.09380  0.79869  1.0000
  H   H1804     1.0  0.77456  0.99463  0.85274  1.0000
  H   H1805     1.0  0.88233  0.10767  0.73285  1.0000
  H   H1806     1.0  0.88047  0.11187  0.76413  1.0000
  H   H1807     1.0  0.80011  0.10941  0.75372  1.0000
  H   H1808     1.0  0.79760  0.09039  0.72834  1.0000
  N   N58       1.0  0.55193  0.17226  0.49957  1.0000
  H   H1809     1.0  0.59545  0.18294  0.85425  1.0000
  H   H1810     1.0  0.56415  0.19395  0.64541  1.0000
  C   C1032     1.0  0.76198  0.16506  0.51302  1.0000
  H   H1811     1.0  0.70159  0.21662  0.59859  1.0000
  H   H1812     1.0  0.69870  0.14741  0.84070  1.0000
  H   H1813     1.0  0.52698  0.19725  0.66398  1.0000
  H   H1814     1.0  0.84149  0.11406  0.82454  1.0000
  H   H1815     1.0  0.91409  0.08337  0.76998  1.0000
  H   H1816     1.0  0.91510  0.07805  0.73835  1.0000
  H   H1817     1.0  0.92201  0.10698  0.74979  1.0000
  H   H1818     1.0  0.80988  0.12403  0.70184  1.0000
  H   H1819     1.0  0.78318  0.12996  0.71846  1.0000
  H   H1820     1.0  0.81068  0.14323  0.72743  1.0000
  H   H1821     1.0  0.55849  0.17921  0.69060  1.0000
  H   H1822     1.0  0.56330  0.15434  0.53160  1.0000
  C   C1033     1.0  0.72854  0.24132  0.50038  1.0000
  H   H1823     1.0  0.68748  0.01054  0.93723  1.0000
  H   H1824     1.0  0.92668  0.22253  0.66717  1.0000
  H   H1825     1.0  0.85941  0.15182  0.71859  1.0000
  H   H1826     1.0  0.50504  0.23606  0.75937  1.0000
  N   N59       1.0  0.76663  0.19184  0.55051  1.0000
  C   C1034     1.0  0.78489  0.20429  0.53527  1.0000
  C   C1035     1.0  0.75063  0.17687  0.53525  1.0000
  C   C1036     1.0  0.75162  0.21086  0.56212  1.0000
  C   C1037     1.0  0.77775  0.17700  0.56988  1.0000
  C   C1038     1.0  0.79503  0.15714  0.56197  1.0000
  H   H1827     1.0  0.85592  0.08938  0.83906  1.0000
  C   C1039     1.0  0.72957  0.20229  0.57627  1.0000
  C   C1040     1.0  0.80741  0.14586  0.58333  1.0000
  H   H1828     1.0  0.65887  0.16452  0.83458  1.0000
  H   H1829     1.0  0.61273  0.10074  0.94905  1.0000
  H   H1830     1.0  0.67130  0.05146  0.93457  1.0000
  H   H1831     1.0  0.69942  0.06333  0.94380  1.0000
  H   H1832     1.0  0.74183  0.16286  0.54617  1.0000
  H   H1833     1.0  0.73594  0.18794  0.52802  1.0000
  C   C1041     1.0  0.71151  0.00950  0.69382  1.0000
  H   H1834     1.0  0.59939  0.15363  0.50636  1.0000
  H   H1835     1.0  0.78694  0.18847  0.58285  1.0000
  H   H1836     1.0  0.76382  0.16770  0.58036  1.0000
  H   H1837     1.0  0.80902  0.16384  0.54987  1.0000
  H   H1838     1.0  0.88639  0.06233  0.59776  1.0000
  H   H1839     1.0  0.65850  0.18219  0.86056  1.0000
  H   H1840     1.0  0.93557  0.03820  0.59820  1.0000
  H   H1841     1.0  0.73459  0.19009  0.59089  1.0000
  H   H1842     1.0  0.71694  0.19305  0.56459  1.0000
  H   H1843     1.0  0.81833  0.13049  0.57747  1.0000
  H   H1844     1.0  0.81918  0.15888  0.59201  1.0000
  H   H1845     1.0  0.79421  0.13931  0.59646  1.0000
  H   H1846     1.0  0.55211  0.20170  0.71248  1.0000
  C   C1042     1.0  0.58514  0.14049  0.50365  1.0000
  H   H1847     1.0  0.90420  0.05405  0.57254  1.0000
  C   C1043     1.0  0.81888  0.01723  0.76377  1.0000
  C   C1044     1.0  0.92764  0.21372  0.71483  1.0000
  H   H1848     1.0  0.58606  0.18913  0.49628  1.0000
  C   C1045     1.0  0.53544  0.20839  0.67783  1.0000
  H   H1849     1.0  0.50430  0.23202  0.65043  1.0000
  N   N60       1.0  0.93331  0.18981  0.70402  1.0000
  C   C1046     1.0  0.94660  0.17347  0.72063  1.0000
  C   C1047     1.0  0.91107  0.17751  0.69592  1.0000
  C   C1048     1.0  0.94873  0.19370  0.68232  1.0000
  H   H1850     1.0  0.57879  0.10383  0.51443  1.0000
  H   H1851     1.0  0.60477  0.18762  0.62492  1.0000
  C   C1049     1.0  0.89294  0.17030  0.71528  1.0000
  C   C1050     1.0  0.87265  0.15607  0.70462  1.0000
  H   H1852     1.0  0.62818  0.16340  0.89413  1.0000
  C   C1051     1.0  0.56848  0.19249  0.50458  1.0000
  H   H1853     1.0  0.94824  0.15546  0.71274  1.0000
  H   H1854     1.0  0.93673  0.17076  0.73745  1.0000
  H   H1855     1.0  0.91591  0.16128  0.68569  1.0000
  H   H1856     1.0  0.95564  0.17644  0.67561  1.0000
  H   H1857     1.0  0.96469  0.20419  0.68692  1.0000
  C   C1052     1.0  0.84358  0.09444  0.82459  1.0000
  H   H1858     1.0  0.58129  0.23665  0.52175  1.0000
  C   C1053     1.0  0.67012  0.14682  0.86691  1.0000
  H   H1859     1.0  0.90108  0.15911  0.72928  1.0000
  H   H1860     1.0  0.86362  0.16642  0.69044  1.0000
  H   H1861     1.0  0.82612  0.08613  0.82829  1.0000
  H   H1862     1.0  0.70746  0.13797  0.86991  1.0000
  C   C1054     1.0  0.59196  0.11805  0.51738  1.0000
  H   H1863     1.0  0.77902  0.15616  0.51698  1.0000
  H   H1864     1.0  0.72534  0.22265  0.50322  1.0000
  H   H1865     1.0  0.82170  0.01209  0.74498  1.0000
  C   C1055     1.0  0.61095  0.20494  0.63170  1.0000
  H   H1866     1.0  0.77269  0.99908  0.79845  1.0000
  H   H1867     1.0  0.76342  0.22265  0.93572  1.0000
  C   C1056     1.0  0.73904  0.24129  0.97990  1.0000
  H   H1868     1.0  0.92946  0.99977  0.61043  1.0000
  H   H1869     1.0  0.52983  0.16941  0.54639  1.0000
  H   H1870     1.0  0.87942  0.13919  0.69704  1.0000
  C   C1057     1.0  0.89968  0.04932  0.59114  1.0000
  C   C1058     1.0  0.60948  0.22339  0.83099  1.0000
  H   H1871     1.0  0.53621  0.19981  0.53919  1.0000
  H   H1872     1.0  0.63274  0.00616  0.72195  1.0000
  H   H1873     1.0  0.85604  0.06652  0.80206  1.0000
  H   H1874     1.0  0.89611  0.01763  0.66857  1.0000
  C   C1059     1.0  0.95094  0.01447  0.63925  1.0000
  C   C1060     1.0  0.71647  0.22327  0.58747  1.0000
  H   H1875     1.0  0.59845  0.11169  0.97547  1.0000
  C   C1061     1.0  0.52474  0.17614  0.70750  1.0000
  H   H1876     1.0  0.96107  0.00661  0.65430  1.0000
  H   H1877     1.0  0.93973  0.21127  0.75189  1.0000
  H   H1878     1.0  0.82886  0.04365  0.78842  1.0000
  C   C1062     1.0  0.54471  0.19149  0.69754  1.0000
  C   C1063     1.0  0.92308  0.21454  0.74201  1.0000
  H   H1879     1.0  0.94555  0.22348  0.62760  1.0000
  C   C1064     1.0  0.65353  0.16440  0.85361  1.0000
  H   H1880     1.0  0.57225  0.19359  0.52382  1.0000
  C   C1065     1.0  0.62104  0.15127  0.88045  1.0000
  H   H1881     1.0  0.61730  0.23383  0.84562  1.0000
  N   N61       1.0  0.62704  0.16066  0.85603  1.0000
  H   H1882     1.0  0.85243  0.03378  0.76869  1.0000
  H   H1883     1.0  0.57433  0.21896  0.88541  1.0000
  H   H1884     1.0  0.68788  0.09383  0.96600  1.0000
  S   S238      1.0  0.71596  0.23104  0.96109  1.0000
  C   C1066     1.0  0.58477  0.23457  0.88891  1.0000
  H   H1885     1.0  0.59311  0.12177  0.53666  1.0000
  H   H1886     1.0  0.62207  0.21339  0.61773  1.0000
  H   H1887     1.0  0.98591  0.03923  0.66130  1.0000
  H   H1888     1.0  0.75042  0.01049  0.81864  1.0000
  C   C1067     1.0  0.97202  0.18139  0.72707  1.0000
  C   C1068     1.0  0.52712  0.17761  0.50823  1.0000
  H   H1889     1.0  0.61916  0.08489  0.82050  1.0000
  H   H1890     1.0  0.77861  0.22459  0.90764  1.0000
  H   H1891     1.0  0.78501  0.14283  0.55316  1.0000
  H   H1892     1.0  0.70908  0.23514  0.57353  1.0000
  C   C1069     1.0  0.62044  0.19852  0.83019  1.0000
  C   C1070     1.0  0.69944  0.02612  0.93615  1.0000
  C   C1071     1.0  0.61278  0.10358  0.81954  1.0000
  H   H1893     1.0  0.77577  0.21473  0.52110  1.0000
  H   H1894     1.0  0.68055  0.99758  0.72921  1.0000
  H   H1895     1.0  0.72847  0.23353  0.59903  1.0000
  C   C1072     1.0  0.59430  0.14755  0.88592  1.0000
  C   C1073     1.0  0.56570  0.23999  0.68433  1.0000
  H   H1896     1.0  0.61162  0.99792  0.76046  1.0000
  C   C1074     1.0  0.76696  0.99729  0.73193  1.0000
  H   H1897     1.0  0.70423  0.02906  0.91725  1.0000
  H   H1898     1.0  0.97228  0.20018  0.73250  1.0000
  H   H1899     1.0  0.89691  0.03523  0.70896  1.0000
  H   H1900     1.0  0.59342  0.10374  0.82326  1.0000
  H   H1901     1.0  0.63000  0.13412  0.88393  1.0000
  H   H1902     1.0  0.71592  0.02227  0.94618  1.0000
  H   H1903     1.0  0.61301  0.23287  0.81404  1.0000
  H   H1904     1.0  0.91015  0.20113  0.74803  1.0000
  H   H1905     1.0  0.59981  0.11802  0.91050  1.0000
  H   H1906     1.0  0.61608  0.11044  0.80133  1.0000
  C   C1075     1.0  0.59071  0.13554  0.91000  1.0000
  H   H1907     1.0  0.59760  0.14696  0.92433  1.0000
  H   H1908     1.0  0.58472  0.16478  0.88663  1.0000
  H   H1909     1.0  0.57149  0.13276  0.91326  1.0000
  H   H1910     1.0  0.54325  0.22268  0.50420  1.0000
  H   H1911     1.0  0.72790  0.10911  0.97340  1.0000
  C   C1076     1.0  0.93670  0.20666  0.66115  1.0000
  H   H1912     1.0  0.71412  0.01949  0.71050  1.0000
  H   H1913     1.0  0.89181  0.00367  0.70947  1.0000
  H   H1914     1.0  0.58081  0.22548  0.62078  1.0000
  H   H1915     1.0  0.59737  0.08045  0.96878  1.0000
  H   H1916     1.0  0.58998  0.22243  0.83367  1.0000
  C   C1077     1.0  0.60449  0.23267  0.90411  1.0000
  H   H1917     1.0  0.80411  0.23443  0.94254  1.0000
  H   H1918     1.0  0.97166  0.06109  0.67991  1.0000
  C   C1078     1.0  0.74565  0.14660  0.50217  1.0000
  H   H1919     1.0  0.91201  0.22186  0.70588  1.0000
  H   H1920     1.0  0.64121  0.10973  0.98127  1.0000
  H   H1921     1.0  0.59201  0.00535  0.73634  1.0000
  C   C1079     1.0  0.68528  0.08694  0.98435  1.0000
  H   H1922     1.0  0.82413  0.00206  0.77528  1.0000
  C   C1080     1.0  0.91388  0.23894  0.74953  1.0000
  H   H1923     1.0  0.83104  0.21752  0.52283  1.0000
  H   H1924     1.0  0.91167  0.23942  0.76909  1.0000
  H   H1925     1.0  0.54164  0.22884  0.63026  1.0000
  H   H1926     1.0  0.76539  0.17883  0.49924  1.0000
  C   C1081     1.0  0.57850  0.23624  0.50226  1.0000
  H   H1927     1.0  0.59715  0.23776  0.64485  1.0000
  C   C1082     1.0  0.49931  0.19155  0.54097  1.0000
  H   H1928     1.0  0.49799  0.19554  0.56021  1.0000
  C   C1083     1.0  0.63141  0.09282  0.98188  1.0000
  Fe  Fe122     1.0  0.65942  0.16218  0.98470  1.0000
  H   H1929     1.0  0.99167  0.23593  0.70071  1.0000
  C   C1084     1.0  0.74895  0.24886  0.48795  1.0000
  S   S239      1.0  0.51751  0.35715  0.13850  1.0000
  H   H1930     1.0  0.90290  0.36623  0.42078  1.0000
  H   H1931     1.0  0.50813  0.36938  0.25533  1.0000
  Fe  Fe123     1.0  0.68101  0.44274  0.14483  1.0000
  S   S240      1.0  0.66821  0.42997  0.18076  1.0000
  S   S241      1.0  0.70718  0.41523  0.12825  1.0000
  Fe  Fe124     1.0  0.63165  0.44226  0.17010  1.0000
  S   S242      1.0  0.59674  0.42485  0.18221  1.0000
  Fe  Fe125     1.0  0.67512  0.46709  0.19337  1.0000
  S   S243      1.0  0.69167  0.47260  0.22995  1.0000
  S   S244      1.0  0.64364  0.45314  0.13348  1.0000
  Fe  Fe126     1.0  0.82026  0.30515  0.02591  1.0000
  S   S245      1.0  0.80738  0.33850  0.00813  1.0000
  S   S246      1.0  0.80292  0.26855  0.02296  1.0000
  Fe  Fe127     1.0  0.86485  0.33005  0.04622  1.0000
  S   S247      1.0  0.85418  0.36487  0.02938  1.0000
  S   S248      1.0  0.90140  0.32043  0.06198  1.0000
  Fe  Fe128     1.0  0.81679  0.35684  0.04244  1.0000
  S   S249      1.0  0.79308  0.38741  0.05721  1.0000
  C   C1085     1.0  0.51036  0.25536  0.27161  1.0000
  S   S250      1.0  0.82805  0.32287  0.06095  1.0000
  S   S251      1.0  0.85784  0.30930  0.01289  1.0000
  H   H1932     1.0  0.81532  0.46292  0.22349  1.0000
  Fe  Fe129     1.0  0.84771  0.32397  0.43425  1.0000
  S   S252      1.0  0.80971  0.32609  0.42271  1.0000
  S   S253      1.0  0.87540  0.30951  0.40751  1.0000
  H   H1933     1.0  0.88938  0.29797  0.32352  1.0000
  S   S254      1.0  0.79663  0.35396  0.47188  1.0000
  Fe  Fe130     1.0  0.80012  0.31572  0.46029  1.0000
  S   S255      1.0  0.77941  0.28142  0.46814  1.0000
  Fe  Fe131     1.0  0.81022  0.36415  0.43525  1.0000
  S   S256      1.0  0.79443  0.39485  0.41313  1.0000
  S   S257      1.0  0.83835  0.31241  0.47138  1.0000
  S   S258      1.0  0.84863  0.36269  0.44502  1.0000
  S   S259      1.0  0.97275  0.35823  0.14128  1.0000
  C   C1086     1.0  0.82246  0.36146  0.35109  1.0000
  C   C1087     1.0  0.72263  0.27551  0.42529  1.0000
  C   C1088     1.0  0.77782  0.25882  0.00662  1.0000
  C   C1089     1.0  0.72604  0.42070  0.22470  1.0000
  C   C1090     1.0  0.88452  0.28020  0.39889  1.0000
  H   H1934     1.0  0.52893  0.33380  0.24066  1.0000
  C   C1091     1.0  0.90124  0.27757  0.38039  1.0000
  H   H1935     1.0  0.83909  0.39205  0.31853  1.0000
  H   H1936     1.0  0.90839  0.29317  0.37186  1.0000
  H   H1937     1.0  0.85386  0.48834  0.47551  1.0000
  C   C1092     1.0  0.82976  0.45954  0.37632  1.0000
  C   C1093     1.0  0.80599  0.45399  0.37218  1.0000
  C   C1094     1.0  0.79547  0.43427  0.38367  1.0000
  C   C1095     1.0  0.80844  0.41991  0.39956  1.0000
  C   C1096     1.0  0.83195  0.42598  0.40428  1.0000
  C   C1097     1.0  0.84257  0.44548  0.39259  1.0000
  H   H1938     1.0  0.79584  0.46456  0.35974  1.0000
  H   H1939     1.0  0.77720  0.42996  0.38000  1.0000
  H   H1940     1.0  0.84185  0.41579  0.41716  1.0000
  H   H1941     1.0  0.86089  0.44969  0.39616  1.0000
  C   C1098     1.0  0.92126  0.33221  0.08339  1.0000
  C   C1099     1.0  0.91589  0.35225  0.09697  1.0000
  C   C1100     1.0  0.93193  0.36013  0.11439  1.0000
  C   C1101     1.0  0.95352  0.34816  0.11848  1.0000
  C   C1102     1.0  0.95895  0.32826  0.10477  1.0000
  C   C1103     1.0  0.94298  0.32041  0.08734  1.0000
  H   H1942     1.0  0.89929  0.36154  0.09422  1.0000
  H   H1943     1.0  0.92748  0.37555  0.12487  1.0000
  H   H1944     1.0  0.97528  0.31868  0.10789  1.0000
  H   H1945     1.0  0.94728  0.30478  0.07711  1.0000
  Fe  Fe132     1.0  0.84557  0.34350  0.99682  1.0000
  H   H1946     1.0  0.90193  0.39723  0.42823  1.0000
  H   H1947     1.0  0.49213  0.25458  0.36358  1.0000
  H   H1948     1.0  0.64645  0.49115  0.24687  1.0000
  C   C1104     1.0  0.72197  0.48861  0.26437  1.0000
  C   C1105     1.0  0.73125  0.40806  0.10846  1.0000
  C   C1106     1.0  0.74030  0.38468  0.10818  1.0000
  C   C1107     1.0  0.75929  0.37809  0.09300  1.0000
  C   C1108     1.0  0.76956  0.39476  0.07759  1.0000
  C   C1109     1.0  0.76053  0.41815  0.07792  1.0000
  C   C1110     1.0  0.74163  0.42479  0.09321  1.0000
  H   H1949     1.0  0.73258  0.37152  0.11987  1.0000
  H   H1950     1.0  0.76594  0.36005  0.09317  1.0000
  H   H1951     1.0  0.76820  0.43129  0.06615  1.0000
  H   H1952     1.0  0.73501  0.44284  0.09305  1.0000
  H   H1953     1.0  0.67513  0.36920  0.05841  1.0000
  C   C1111     1.0  0.53826  0.37802  0.14972  1.0000
  C   C1112     1.0  0.55948  0.38220  0.13710  1.0000
  C   C1113     1.0  0.57716  0.39731  0.14615  1.0000
  C   C1114     1.0  0.57396  0.40824  0.16816  1.0000
  C   C1115     1.0  0.55249  0.40454  0.18044  1.0000
  C   C1116     1.0  0.53476  0.38958  0.17134  1.0000
  H   H1954     1.0  0.56239  0.37346  0.12031  1.0000
  H   H1955     1.0  0.59349  0.40000  0.13639  1.0000
  H   H1956     1.0  0.54968  0.41304  0.19737  1.0000
  H   H1957     1.0  0.51852  0.38675  0.18121  1.0000
  H   H1958     1.0  0.97406  0.34658  0.22203  1.0000
  H   H1959     1.0  0.96152  0.35508  0.19398  1.0000
  H   H1960     1.0  0.87317  0.29968  0.14101  1.0000
  H   H1961     1.0  0.56610  0.26884  0.26241  1.0000
  H   H1962     1.0  0.73531  0.26195  0.41856  1.0000
  H   H1963     1.0  0.69091  0.27812  0.44590  1.0000
  C   C1117     1.0  0.49497  0.28774  0.24666  1.0000
  C   C1118     1.0  0.57971  0.31388  0.22181  1.0000
  C   C1119     1.0  0.55469  0.30258  0.17502  1.0000
  H   H1964     1.0  0.64579  0.26398  0.43429  1.0000
  H   H1965     1.0  0.74146  0.40022  0.19664  1.0000
  H   H1966     1.0  0.87118  0.31751  0.30582  1.0000
  H   H1967     1.0  0.92592  0.29681  0.12703  1.0000
  H   H1968     1.0  0.53827  0.27804  0.15070  1.0000
  H   H1969     1.0  0.59298  0.28574  0.26026  1.0000
  H   H1970     1.0  0.96729  0.36161  0.05940  1.0000
  C   C1120     1.0  0.90920  0.25491  0.37300  1.0000
  H   H1971     1.0  0.88590  0.30849  0.11307  1.0000
  C   C1121     1.0  0.87478  0.35723  0.33548  1.0000
  H   H1972     1.0  0.74517  0.45011  0.14043  1.0000
  N   N62       1.0  0.76550  0.44082  0.17150  1.0000
  C   C1122     1.0  0.92532  0.24594  0.19428  1.0000
  H   H1973     1.0  0.56362  0.28772  0.18441  1.0000
  H   H1974     1.0  0.83352  0.48132  0.43647  1.0000
  H   H1975     1.0  0.81538  0.44397  0.44892  1.0000
  H   H1976     1.0  0.70037  0.37381  0.07706  1.0000
  C   C1123     1.0  0.74328  0.43768  0.18626  1.0000
  H   H1977     1.0  0.79814  0.48832  0.23277  1.0000
  C   C1124     1.0  0.80196  0.39145  0.13889  1.0000
  H   H1978     1.0  0.49518  0.30620  0.24136  1.0000
  H   H1979     1.0  0.56710  0.48273  0.16420  1.0000
  S   S260      1.0  0.63752  0.47834  0.18599  1.0000
  H   H1980     1.0  0.49911  0.25735  0.13792  1.0000
  H   H1981     1.0  0.78817  0.45874  0.45679  1.0000
  C   C1125     1.0  0.74464  0.41761  0.20522  1.0000
  C   C1126     1.0  0.84787  0.42892  0.31960  1.0000
  H   H1982     1.0  0.72650  0.40520  0.23692  1.0000
  C   C1127     1.0  0.65333  0.25375  0.47083  1.0000
  H   H1983     1.0  0.70801  0.42208  0.21699  1.0000
  H   H1984     1.0  0.88714  0.35313  0.38263  1.0000
  C   C1128     1.0  0.95925  0.34324  0.20963  1.0000
  H   H1985     1.0  0.92232  0.31677  0.19370  1.0000
  H   H1986     1.0  0.94143  0.32467  0.16971  1.0000
  H   H1987     1.0  0.91245  0.31964  0.14503  1.0000
  C   C1129     1.0  0.95214  0.36788  0.02547  1.0000
  H   H1988     1.0  0.94229  0.34764  0.21872  1.0000
  H   H1989     1.0  0.58978  0.30139  0.21028  1.0000
  C   C1130     1.0  0.68695  0.24867  0.42117  1.0000
  H   H1990     1.0  0.78696  0.34685  0.35092  1.0000
  H   H1991     1.0  0.52375  0.30647  0.15237  1.0000
  S   S261      1.0  0.68927  0.47957  0.15822  1.0000
  H   H1992     1.0  0.80830  0.32904  0.36685  1.0000
  H   H1993     1.0  0.96346  0.24407  0.15978  1.0000
  C   C1131     1.0  0.56376  0.29914  0.23862  1.0000
  H   H1994     1.0  0.71731  0.38272  0.99491  1.0000
  H   H1995     1.0  0.95716  0.26602  0.20194  1.0000
  H   H1996     1.0  0.90395  0.37407  0.36594  1.0000
  H   H1997     1.0  0.52266  0.29142  0.27265  1.0000
  H   H1998     1.0  0.89431  0.32850  0.35362  1.0000
  H   H1999     1.0  0.79904  0.45912  0.17397  1.0000
  C   C1132     1.0  0.76416  0.27430  0.99276  1.0000
  H   H2000     1.0  0.95832  0.30631  0.21847  1.0000
  H   H2001     1.0  0.86722  0.38652  0.40468  1.0000
  N   N63       1.0  0.71491  0.36297  0.02781  1.0000
  C   C1133     1.0  0.72823  0.37022  0.00565  1.0000
  C   C1134     1.0  0.69457  0.34728  0.02082  1.0000
  C   C1135     1.0  0.70631  0.38514  0.04014  1.0000
  C   C1136     1.0  0.73065  0.34932  0.04458  1.0000
  C   C1137     1.0  0.74220  0.32640  0.03459  1.0000
  C   C1138     1.0  0.75246  0.38246  0.00956  1.0000
  H   H2002     1.0  0.79662  0.43455  0.19334  1.0000
  N   N64       1.0  0.86686  0.37236  0.35610  1.0000
  H   H2003     1.0  0.88695  0.27779  0.12184  1.0000
  C   C1139     1.0  0.75949  0.31569  0.05249  1.0000
  H   H2004     1.0  0.66904  0.40194  0.08705  1.0000
  H   H2005     1.0  0.69706  0.39716  0.02743  1.0000
  C   C1140     1.0  0.67921  0.40481  0.07036  1.0000
  H   H2006     1.0  0.70959  0.25281  0.45279  1.0000
  H   H2007     1.0  0.64719  0.33381  0.01639  1.0000
  C   C1141     1.0  0.86394  0.39799  0.34840  1.0000
  H   H2008     1.0  0.54863  0.29113  0.22922  1.0000
  H   H2009     1.0  0.72159  0.39561  0.04665  1.0000
  H   H2010     1.0  0.74497  0.36087  0.05119  1.0000
  H   H2011     1.0  0.72055  0.34383  0.06066  1.0000
  H   H2012     1.0  0.75219  0.32988  0.01799  1.0000
  H   H2013     1.0  0.72852  0.31284  0.03096  1.0000
  H   H2014     1.0  0.75074  0.39810  0.02127  1.0000
  H   H2015     1.0  0.76528  0.36991  0.01765  1.0000
  H   H2016     1.0  0.61715  0.26673  0.47612  1.0000
  H   H2017     1.0  0.77545  0.45856  0.13869  1.0000
  C   C1142     1.0  0.81395  0.48114  0.43855  1.0000
  C   C1143     1.0  0.93853  0.26992  0.19668  1.0000
  H   H2018     1.0  0.98010  0.27228  0.11607  1.0000
  H   H2019     1.0  0.95112  0.38737  0.02814  1.0000
  H   H2020     1.0  0.92215  0.25339  0.35888  1.0000
  H   H2021     1.0  0.75027  0.31132  0.06938  1.0000
  H   H2022     1.0  0.76729  0.29911  0.04526  1.0000
  H   H2023     1.0  0.77409  0.32828  0.05608  1.0000
  H   H2024     1.0  0.71615  0.28658  0.41029  1.0000
  H   H2025     1.0  0.61481  0.34845  0.21585  1.0000
  Fe  Fe133     1.0  0.65089  0.48894  0.15017  1.0000
  H   H2026     1.0  0.67132  0.26045  0.47427  1.0000
  C   C1144     1.0  0.63563  0.27254  0.47925  1.0000
  H   H2027     1.0  0.84745  0.34566  0.37603  1.0000
  H   H2028     1.0  0.66573  0.37379  0.01735  1.0000
  H   H2029     1.0  0.75602  0.40884  0.15267  1.0000
  H   H2030     1.0  0.63874  0.28960  0.46982  1.0000
  H   H2031     1.0  0.97711  0.31375  0.19376  1.0000
  C   C1145     1.0  0.87592  0.25963  0.40996  1.0000
  C   C1146     1.0  0.79224  0.41654  0.14259  1.0000
  H   H2032     1.0  0.73145  0.35467  0.99397  1.0000
  H   H2033     1.0  0.53930  0.33714  0.18175  1.0000
  C   C1147     1.0  0.76009  0.45733  0.15103  1.0000
  C   C1148     1.0  0.69001  0.38132  0.06209  1.0000
  H   H2034     1.0  0.78743  0.37904  0.13457  1.0000
  H   H2035     1.0  0.63387  0.34850  0.17633  1.0000
  C   C1149     1.0  0.95942  0.28267  0.15979  1.0000
  H   H2036     1.0  0.77169  0.45604  0.22159  1.0000
  C   C1150     1.0  0.84433  0.36323  0.36743  1.0000
  C   C1151     1.0  0.88800  0.29628  0.12844  1.0000
  H   H2037     1.0  0.63791  0.37648  0.19110  1.0000
  C   C1152     1.0  0.51052  0.27930  0.26436  1.0000
  H   H2038     1.0  0.78557  0.42294  0.12519  1.0000
  H   H2039     1.0  0.59334  0.32193  0.23334  1.0000
  C   C1153     1.0  0.65514  0.34185  0.00018  1.0000
  H   H2040     1.0  0.56659  0.30937  0.16083  1.0000
  H   H2041     1.0  0.69326  0.41801  0.07389  1.0000
  Fe  Fe134     1.0  0.83527  0.35123  0.48103  1.0000
  C   C1154     1.0  0.93926  0.31186  0.18466  1.0000
  H   H2042     1.0  0.66696  0.41212  0.05677  1.0000
  H   H2043     1.0  0.80717  0.42799  0.14801  1.0000
  H   H2044     1.0  0.61658  0.37424  0.16775  1.0000
  H   H2045     1.0  0.59477  0.32846  0.18001  1.0000
  C   C1155     1.0  0.96066  0.25865  0.14679  1.0000
  C   C1156     1.0  0.62463  0.36462  0.18294  1.0000
  C   C1157     1.0  0.54771  0.32268  0.19239  1.0000
  C   C1158     1.0  0.75344  0.27314  0.48410  1.0000
  C   C1159     1.0  0.70196  0.26367  0.43830  1.0000
  C   C1160     1.0  0.77183  0.41687  0.16119  1.0000
  H   H2046     1.0  0.86319  0.26121  0.42428  1.0000
  C   C1161     1.0  0.91189  0.30060  0.14029  1.0000
  C   C1162     1.0  0.87934  0.33061  0.34114  1.0000
  H   H2047     1.0  0.96097  0.29719  0.14641  1.0000
  C   C1163     1.0  0.78627  0.44967  0.18578  1.0000
  C   C1164     1.0  0.58578  0.34287  0.19009  1.0000
  H   H2048     1.0  0.81484  0.39148  0.12390  1.0000
  H   H2049     1.0  0.92164  0.38714  0.40504  1.0000
  C   C1165     1.0  0.55839  0.35270  0.22251  1.0000
  H   H2050     1.0  0.53319  0.31566  0.20371  1.0000
  C   C1166     1.0  0.60572  0.35804  0.20131  1.0000
  C   C1167     1.0  0.85473  0.40284  0.32293  1.0000
  H   H2051     1.0  0.58438  0.26631  0.23634  1.0000
  C   C1168     1.0  0.53251  0.35097  0.23186  1.0000
  C   C1169     1.0  0.52692  0.37071  0.24948  1.0000
  H   H2052     1.0  0.77705  0.40427  0.17551  1.0000
  H   H2053     1.0  0.93475  0.36013  0.03060  1.0000
  C   C1170     1.0  0.88425  0.38876  0.39532  1.0000
  H   H2054     1.0  0.57035  0.35544  0.23788  1.0000
  H   H2055     1.0  0.55869  0.36976  0.21253  1.0000
  H   H2056     1.0  0.90221  0.32421  0.31050  1.0000
  H   H2057     1.0  0.82663  0.35237  0.33425  1.0000
  N   N65       1.0  0.56756  0.33272  0.20706  1.0000
  H   H2058     1.0  0.76233  0.41682  0.21370  1.0000
  H   H2059     1.0  0.89146  0.36456  0.32775  1.0000
  H   H2060     1.0  0.51991  0.35303  0.21690  1.0000
  H   H2061     1.0  0.59840  0.37486  0.20852  1.0000
  C   C1171     1.0  0.90395  0.38453  0.41338  1.0000
  H   H2062     1.0  0.73230  0.28719  0.43768  1.0000
  H   H2063     1.0  0.90585  0.24915  0.19446  1.0000
  C   C1172     1.0  0.80771  0.46087  0.45556  1.0000
  H   H2064     1.0  0.70113  0.33245  0.00954  1.0000
  C   C1173     1.0  0.80291  0.47701  0.21736  1.0000
  H   H2065     1.0  0.86893  0.39866  0.30985  1.0000
  H   H2066     1.0  0.81117  0.38504  0.15506  1.0000
  N   N66       1.0  0.93809  0.28670  0.17558  1.0000
  C   C1174     1.0  0.57778  0.27882  0.25003  1.0000
  H   H2067     1.0  0.79677  0.35621  0.37959  1.0000
  H   H2068     1.0  0.88553  0.40744  0.38916  1.0000
  C   C1175     1.0  0.88591  0.31684  0.31879  1.0000
  H   H2069     1.0  0.83247  0.43350  0.33107  1.0000
  H   H2070     1.0  0.86292  0.44070  0.32405  1.0000
  H   H2071     1.0  0.84281  0.43230  0.30089  1.0000
  H   H2072     1.0  0.86187  0.35785  0.32079  1.0000
  C   C1176     1.0  0.95968  0.31723  0.20212  1.0000
  H   H2073     1.0  0.88128  0.40736  0.34901  1.0000
  C   C1177     1.0  0.80247  0.34750  0.36292  1.0000
  H   H2074     1.0  0.81546  0.37953  0.34730  1.0000
  H   H2075     1.0  0.57693  0.35428  0.17655  1.0000
  H   H2076     1.0  0.72793  0.43348  0.17465  1.0000
  H   H2077     1.0  0.73792  0.45442  0.19510  1.0000
  H   H2078     1.0  0.55712  0.31049  0.25321  1.0000
  H   H2079     1.0  0.85215  0.40757  0.36106  1.0000
  H   H2080     1.0  0.86340  0.32214  0.34900  1.0000
  H   H2081     1.0  0.83862  0.37488  0.38225  1.0000
  C   C1178     1.0  0.97166  0.35700  0.04083  1.0000
  C   C1179     1.0  0.88631  0.37111  0.37444  1.0000
  H   H2082     1.0  0.72975  0.43689  0.23513  1.0000
  H   H2083     1.0  0.93014  0.27841  0.21246  1.0000
  S   S262      1.0  0.84468  0.48304  0.36112  1.0000
  H   H2084     1.0  0.52020  0.28511  0.17621  1.0000
  H   H2085     1.0  0.68669  0.33839  0.03666  1.0000
  C   C1180     1.0  0.53283  0.29246  0.16291  1.0000
  H   H2086     1.0  0.81191  0.48833  0.20391  1.0000
  C   C1181     1.0  0.67435  0.35961  0.00677  1.0000
  C   C1182     1.0  0.91503  0.28437  0.16231  1.0000
  H   H2087     1.0  0.99033  0.32065  0.06674  1.0000
  H   H2088     1.0  0.71177  0.47747  0.27626  1.0000
  H   H2089     1.0  0.81494  0.46417  0.47349  1.0000
  H   H2090     1.0  0.85333  0.24542  0.99832  1.0000
  H   H2091     1.0  0.67859  0.26161  0.40881  1.0000
  H   H2092     1.0  0.80649  0.47683  0.42105  1.0000
  H   H2093     1.0  0.97064  0.33751  0.03859  1.0000
  H   H2094     1.0  0.97607  0.28364  0.17021  1.0000
  H   H2095     1.0  0.95543  0.36416  0.00644  1.0000
  H   H2096     1.0  0.53845  0.36913  0.26531  1.0000
  H   H2097     1.0  0.89986  0.28789  0.17457  1.0000
  H   H2098     1.0  0.50658  0.27302  0.34175  1.0000
  H   H2099     1.0  0.91242  0.26603  0.15592  1.0000
  H   H2100     1.0  0.52951  0.38839  0.24105  1.0000
  C   C1183     1.0  0.78048  0.46614  0.20710  1.0000
  H   H2101     1.0  0.76851  0.29292  0.99219  1.0000
  C   C1184     1.0  0.98165  0.25791  0.12955  1.0000
  H   H2102     1.0  0.97565  0.27920  0.25723  1.0000
  H   H2103     1.0  0.94443  0.25533  0.13640  1.0000
  C   C1185     1.0  0.98480  0.26606  0.24663  1.0000
  H   H2104     1.0  0.97993  0.39395  0.10378  1.0000
  S   S263      1.0  0.53057  0.24572  0.29381  1.0000
  H   H2105     1.0  0.73131  0.48930  0.12660  1.0000
  C   C1186     1.0  0.71620  0.48936  0.24013  1.0000
  H   H2106     1.0  0.73990  0.30845  0.48909  1.0000
  H   H2107     1.0  0.76848  0.48086  0.20214  1.0000
  H   H2108     1.0  0.73942  0.48453  0.17023  1.0000
  H   H2109     1.0  0.64815  0.24941  0.38894  1.0000
  C   C1187     1.0  0.64931  0.24731  0.44444  1.0000
  C   C1188     1.0  0.75415  0.48336  0.15727  1.0000
  Fe  Fe135     1.0  0.55716  0.32114  0.84345  1.0000
  S   S264      1.0  0.56937  0.32350  0.80548  1.0000
  S   S265      1.0  0.58348  0.30565  0.87093  1.0000
  Fe  Fe136     1.0  0.51100  0.34986  0.83108  1.0000
  S   S266      1.0  0.52080  0.35286  0.79263  1.0000
  Fe  Fe137     1.0  0.53174  0.31433  0.79562  1.0000
  S   S267      1.0  0.52322  0.28103  0.77394  1.0000
  Fe  Fe138     1.0  0.55731  0.36185  0.80649  1.0000
  S   S268      1.0  0.57829  0.39331  0.79108  1.0000
  S   S269      1.0  0.51998  0.31079  0.83378  1.0000
  S   S270      1.0  0.54703  0.36018  0.84482  1.0000
  S   S271      1.0  0.85492  0.35518  0.95877  1.0000
  S   S272      1.0  0.85060  0.36534  0.51579  1.0000
  C   C1189     1.0  0.86006  0.29367  0.86977  1.0000
  Fe  Fe139     1.0  0.84310  0.44912  0.67312  1.0000
  S   S273      1.0  0.80737  0.43448  0.66303  1.0000
  S   S274      1.0  0.86966  0.42242  0.68978  1.0000
  H   H2110     1.0  0.54638  0.47816  0.83019  1.0000
  Fe  Fe140     1.0  0.79273  0.47012  0.67423  1.0000
  S   S275      1.0  0.75780  0.47085  0.69524  1.0000
  Fe  Fe141     1.0  0.81359  0.45047  0.62684  1.0000
  S   S276      1.0  0.80226  0.43598  0.59062  1.0000
  H   H2111     1.0  0.76809  0.34426  0.93924  1.0000
  S   S277      1.0  0.84995  0.46336  0.63598  1.0000
  S   S278      1.0  0.97493  0.31044  0.83298  1.0000
  Fe  Fe142     1.0  0.93833  0.36263  0.80438  1.0000
  S   S279      1.0  0.92447  0.32541  0.80811  1.0000
  S   S280      1.0  0.91688  0.39460  0.78989  1.0000
  Fe  Fe143     1.0  0.93955  0.32555  0.84522  1.0000
  S   S281      1.0  0.92401  0.31019  0.87997  1.0000
  Fe  Fe144     1.0  0.96103  0.31393  0.79557  1.0000
  S   S282      1.0  0.96245  0.29036  0.76234  1.0000
  S   S283      1.0  0.95105  0.36342  0.84238  1.0000
  H   H2112     1.0  0.95392  0.38114  0.89452  1.0000
  H   H2113     1.0  0.53436  0.24787  0.70671  1.0000
  S   S284      1.0  0.97436  0.35136  0.79103  1.0000
  C   C1190     1.0  0.88073  0.41436  0.71848  1.0000
  C   C1191     1.0  0.88004  0.42981  0.73782  1.0000
  C   C1192     1.0  0.89082  0.42328  0.75953  1.0000
  C   C1193     1.0  0.90218  0.40111  0.76246  1.0000
  C   C1194     1.0  0.90240  0.38544  0.74329  1.0000
  C   C1195     1.0  0.89201  0.39214  0.72146  1.0000
  H   H2114     1.0  0.87165  0.44701  0.73589  1.0000
  H   H2115     1.0  0.89047  0.43560  0.77414  1.0000
  H   H2116     1.0  0.91083  0.36826  0.74517  1.0000
  H   H2117     1.0  0.89275  0.38000  0.70670  1.0000
  C   C1196     1.0  0.97488  0.43532  0.80584  1.0000
  C   C1197     1.0  0.53019  0.44629  0.78130  1.0000
  C   C1198     1.0  0.96527  0.43164  0.76212  1.0000
  H   H2118     1.0  0.56856  0.25514  0.73224  1.0000
  H   H2119     1.0  0.86600  0.31191  0.87391  1.0000
  C   C1199     1.0  0.81701  0.41754  0.56955  1.0000
  C   C1200     1.0  0.83865  0.40624  0.57430  1.0000
  C   C1201     1.0  0.84889  0.39072  0.55748  1.0000
  C   C1202     1.0  0.83774  0.38633  0.53568  1.0000
  C   C1203     1.0  0.81641  0.39809  0.53070  1.0000
  C   C1204     1.0  0.80608  0.41347  0.54758  1.0000
  H   H2120     1.0  0.84729  0.40912  0.59110  1.0000
  H   H2121     1.0  0.86543  0.38181  0.56152  1.0000
  H   H2122     1.0  0.80770  0.39508  0.51397  1.0000
  H   H2123     1.0  0.78938  0.42212  0.54366  1.0000
  H   H2124     1.0  0.50517  0.48494  0.79390  1.0000
  C   C1205     1.0  0.74503  0.26555  0.97937  1.0000
  H   H2125     1.0  0.70421  0.29534  0.51163  1.0000
  H   H2126     1.0  0.57073  0.38052  0.89840  1.0000
  C   C1206     1.0  0.87565  0.34315  0.93793  1.0000
  C   C1207     1.0  0.88025  0.35561  0.91670  1.0000
  C   C1208     1.0  0.89555  0.34622  0.89912  1.0000
  C   C1209     1.0  0.90615  0.32394  0.90233  1.0000
  C   C1210     1.0  0.90166  0.31153  0.92362  1.0000
  C   C1211     1.0  0.88673  0.32114  0.94140  1.0000
  H   H2127     1.0  0.87178  0.37264  0.91373  1.0000
  H   H2128     1.0  0.89867  0.35601  0.88285  1.0000
  H   H2129     1.0  0.90964  0.29424  0.92631  1.0000
  H   H2130     1.0  0.88348  0.31137  0.95764  1.0000
  C   C1212     1.0  0.92803  0.46284  0.70136  1.0000
  H   H2131     1.0  0.51465  0.39862  0.74511  1.0000
  N   N67       1.0  0.52668  0.45553  0.80627  1.0000
  H   H2132     1.0  0.92954  0.33603  0.98221  1.0000
  C   C1213     1.0  0.59305  0.41686  0.80591  1.0000
  C   C1214     1.0  0.59071  0.42053  0.83032  1.0000
  C   C1215     1.0  0.60219  0.43981  0.84119  1.0000
  C   C1216     1.0  0.61624  0.45570  0.82791  1.0000
  C   C1217     1.0  0.61861  0.45200  0.80350  1.0000
  C   C1218     1.0  0.60702  0.43278  0.79261  1.0000
  H   H2133     1.0  0.57965  0.40881  0.84072  1.0000
  H   H2134     1.0  0.59999  0.44260  0.86002  1.0000
  H   H2135     1.0  0.62941  0.46393  0.79300  1.0000
  H   H2136     1.0  0.60895  0.43023  0.77371  1.0000
  H   H2137     1.0  0.72760  0.37758  0.52075  1.0000
  H   H2138     1.0  0.75810  0.24781  0.91671  1.0000
  C   C1219     1.0  0.51892  0.42203  0.77515  1.0000
  C   C1220     1.0  0.59118  0.27707  0.88301  1.0000
  H   H2139     1.0  0.63797  0.27547  0.49855  1.0000
  H   H2140     1.0  0.64085  0.35105  0.99018  1.0000
  C   C1221     1.0  0.61087  0.27515  0.89823  1.0000
  H   H2141     1.0  0.93966  0.46324  0.68542  1.0000
  H   H2142     1.0  0.62085  0.29087  0.90235  1.0000
  C   C1222     1.0  0.96549  0.37920  0.71802  1.0000
  H   H2143     1.0  0.57209  0.25397  0.49639  1.0000
  H   H2144     1.0  0.83572  0.48429  0.56296  1.0000
  H   H2145     1.0  0.54949  0.44379  0.77738  1.0000
  C   C1223     1.0  0.61762  0.25316  0.90850  1.0000
  H   H2146     1.0  0.95219  0.31401  0.98779  1.0000
  C   C1224     1.0  0.56351  0.26861  0.71871  1.0000
  C   C1225     1.0  0.61160  0.36821  0.87266  1.0000
  H   H2147     1.0  0.97436  0.37239  0.93273  1.0000
  S   S285      1.0  0.79551  0.48477  0.63709  1.0000
  C   C1226     1.0  0.98143  0.42300  0.78264  1.0000
  H   H2148     1.0  0.63170  0.32352  0.87201  1.0000
  H   H2149     1.0  0.96684  0.45119  0.76140  1.0000
  H   H2150     1.0  0.73012  0.35997  0.49426  1.0000
  H   H2151     1.0  0.57797  0.36398  0.92488  1.0000
  H   H2152     1.0  0.66320  0.29401  0.87851  1.0000
  N   N68       1.0  0.96972  0.42056  0.73819  1.0000
  H   H2153     1.0  0.56301  0.25754  0.86681  1.0000
  H   H2154     1.0  0.53694  0.40839  0.86446  1.0000
  H   H2155     1.0  0.98260  0.38525  0.88039  1.0000
  H   H2156     1.0  0.97717  0.45481  0.80418  1.0000
  H   H2157     1.0  0.96617  0.33959  0.90086  1.0000
  H   H2158     1.0  0.84710  0.25131  0.93278  1.0000
  H   H2159     1.0  0.51825  0.42477  0.88456  1.0000
  C   C1227     1.0  0.60715  0.36718  0.89980  1.0000
  H   H2160     1.0  0.77409  0.32508  0.96417  1.0000
  H   H2161     1.0  0.97150  0.28030  0.90729  1.0000
  C   C1228     1.0  0.67186  0.43208  0.87503  1.0000
  C   C1229     1.0  0.50484  0.47104  0.80797  1.0000
  C   C1230     1.0  0.52073  0.41958  0.86576  1.0000
  H   H2162     1.0  0.95645  0.46795  0.72576  1.0000
  H   H2163     1.0  0.52776  0.40754  0.78525  1.0000
  H   H2164     1.0  0.61336  0.38340  0.90874  1.0000
  C   C1231     1.0  0.62243  0.35598  0.82414  1.0000
  H   H2165     1.0  0.65430  0.35687  0.89485  1.0000
  H   H2166     1.0  0.87138  0.47252  0.49694  1.0000
  H   H2167     1.0  0.50726  0.45291  0.85320  1.0000
  C   C1232     1.0  0.85340  0.28021  0.89243  1.0000
  C   C1233     1.0  0.96732  0.39396  0.74112  1.0000
  H   H2168     1.0  0.84470  0.29477  0.85759  1.0000
  C   C1234     1.0  0.94206  0.45503  0.72317  1.0000
  C   C1235     1.0  0.98228  0.26822  0.75134  1.0000
  C   C1236     1.0  0.95127  0.42910  0.72066  1.0000
  C   C1237     1.0  0.58069  0.36494  0.90539  1.0000
  H   H2169     1.0  0.54329  0.27167  0.68698  1.0000
  H   H2170     1.0  0.98076  0.38243  0.70603  1.0000
  H   H2171     1.0  0.99119  0.45915  0.71020  1.0000
  H   H2172     1.0  0.63272  0.25218  0.92022  1.0000
  H   H2173     1.0  0.67243  0.35952  0.86944  1.0000
  H   H2174     1.0  0.73290  0.45100  0.81227  1.0000
  H   H2175     1.0  0.81493  0.25145  0.90516  1.0000
  H   H2176     1.0  0.96306  0.34240  0.70703  1.0000
  Fe  Fe145     1.0  0.98589  0.34857  0.82931  1.0000
  C   C1238     1.0  0.49974  0.24892  0.74609  1.0000
  C   C1239     1.0  0.97269  0.38621  0.89743  1.0000
  H   H2177     1.0  0.94611  0.34626  0.94406  1.0000
  N   N69       1.0  0.82323  0.28119  0.92769  1.0000
  C   C1240     1.0  0.81111  0.29942  0.94319  1.0000
  S   S286      1.0  0.82808  0.48417  0.68590  1.0000
  C   C1241     1.0  0.83484  0.29436  0.90727  1.0000
  H   H2178     1.0  0.87485  0.28434  0.86057  1.0000
  H   H2179     1.0  0.51139  0.42272  0.81979  1.0000
  C   C1242     1.0  0.79164  0.31480  0.93119  1.0000
  H   H2180     1.0  0.71090  0.47135  0.82419  1.0000
  C   C1243     1.0  0.49939  0.28919  0.73129  1.0000
  H   H2181     1.0  0.86991  0.27742  0.90270  1.0000
  H   H2182     1.0  0.55334  0.25504  0.64287  1.0000
  C   C1244     1.0  0.78201  0.33354  0.94820  1.0000
  H   H2183     1.0  0.95140  0.38970  0.75203  1.0000
  H   H2184     1.0  0.82465  0.31167  0.95055  1.0000
  H   H2185     1.0  0.80256  0.29108  0.95888  1.0000
  H   H2186     1.0  0.95620  0.43140  0.81081  1.0000
  H   H2187     1.0  0.79276  0.27347  0.90592  1.0000
  H   H2188     1.0  0.84405  0.31051  0.91379  1.0000
  H   H2189     1.0  0.82121  0.30092  0.89460  1.0000
  H   H2190     1.0  0.74702  0.48257  0.78467  1.0000
  S   S287      1.0  0.63071  0.47936  0.84287  1.0000
  H   H2191     1.0  0.76583  0.37586  0.97388  1.0000
  C   C1245     1.0  0.95752  0.33492  0.95554  1.0000
  H   H2192     1.0  0.79864  0.32447  0.91552  1.0000
  H   H2193     1.0  0.77652  0.30362  0.92571  1.0000
  C   C1246     1.0  0.65023  0.32904  0.86886  1.0000
  C   C1247     1.0  0.52326  0.44177  0.85027  1.0000
  C   C1248     1.0  0.62959  0.35511  0.79799  1.0000
  C   C1249     1.0  0.71236  0.25803  0.50915  1.0000
  H   H2194     1.0  0.96569  0.26782  0.71704  1.0000
  C   C1250     1.0  0.65405  0.35538  0.87520  1.0000
  C   C1251     1.0  0.84239  0.26837  0.94152  1.0000
  H   H2195     1.0  0.62302  0.33769  0.83125  1.0000
  H   H2196     1.0  0.94658  0.42839  0.76764  1.0000
  H   H2197     1.0  0.57338  0.34856  0.89752  1.0000
  H   H2198     1.0  0.79645  0.34564  0.95370  1.0000
  H   H2199     1.0  0.61715  0.34360  0.78821  1.0000
  H   H2200     1.0  0.60369  0.36209  0.82512  1.0000
  H   H2201     1.0  0.49978  0.42152  0.77936  1.0000
  C   C1252     1.0  0.66608  0.31274  0.88374  1.0000
  H   H2202     1.0  0.93492  0.41825  0.72232  1.0000
  N   N70       1.0  0.78034  0.33908  0.55862  1.0000
  C   C1253     1.0  0.79925  0.32924  0.54229  1.0000
  C   C1254     1.0  0.76534  0.35670  0.54500  1.0000
  C   C1255     1.0  0.79275  0.35250  0.57805  1.0000
  C   C1256     1.0  0.76509  0.32001  0.56981  1.0000
  C   C1257     1.0  0.76069  0.29737  0.55491  1.0000
  C   C1258     1.0  0.81916  0.31466  0.55460  1.0000
  C   C1259     1.0  0.77668  0.36756  0.59465  1.0000
  C   C1260     1.0  0.75155  0.34711  0.52351  1.0000
  C   C1261     1.0  0.74011  0.36735  0.50941  1.0000
  C   C1262     1.0  0.74091  0.28226  0.56563  1.0000
  C   C1263     1.0  0.83376  0.30044  0.53671  1.0000
  C   C1264     1.0  0.79004  0.37529  0.61678  1.0000
  H   H2203     1.0  0.80804  0.34395  0.53245  1.0000
  H   H2204     1.0  0.79161  0.31812  0.52817  1.0000
  H   H2205     1.0  0.75160  0.36480  0.55666  1.0000
  H   H2206     1.0  0.77660  0.37162  0.53866  1.0000
  H   H2207     1.0  0.80618  0.36474  0.57032  1.0000
  H   H2208     1.0  0.80288  0.34006  0.58962  1.0000
  H   H2209     1.0  0.77295  0.31359  0.58676  1.0000
  H   H2210     1.0  0.74753  0.32759  0.57496  1.0000
  H   H2211     1.0  0.77696  0.28622  0.55417  1.0000
  H   H2212     1.0  0.75575  0.30158  0.53648  1.0000
  H   H2213     1.0  0.83155  0.32683  0.56370  1.0000
  H   H2214     1.0  0.81178  0.30223  0.56800  1.0000
  H   H2215     1.0  0.76080  0.35750  0.60042  1.0000
  H   H2216     1.0  0.77083  0.38399  0.58532  1.0000
  H   H2217     1.0  0.76321  0.33729  0.51112  1.0000
  H   H2218     1.0  0.73702  0.33537  0.52970  1.0000
  C   C1265     1.0  0.80579  0.26396  0.91731  1.0000
  C   C1266     1.0  0.52209  0.41637  0.74887  1.0000
  H   H2219     1.0  0.73490  0.27760  0.96834  1.0000
  H   H2220     1.0  0.72386  0.29225  0.56570  1.0000
  H   H2221     1.0  0.73849  0.26615  0.55474  1.0000
  H   H2222     1.0  0.74536  0.27674  0.58401  1.0000
  H   H2223     1.0  0.84292  0.31266  0.52421  1.0000
  H   H2224     1.0  0.84746  0.28982  0.54611  1.0000
  H   H2225     1.0  0.82230  0.28825  0.52654  1.0000
  H   H2226     1.0  0.77865  0.38732  0.62750  1.0000
  H   H2227     1.0  0.79492  0.35968  0.62785  1.0000
  H   H2228     1.0  0.80639  0.38507  0.61182  1.0000
  H   H2229     1.0  0.94977  0.34828  0.73548  1.0000
  H   H2230     1.0  0.54242  0.42421  0.82191  1.0000
  C   C1267     1.0  0.50831  0.26461  0.63136  1.0000
  H   H2231     1.0  0.54124  0.41603  0.74406  1.0000
  H   H2232     1.0  0.75179  0.40461  0.97773  1.0000
  S   S288      1.0  0.68677  0.24965  0.52561  1.0000
  C   C1268     1.0  0.94142  0.32272  0.97376  1.0000
  H   H2233     1.0  0.52376  0.45954  0.76806  1.0000
  C   C1269     1.0  0.97072  0.31646  0.93998  1.0000
  H   H2234     1.0  0.62865  0.41022  0.87046  1.0000
  H   H2235     1.0  0.65706  0.37079  0.83212  1.0000
  H   H2236     1.0  0.56429  0.45949  0.81221  1.0000
  H   H2237     1.0  0.76460  0.47894  0.82676  1.0000
  H   H2238     1.0  0.64778  0.34773  0.79599  1.0000
  H   H2239     1.0  0.61630  0.35152  0.90764  1.0000
  H   H2240     1.0  0.50487  0.30746  0.73259  1.0000
  H   H2241     1.0  0.68757  0.44030  0.86640  1.0000
  H   H2242     1.0  0.53907  0.45134  0.85670  1.0000
  C   C1270     1.0  0.73703  0.28980  0.49249  1.0000
  C   C1271     1.0  0.97939  0.26003  0.72799  1.0000
  H   H2243     1.0  0.51275  0.42974  0.73773  1.0000
  C   C1272     1.0  0.96498  0.35261  0.72365  1.0000
  H   H2244     1.0  0.51918  0.28096  0.63148  1.0000
  H   H2245     1.0  0.68508  0.31706  0.88091  1.0000
  N   N71       1.0  0.63676  0.37303  0.86476  1.0000
  H   H2246     1.0  0.71414  0.46937  0.72140  1.0000
  C   C1273     1.0  0.66617  0.40861  0.86296  1.0000
  H   H2247     1.0  0.67582  0.42918  0.89409  1.0000
  H   H2248     1.0  0.85891  0.27908  0.94149  1.0000
  H   H2249     1.0  0.62888  0.37314  0.78994  1.0000
  H   H2250     1.0  0.57969  0.27747  0.71179  1.0000
  H   H2251     1.0  0.68176  0.39675  0.86503  1.0000
  C   C1274     1.0  0.50604  0.27288  0.74886  1.0000
  H   H2252     1.0  0.97939  0.40372  0.78588  1.0000
  H   H2253     1.0  0.95674  0.30944  0.92813  1.0000
  H   H2254     1.0  0.78091  0.39894  0.98959  1.0000
  H   H2255     1.0  0.78416  0.25862  0.94957  1.0000
  H   H2256     1.0  0.75389  0.37949  0.50224  1.0000
  C   C1275     1.0  0.74567  0.49037  0.71687  1.0000
  H   H2257     1.0  0.90315  0.48110  0.61328  1.0000
  H   H2258     1.0  0.66392  0.41257  0.84380  1.0000
  H   H2259     1.0  0.63295  0.39124  0.83101  1.0000
  H   H2260     1.0  0.65671  0.44467  0.87342  1.0000
  H   H2261     1.0  0.93021  0.30914  0.96526  1.0000
  H   H2262     1.0  0.59954  0.38188  0.86501  1.0000
  C   C1276     1.0  0.63833  0.37345  0.83797  1.0000
  H   H2263     1.0  0.87455  0.25711  0.97738  1.0000
  H   H2264     1.0  0.83490  0.49034  0.51456  1.0000
  H   H2265     1.0  0.82004  0.46732  0.76655  1.0000
  H   H2266     1.0  0.91309  0.45056  0.69818  1.0000
  H   H2267     1.0  0.89104  0.48400  0.57169  1.0000
  H   H2268     1.0  0.65502  0.32604  0.85002  1.0000
  H   H2269     1.0  0.64590  0.39700  0.89325  1.0000
  H   H2270     1.0  0.92998  0.45624  0.73877  1.0000
  C   C1277     1.0  0.57826  0.25649  0.87831  1.0000
  C   C1278     1.0  0.85714  0.24812  0.97915  1.0000
  H   H2271     1.0  0.66162  0.31439  0.90287  1.0000
  C   C1279     1.0  0.54793  0.47062  0.81211  1.0000
  H   H2272     1.0  0.55228  0.28225  0.72747  1.0000
  H   H2273     1.0  0.78671  0.47176  0.79450  1.0000
  H   H2274     1.0  0.84678  0.26259  0.88716  1.0000
  H   H2275     1.0  0.70955  0.46243  0.79364  1.0000
  H   H2276     1.0  0.60504  0.35118  0.86566  1.0000
  C   C1280     1.0  0.98461  0.29035  0.89653  1.0000
  C   C1281     1.0  0.64336  0.39736  0.87372  1.0000
  H   H2277     1.0  0.92668  0.25299  0.74437  1.0000
  C   C1282     1.0  0.71671  0.28228  0.50508  1.0000
  H   H2278     1.0  0.50510  0.40904  0.86033  1.0000
  H   H2279     1.0  0.86914  0.48500  0.53954  1.0000
  C   C1283     1.0  0.52602  0.43513  0.82375  1.0000
  H   H2280     1.0  0.97630  0.30131  0.95151  1.0000
  C   C1284     1.0  0.72319  0.48538  0.72657  1.0000
  H   H2281     1.0  0.95772  0.42644  0.70216  1.0000
  H   H2282     1.0  0.50971  0.25602  0.61374  1.0000
  H   H2283     1.0  0.96965  0.34637  0.96559  1.0000
  H   H2284     1.0  0.79323  0.47471  0.55543  1.0000
  C   C1285     1.0  0.72176  0.46684  0.80834  1.0000
  H   H2285     1.0  0.94897  0.38351  0.70827  1.0000
  C   C1286     1.0  0.83751  0.26333  0.96821  1.0000
  H   H2286     1.0  0.97498  0.30274  0.88467  1.0000
  H   H2287     1.0  0.92059  0.48089  0.70417  1.0000
  H   H2288     1.0  0.82048  0.25428  0.97146  1.0000
  C   C1287     1.0  0.54968  0.25709  0.69864  1.0000
  H   H2289     1.0  0.98268  0.38654  0.75105  1.0000
  H   H2290     1.0  0.98166  0.34687  0.73244  1.0000
  C   C1288     1.0  0.73725  0.48779  0.80094  1.0000
  H   H2291     1.0  0.97303  0.40484  0.90367  1.0000
  H   H2292     1.0  0.51363  0.25637  0.66806  1.0000
  H   H2293     1.0  0.50475  0.48096  0.82496  1.0000
  H   H2294     1.0  0.83206  0.24398  0.54047  1.0000
  H   H2295     1.0  0.98485  0.26268  0.87000  1.0000
  H   H2296     1.0  0.83691  0.28024  0.97809  1.0000
  C   C1289     1.0  0.98412  0.36994  0.91589  1.0000
  H   H2297     1.0  0.55277  0.48702  0.77652  1.0000
  C   C1290     1.0  0.98420  0.34369  0.90767  1.0000
  C   C1291     1.0  0.79204  0.24814  0.93504  1.0000
  C   C1292     1.0  0.76329  0.39095  0.98616  1.0000
  H   H2298     1.0  0.86576  0.48387  0.59118  1.0000
  H   H2299     1.0  0.79606  0.48368  0.75314  1.0000
  C   C1293     1.0  0.80986  0.48424  0.76713  1.0000
  H   H2300     1.0  0.66261  0.32754  0.98886  1.0000
  C   C1294     1.0  0.79844  0.48722  0.79159  1.0000
  H   H2301     1.0  0.78893  0.49175  0.58220  1.0000
  H   H2302     1.0  0.81281  0.48657  0.80492  1.0000
  H   H2303     1.0  0.57908  0.25145  0.67554  1.0000
  H   H2304     1.0  0.73087  0.48658  0.62249  1.0000
  C   C1295     1.0  0.51631  0.24751  0.65087  1.0000
  H   H2305     1.0  0.68121  0.36758  0.99009  1.0000
  C   C1296     1.0  0.86499  0.49042  0.49146  1.0000
  N   N72       1.0  0.99172  0.32514  0.92568  1.0000
  H   H2306     1.0  0.98652  0.42863  0.82026  1.0000
  H   H2307     1.0  0.89647  0.24285  0.74125  1.0000
  H   H2308     1.0  0.81111  0.24207  0.51656  1.0000
  S   S289      1.0  0.84860  0.64197  0.46615  1.0000
  N   N73       1.0  0.69892  0.73725  0.05519  1.0000
  S   S290      1.0  0.63823  0.52426  0.13378  1.0000
  H   H2309     1.0  0.79872  0.63792  0.45138  1.0000
  Fe  Fe146     1.0  0.79919  0.53845  0.30229  1.0000
  S   S291      1.0  0.83587  0.52221  0.30000  1.0000
  S   S292      1.0  0.77597  0.53667  0.26897  1.0000
  Fe  Fe147     1.0  0.81167  0.56464  0.34927  1.0000
  S   S293      1.0  0.84858  0.55021  0.34850  1.0000
  S   S294      1.0  0.79826  0.58850  0.37959  1.0000
  Fe  Fe148     1.0  0.84892  0.55876  0.30921  1.0000
  S   S295      1.0  0.88021  0.58034  0.29395  1.0000
  Fe  Fe149     1.0  0.83153  0.51525  0.33942  1.0000
  S   S296      1.0  0.81257  0.57518  0.31063  1.0000
  S   S297      1.0  0.79424  0.52952  0.34120  1.0000
  Fe  Fe150     1.0  0.95459  0.69929  0.17993  1.0000
  H   H2310     1.0  0.51130  0.53963  0.12455  1.0000
  Fe  Fe151     1.0  0.93274  0.68451  0.13141  1.0000
  S   S298      1.0  0.94494  0.64680  0.13605  1.0000
  S   S299      1.0  0.91296  0.69878  0.09850  1.0000
  Fe  Fe152     1.0  0.93207  0.64985  0.17421  1.0000
  S   S300      1.0  0.90612  0.62241  0.19046  1.0000
  S   S301      1.0  0.91821  0.68701  0.16877  1.0000
  S   S302      1.0  0.96782  0.70066  0.14214  1.0000
  S   S303      1.0  0.85370  0.65064  0.01470  1.0000
  Fe  Fe153     1.0  0.56722  0.64482  0.17254  1.0000
  S   S304      1.0  0.55189  0.64712  0.13615  1.0000
  S   S305      1.0  0.58787  0.61210  0.18637  1.0000
  Fe  Fe154     1.0  0.54123  0.69152  0.18726  1.0000
  S   S306      1.0  0.52364  0.69518  0.15149  1.0000
  S   S307      1.0  0.54101  0.72144  0.21488  1.0000
  Fe  Fe155     1.0  0.51718  0.65548  0.15449  1.0000
  Fe  Fe156     1.0  0.55998  0.68647  0.13664  1.0000
  S   S308      1.0  0.57644  0.70456  0.10344  1.0000
  S   S309      1.0  0.53246  0.65265  0.19118  1.0000
  S   S310      1.0  0.57772  0.68352  0.17217  1.0000
  H   H2311     1.0  0.95724  0.63404  0.04166  1.0000
  H   H2312     1.0  0.87737  0.71090  0.14119  1.0000
  C   C1297     1.0  0.94159  0.66678  0.02789  1.0000
  C   C1298     1.0  0.75679  0.70277  0.03716  1.0000
  H   H2313     1.0  0.50228  0.52445  0.16802  1.0000
  H   H2314     1.0  0.73810  0.51683  0.40060  1.0000
  H   H2315     1.0  0.63318  0.62113  0.26199  1.0000
  C   C1299     1.0  0.51599  0.59131  0.20684  1.0000
  C   C1300     1.0  0.65138  0.57985  0.24126  1.0000
  C   C1301     1.0  0.74003  0.71602  0.05396  1.0000
  C   C1302     1.0  0.89790  0.68492  0.07446  1.0000
  C   C1303     1.0  0.88661  0.69922  0.05727  1.0000
  C   C1304     1.0  0.87348  0.68912  0.03862  1.0000
  C   C1305     1.0  0.87122  0.66447  0.03698  1.0000
  C   C1306     1.0  0.88276  0.65015  0.05400  1.0000
  C   C1307     1.0  0.89619  0.66026  0.07243  1.0000
  H   H2316     1.0  0.88777  0.71832  0.05857  1.0000
  H   H2317     1.0  0.86467  0.70043  0.02582  1.0000
  H   H2318     1.0  0.88135  0.63106  0.05286  1.0000
  H   H2319     1.0  0.90506  0.64900  0.08523  1.0000
  C   C1308     1.0  0.88676  0.59215  0.26504  1.0000
  C   C1309     1.0  0.87473  0.58499  0.24468  1.0000
  C   C1310     1.0  0.88103  0.59435  0.22219  1.0000
  C   C1311     1.0  0.89914  0.61135  0.21958  1.0000
  C   C1312     1.0  0.91093  0.61878  0.24000  1.0000
  C   C1313     1.0  0.90489  0.60913  0.26247  1.0000
  H   H2320     1.0  0.86089  0.57187  0.24619  1.0000
  H   H2321     1.0  0.87202  0.58808  0.20661  1.0000
  H   H2322     1.0  0.92496  0.63171  0.23843  1.0000
  H   H2323     1.0  0.91446  0.61479  0.27797  1.0000
  H   H2324     1.0  0.79199  0.66955  0.08402  1.0000
  H   H2325     1.0  0.94938  0.65557  0.06387  1.0000
  C   C1314     1.0  0.62360  0.54831  0.14847  1.0000
  C   C1315     1.0  0.61816  0.56919  0.13571  1.0000
  C   C1316     1.0  0.60696  0.58875  0.14682  1.0000
  C   C1317     1.0  0.60111  0.58774  0.17095  1.0000
  C   C1318     1.0  0.60628  0.56675  0.18362  1.0000
  C   C1319     1.0  0.61725  0.54716  0.17246  1.0000
  H   H2326     1.0  0.62281  0.57033  0.11712  1.0000
  H   H2327     1.0  0.60317  0.60472  0.13677  1.0000
  H   H2328     1.0  0.60153  0.56558  0.20217  1.0000
  H   H2329     1.0  0.62071  0.53108  0.18235  1.0000
  C   C1320     1.0  0.78869  0.55549  0.46302  1.0000
  C   C1321     1.0  0.74798  0.51785  0.23414  1.0000
  C   C1322     1.0  0.75366  0.51725  0.25840  1.0000
  H   H2330     1.0  0.74757  0.68771  0.02867  1.0000
  H   H2331     1.0  0.75790  0.52932  0.22232  1.0000
  C   C1323     1.0  0.83411  0.62632  0.44282  1.0000
  C   C1324     1.0  0.84780  0.61271  0.42683  1.0000
  C   C1325     1.0  0.83721  0.60064  0.40771  1.0000
  C   C1326     1.0  0.81272  0.60238  0.40398  1.0000
  C   C1327     1.0  0.79902  0.61571  0.42012  1.0000
  C   C1328     1.0  0.80957  0.62755  0.43937  1.0000
  H   H2332     1.0  0.86678  0.61153  0.42926  1.0000
  H   H2333     1.0  0.84804  0.59021  0.39576  1.0000
  H   H2334     1.0  0.78006  0.61715  0.41759  1.0000
  S   S311      1.0  0.96777  0.66207  0.18668  1.0000
  H   H2335     1.0  0.77205  0.49254  0.41268  1.0000
  H   H2336     1.0  0.78170  0.53973  0.47254  1.0000
  H   H2337     1.0  0.90608  0.60714  0.10348  1.0000
  C   C1329     1.0  0.86025  0.71190  0.13160  1.0000
  C   C1330     1.0  0.77593  0.50855  0.40185  1.0000
  C   C1331     1.0  0.87051  0.51680  0.40861  1.0000
  H   H2338     1.0  0.89754  0.60601  0.38498  1.0000
  H   H2339     1.0  0.94059  0.68554  0.03379  1.0000
  C   C1332     1.0  0.85987  0.66694  0.12843  1.0000
  C   C1333     1.0  0.63708  0.62258  0.24272  1.0000
  H   H2340     1.0  0.80430  0.58940  0.47284  1.0000
  H   H2341     1.0  0.55791  0.58833  0.14115  1.0000
  H   H2342     1.0  0.79525  0.63898  0.07456  1.0000
  H   H2343     1.0  0.52972  0.60477  0.17397  1.0000
  C   C1334     1.0  0.85136  0.52695  0.42493  1.0000
  H   H2344     1.0  0.81376  0.59307  0.18794  1.0000
  H   H2345     1.0  0.78999  0.50433  0.38873  1.0000
  H   H2346     1.0  0.72509  0.72613  0.45137  1.0000
  H   H2347     1.0  0.81232  0.56426  0.43408  1.0000
  C   C1335     1.0  0.54577  0.57619  0.10700  1.0000
  H   H2348     1.0  0.65595  0.68228  0.08416  1.0000
  H   H2349     1.0  0.49917  0.56714  0.13358  1.0000
  H   H2350     1.0  0.64972  0.71796  0.05819  1.0000
  H   H2351     1.0  0.56239  0.56587  0.10428  1.0000
  C   C1336     1.0  0.91654  0.72803  0.46166  1.0000
  H   H2352     1.0  0.92054  0.62646  0.00476  1.0000
  H   H2353     1.0  0.58663  0.50769  0.16123  1.0000
  H   H2354     1.0  0.64599  0.57847  0.26022  1.0000
  H   H2355     1.0  0.53079  0.56641  0.09908  1.0000
  C   C1337     1.0  0.52826  0.70419  0.31313  1.0000
  H   H2356     1.0  0.83785  0.61453  0.26941  1.0000
  H   H2357     1.0  0.96817  0.67680  0.00216  1.0000
  C   C1338     1.0  0.78306  0.52938  0.41799  1.0000
  H   H2358     1.0  0.74233  0.51590  0.14011  1.0000
  H   H2359     1.0  0.81054  0.65722  0.12299  1.0000
  C   C1339     1.0  0.82714  0.61437  0.15861  1.0000
  H   H2360     1.0  0.66086  0.60889  0.21659  1.0000
  C   C1340     1.0  0.80932  0.54873  0.44596  1.0000
  H   H2361     1.0  0.67349  0.61185  0.24564  1.0000
  H   H2362     1.0  0.80891  0.62453  0.19126  1.0000
  C   C1341     1.0  0.74693  0.72572  0.48271  1.0000
  H   H2363     1.0  0.55145  0.59588  0.07430  1.0000
  H   H2364     1.0  0.76358  0.71490  0.02313  1.0000
  H   H2365     1.0  0.83814  0.61199  0.19557  1.0000
  H   H2366     1.0  0.62586  0.53907  0.23052  1.0000
  H   H2367     1.0  0.88523  0.70875  0.32052  1.0000
  C   C1342     1.0  0.50958  0.55156  0.14013  1.0000
  C   C1343     1.0  0.80397  0.65658  0.07522  1.0000
  C   C1344     1.0  0.67345  0.73530  0.01730  1.0000
  H   H2368     1.0  0.81521  0.50868  0.46449  1.0000
  H   H2369     1.0  0.97578  0.73732  0.25737  1.0000
  H   H2370     1.0  0.84124  0.68868  0.15498  1.0000
  H   H2371     1.0  0.81009  0.61354  0.14898  1.0000
  H   H2372     1.0  0.91156  0.69551  0.30792  1.0000
  H   H2373     1.0  0.57241  0.49563  0.13539  1.0000
  C   C1345     1.0  0.83953  0.63851  0.15419  1.0000
  H   H2374     1.0  0.71661  0.58058  0.30275  1.0000
  H   H2375     1.0  0.87535  0.66591  0.14051  1.0000
  C   C1346     1.0  0.51986  0.58891  0.18016  1.0000
  H   H2376     1.0  0.89477  0.63269  0.13753  1.0000
  C   C1347     1.0  0.89911  0.59929  0.12020  1.0000
  H   H2377     1.0  0.82473  0.53956  0.40051  1.0000
  H   H2378     1.0  0.79606  0.66941  0.39506  1.0000
  H   H2379     1.0  0.89706  0.72986  0.45989  1.0000
  H   H2380     1.0  0.72463  0.59383  0.27468  1.0000
  H   H2381     1.0  0.55252  0.53442  0.12541  1.0000
  H   H2382     1.0  0.59374  0.72609  0.06023  1.0000
  H   H2383     1.0  0.85241  0.51749  0.44217  1.0000
  H   H2384     1.0  0.91451  0.69611  0.00512  1.0000
  H   H2385     1.0  0.65589  0.73686  0.08256  1.0000
  H   H2386     1.0  0.85542  0.63938  0.16586  1.0000
  H   H2387     1.0  0.50317  0.69670  0.28488  1.0000
  H   H2388     1.0  0.54242  0.73512  0.29617  1.0000
  H   H2389     1.0  0.51547  0.69867  0.32705  1.0000
  C   C1348     1.0  0.82624  0.52504  0.41399  1.0000
  N   N74       1.0  0.84627  0.64396  0.12885  1.0000
  H   H2390     1.0  0.78627  0.50278  0.45453  1.0000
  H   H2391     1.0  0.86774  0.67014  0.11066  1.0000
  C   C1349     1.0  0.82405  0.64581  0.11414  1.0000
  H   H2392     1.0  0.56434  0.60931  0.10002  1.0000
  H   H2393     1.0  0.77401  0.56385  0.45281  1.0000
  H   H2394     1.0  0.85555  0.54593  0.42803  1.0000
  N   N75       1.0  0.67030  0.56171  0.23541  1.0000
  C   C1350     1.0  0.66239  0.53785  0.24474  1.0000
  C   C1351     1.0  0.69363  0.56771  0.24679  1.0000
  C   C1352     1.0  0.67366  0.56138  0.20888  1.0000
  C   C1353     1.0  0.69144  0.54269  0.19928  1.0000
  C   C1354     1.0  0.64100  0.52659  0.23197  1.0000
  C   C1355     1.0  0.69287  0.57186  0.27394  1.0000
  H   H2395     1.0  0.61724  0.49659  0.23531  1.0000
  C   C1356     1.0  0.69264  0.54349  0.17227  1.0000
  H   H2396     1.0  0.88615  0.72707  0.99437  1.0000
  H   H2397     1.0  0.65741  0.53919  0.26378  1.0000
  H   H2398     1.0  0.67724  0.52473  0.24424  1.0000
  H   H2399     1.0  0.70667  0.55306  0.24401  1.0000
  H   H2400     1.0  0.70171  0.58353  0.23811  1.0000
  H   H2401     1.0  0.65641  0.55895  0.19981  1.0000
  H   H2402     1.0  0.68032  0.57878  0.20245  1.0000
  H   H2403     1.0  0.68634  0.52447  0.20465  1.0000
  H   H2404     1.0  0.70955  0.54634  0.20578  1.0000
  H   H2405     1.0  0.64628  0.52106  0.21390  1.0000
  H   H2406     1.0  0.68096  0.58685  0.27860  1.0000
  H   H2407     1.0  0.68668  0.55575  0.28344  1.0000
  H   H2408     1.0  0.85023  0.72762  0.13803  1.0000
  H   H2409     1.0  0.62088  0.61815  0.23255  1.0000
  H   H2410     1.0  0.54741  0.51944  0.17769  1.0000
  H   H2411     1.0  0.67520  0.53880  0.16471  1.0000
  H   H2412     1.0  0.69774  0.56142  0.16585  1.0000
  H   H2413     1.0  0.70603  0.53050  0.16585  1.0000
  H   H2414     1.0  0.75549  0.53096  0.37757  1.0000
  C   C1357     1.0  0.79663  0.57344  0.48152  1.0000
  C   C1358     1.0  0.59169  0.73198  0.09789  1.0000
  H   H2415     1.0  0.55286  0.56947  0.17978  1.0000
  H   H2416     1.0  0.68903  0.70015  0.05872  1.0000
  C   C1359     1.0  0.82167  0.61085  0.18496  1.0000
  C   C1360     1.0  0.68731  0.71709  0.06869  1.0000
  C   C1361     1.0  0.66043  0.71959  0.07453  1.0000
  C   C1362     1.0  0.55215  0.53985  0.14430  1.0000
  H   H2417     1.0  0.88828  0.51977  0.41639  1.0000
  H   H2418     1.0  0.77217  0.69563  0.04719  1.0000
  C   C1363     1.0  0.84574  0.68946  0.13583  1.0000
  C   C1364     1.0  0.65231  0.70012  0.09165  1.0000
  C   C1365     1.0  0.63211  0.50462  0.24522  1.0000
  H   H2419     1.0  0.71233  0.71342  0.02809  1.0000
  C   C1366     1.0  0.89764  0.69343  0.32178  1.0000
  H   H2420     1.0  0.72995  0.56257  0.28003  1.0000
  N   N76       1.0  0.53389  0.55917  0.14831  1.0000
  C   C1367     1.0  0.88359  0.61722  0.13341  1.0000
  H   H2421     1.0  0.86855  0.63011  0.10088  1.0000
  H   H2422     1.0  0.69682  0.71375  0.08564  1.0000
  H   H2423     1.0  0.92348  0.65939  0.02845  1.0000
  H   H2424     1.0  0.85123  0.60833  0.11517  1.0000
  H   H2425     1.0  0.58692  0.72975  0.37975  1.0000
  H   H2426     1.0  0.53391  0.69650  0.27557  1.0000
  H   H2427     1.0  0.82914  0.69157  0.12563  1.0000
  H   H2428     1.0  0.86805  0.49741  0.40638  1.0000
  H   H2429     1.0  0.83843  0.59929  0.15283  1.0000
  H   H2430     1.0  0.82548  0.50855  0.40343  1.0000
  H   H2431     1.0  0.86992  0.52556  0.39095  1.0000
  C   C1368     1.0  0.59831  0.73796  0.07445  1.0000
  C   C1369     1.0  0.95689  0.65328  0.04577  1.0000
  H   H2432     1.0  0.52778  0.59487  0.13501  1.0000
  H   H2433     1.0  0.64183  0.64125  0.23857  1.0000
  C   C1370     1.0  0.54867  0.59954  0.09342  1.0000
  C   C1371     1.0  0.71753  0.57759  0.28333  1.0000
  H   H2434     1.0  0.66139  0.70180  0.10897  1.0000
  C   C1372     1.0  0.51899  0.73451  0.23337  1.0000
  H   H2435     1.0  0.68728  0.73542  0.00317  1.0000
  H   H2436     1.0  0.78373  0.54582  0.40689  1.0000
  Fe  Fe157     1.0  0.97939  0.66291  0.14817  1.0000
  H   H2437     1.0  0.82556  0.54720  0.45697  1.0000
  H   H2438     1.0  0.87804  0.60876  0.15031  1.0000
  H   H2439     1.0  0.82719  0.65233  0.16106  1.0000
  H   H2440     1.0  0.53258  0.61086  0.09539  1.0000
  H   H2441     1.0  0.75282  0.70759  0.48031  1.0000
  C   C1373     1.0  0.80481  0.50535  0.44814  1.0000
  H   H2442     1.0  0.52793  0.55169  0.18569  1.0000
  C   C1374     1.0  0.95206  0.66542  0.00245  1.0000
  H   H2443     1.0  0.75062  0.73003  0.06263  1.0000
  H   H2444     1.0  0.92111  0.72937  0.42346  1.0000
  C   C1375     1.0  0.71897  0.72731  0.04027  1.0000
  C   C1376     1.0  0.53428  0.56624  0.17404  1.0000
  H   H2445     1.0  0.94733  0.73699  0.43978  1.0000
  C   C1377     1.0  0.82757  0.65480  0.08826  1.0000
  H   H2446     1.0  0.85874  0.63839  0.26465  1.0000
  H   H2447     1.0  0.72566  0.50426  0.20631  1.0000
  H   H2448     1.0  0.80723  0.66266  0.05670  1.0000
  H   H2449     1.0  0.76783  0.53178  0.43033  1.0000
  H   H2450     1.0  0.79028  0.67546  0.36420  1.0000
  H   H2451     1.0  0.73370  0.70333  0.06767  1.0000
  H   H2452     1.0  0.88045  0.50164  0.48668  1.0000
  C   C1378     1.0  0.86173  0.62461  0.11855  1.0000
  N   N77       1.0  0.80594  0.52650  0.43150  1.0000
  C   C1379     1.0  0.65758  0.60613  0.23580  1.0000
  H   H2453     1.0  0.90634  0.69344  0.33940  1.0000
  H   H2454     1.0  0.63292  0.70173  0.09482  1.0000
  H   H2455     1.0  0.81550  0.62815  0.11274  1.0000
  S   S312      1.0  0.95832  0.72478  0.21143  1.0000
  C   C1380     1.0  0.49325  0.53920  0.15869  1.0000
  C   C1381     1.0  0.54142  0.58054  0.13381  1.0000
  H   H2456     1.0  0.97528  0.66022  0.04567  1.0000
  H   H2457     1.0  0.54618  0.69778  0.31823  1.0000
  H   H2458     1.0  0.63497  0.57624  0.23111  1.0000
  H   H2459     1.0  0.57019  0.54677  0.14818  1.0000
  H   H2460     1.0  0.88963  0.58402  0.36316  1.0000
  C   C1382     1.0  0.79783  0.66229  0.37682  1.0000
  H   H2461     1.0  0.91442  0.59420  0.13149  1.0000
  H   H2462     1.0  0.67016  0.71656  0.02241  1.0000
  H   H2463     1.0  0.83576  0.67263  0.08762  1.0000
  C   C1383     1.0  0.54893  0.51641  0.15837  1.0000
  H   H2464     1.0  0.88889  0.58305  0.11614  1.0000
  H   H2465     1.0  0.83901  0.64237  0.07815  1.0000
  H   H2466     1.0  0.82796  0.64248  0.25721  1.0000
  N   N78       1.0  0.85225  0.64302  0.33755  1.0000
  C   C1384     1.0  0.85127  0.63113  0.31369  1.0000
  C   C1385     1.0  0.86451  0.62648  0.35478  1.0000
  C   C1386     1.0  0.82704  0.64623  0.34634  1.0000
  C   C1387     1.0  0.86422  0.66693  0.33653  1.0000
  C   C1388     1.0  0.88449  0.67015  0.31800  1.0000
  C   C1389     1.0  0.83504  0.64321  0.29500  1.0000
  C   C1390     1.0  0.82398  0.65755  0.37123  1.0000
  C   C1391     1.0  0.89077  0.62028  0.34954  1.0000
  C   C1392     1.0  0.89961  0.60065  0.36617  1.0000
  C   C1393     1.0  0.84028  0.63407  0.27007  1.0000
  H   H2467     1.0  0.78753  0.64557  0.37587  1.0000
  H   H2468     1.0  0.84500  0.61259  0.31579  1.0000
  H   H2469     1.0  0.86918  0.62920  0.30574  1.0000
  H   H2470     1.0  0.86465  0.63409  0.37287  1.0000
  H   H2471     1.0  0.85446  0.60952  0.35617  1.0000
  H   H2472     1.0  0.81765  0.62884  0.34656  1.0000
  H   H2473     1.0  0.81691  0.65795  0.33408  1.0000
  H   H2474     1.0  0.85105  0.68118  0.33246  1.0000
  H   H2475     1.0  0.87136  0.67142  0.35432  1.0000
  H   H2476     1.0  0.87717  0.67064  0.29979  1.0000
  H   H2477     1.0  0.89768  0.65558  0.31863  1.0000
  H   H2478     1.0  0.81618  0.63911  0.29900  1.0000
  H   H2479     1.0  0.83717  0.66276  0.29498  1.0000
  H   H2480     1.0  0.83353  0.67464  0.37239  1.0000
  H   H2481     1.0  0.83064  0.64561  0.38535  1.0000
  H   H2482     1.0  0.89353  0.61397  0.33121  1.0000
  H   H2483     1.0  0.90200  0.63606  0.35259  1.0000
  H   H2484     1.0  0.91866  0.59703  0.36257  1.0000
  C   C1394     1.0  0.75328  0.51446  0.38820  1.0000
  C   C1395     1.0  0.49661  0.72446  0.23678  1.0000
  H   H2485     1.0  0.53331  0.59242  0.21604  1.0000
  C   C1396     1.0  0.72962  0.50375  0.22500  1.0000
  H   H2486     1.0  0.89817  0.68998  0.48639  1.0000
  C   C1397     1.0  0.74697  0.49741  0.13514  1.0000
  H   H2487     1.0  0.86387  0.71436  0.11236  1.0000
  H   H2488     1.0  0.92152  0.70898  0.46199  1.0000
  H   H2489     1.0  0.55589  0.72145  0.34892  1.0000
  H   H2490     1.0  0.62561  0.50941  0.26318  1.0000
  C   C1398     1.0  0.92770  0.73879  0.43933  1.0000
  H   H2491     1.0  0.95888  0.64715  0.99988  1.0000
  H   H2492     1.0  0.50580  0.57600  0.21390  1.0000
  C   C1399     1.0  0.52833  0.73147  0.30954  1.0000
  H   H2493     1.0  0.74472  0.50174  0.29216  1.0000
  H   H2494     1.0  0.53301  0.50699  0.15201  1.0000
  H   H2495     1.0  0.52221  0.67217  0.29283  1.0000
  C   C1400     1.0  0.74069  0.50233  0.27345  1.0000
  C   C1401     1.0  0.55595  0.73991  0.34179  1.0000
  H   H2496     1.0  0.51150  0.73671  0.30079  1.0000
  H   H2497     1.0  0.50234  0.58911  0.17138  1.0000
  H   H2498     1.0  0.76183  0.49793  0.12214  1.0000
  H   H2499     1.0  0.56988  0.73985  0.32772  1.0000
  H   H2500     1.0  0.51636  0.72348  0.35867  1.0000
  H   H2501     1.0  0.94518  0.73656  0.48458  1.0000
  C   C1402     1.0  0.51325  0.74100  0.34999  1.0000
  H   H2502     1.0  0.64899  0.73966  0.46750  1.0000
  H   H2503     1.0  0.94056  0.70941  0.99309  1.0000
  C   C1403     1.0  0.52149  0.69170  0.29018  1.0000
  H   H2504     1.0  0.50571  0.60777  0.21048  1.0000
  C   C1404     1.0  0.57007  0.49968  0.15450  1.0000
  H   H2505     1.0  0.74914  0.49972  0.37595  1.0000
  C   C1405     1.0  0.73113  0.73629  0.46635  1.0000
  H   H2506     1.0  0.49215  0.70827  0.22768  1.0000
  C   C1406     1.0  0.92582  0.74037  0.48415  1.0000
  H   H2507     1.0  0.72650  0.74141  0.02867  1.0000
  H   H2508     1.0  0.77001  0.49219  0.16460  1.0000
  S   S313      1.0  0.97157  0.65505  0.84870  1.0000
  Fe  Fe158     1.0  0.84839  0.68765  0.54554  1.0000
  S   S314      1.0  0.81192  0.68326  0.56128  1.0000
  S   S315      1.0  0.87885  0.70460  0.56722  1.0000
  H   H2509     1.0  0.83958  0.55122  0.56342  1.0000
  S   S316      1.0  0.79606  0.65541  0.51322  1.0000
  Fe  Fe159     1.0  0.79858  0.69368  0.52486  1.0000
  C   C1407     1.0  0.89819  0.73162  0.97940  1.0000
  Fe  Fe160     1.0  0.81306  0.64541  0.54826  1.0000
  S   S317      1.0  0.79886  0.61141  0.56637  1.0000
  S   S318      1.0  0.83519  0.69878  0.50940  1.0000
  S   S319      1.0  0.85034  0.64891  0.53462  1.0000
  H   H2510     1.0  0.71891  0.63627  0.86281  1.0000
  C   C1408     1.0  0.87266  0.51858  0.57393  1.0000
  S   S320      1.0  0.51741  0.64681  0.84937  1.0000
  Fe  Fe161     1.0  0.85349  0.68514  0.93142  1.0000
  S   S321      1.0  0.84994  0.64781  0.94495  1.0000
  S   S322      1.0  0.88728  0.69933  0.91261  1.0000
  Fe  Fe162     1.0  0.80466  0.69948  0.95420  1.0000
  S   S323      1.0  0.79930  0.66261  0.96907  1.0000
  H   H2511     1.0  0.57805  0.50787  0.81990  1.0000
  C   C1409     1.0  0.61603  0.59977  0.89926  1.0000
  Fe  Fe163     1.0  0.81140  0.64958  0.93317  1.0000
  S   S324      1.0  0.79547  0.62072  0.90867  1.0000
  S   S325      1.0  0.84268  0.70203  0.96638  1.0000
  S   S326      1.0  0.81581  0.68638  0.91792  1.0000
  Fe  Fe164     1.0  0.64775  0.51413  0.82951  1.0000
  S   S327      1.0  0.64154  0.53006  0.79337  1.0000
  Fe  Fe165     1.0  0.67649  0.55820  0.84649  1.0000
  S   S328      1.0  0.67082  0.57639  0.81140  1.0000
  S   S329      1.0  0.69412  0.57833  0.87745  1.0000
  Fe  Fe166     1.0  0.63293  0.56387  0.81316  1.0000
  S   S330      1.0  0.60134  0.58676  0.80065  1.0000
  Fe  Fe167     1.0  0.67998  0.54105  0.79498  1.0000
  S   S331      1.0  0.70863  0.54430  0.76613  1.0000
  S   S332      1.0  0.63773  0.54766  0.84920  1.0000
  S   S333      1.0  0.68698  0.52315  0.83021  1.0000
  H   H2512     1.0  0.88619  0.68944  0.51581  1.0000
  S   S334      1.0  0.84472  0.53374  0.63633  1.0000
  C   C1410     1.0  0.72301  0.52241  0.74851  1.0000
  C   C1411     1.0  0.74571  0.52720  0.73921  1.0000
  C   C1412     1.0  0.75721  0.51105  0.72390  1.0000
  H   H2513     1.0  0.75442  0.54357  0.74383  1.0000
  H   H2514     1.0  0.77467  0.51487  0.71700  1.0000
  H   H2515     1.0  0.76756  0.50742  0.86747  1.0000
  C   C1413     1.0  0.76682  0.61000  0.89993  1.0000
  C   C1414     1.0  0.76520  0.59503  0.88004  1.0000
  C   C1415     1.0  0.74322  0.58551  0.87278  1.0000
  C   C1416     1.0  0.72241  0.59037  0.88551  1.0000
  C   C1417     1.0  0.72396  0.60537  0.90536  1.0000
  C   C1418     1.0  0.74588  0.61526  0.91240  1.0000
  H   H2516     1.0  0.78114  0.59079  0.87018  1.0000
  H   H2517     1.0  0.74235  0.57421  0.85750  1.0000
  H   H2518     1.0  0.70810  0.60935  0.91546  1.0000
  H   H2519     1.0  0.74665  0.62658  0.92777  1.0000
  C   C1419     1.0  0.53984  0.62930  0.83528  1.0000
  C   C1420     1.0  0.55558  0.61592  0.84943  1.0000
  C   C1421     1.0  0.57382  0.60202  0.83916  1.0000
  C   C1422     1.0  0.57714  0.60193  0.81458  1.0000
  C   C1423     1.0  0.56115  0.61498  0.80042  1.0000
  C   C1424     1.0  0.54258  0.62849  0.81065  1.0000
  H   H2520     1.0  0.55356  0.61624  0.86850  1.0000
  H   H2521     1.0  0.58545  0.59157  0.85025  1.0000
  H   H2522     1.0  0.56342  0.61503  0.78137  1.0000
  H   H2523     1.0  0.53075  0.63873  0.79950  1.0000
  H   H2524     1.0  0.88292  0.51127  0.52948  1.0000
  H   H2525     1.0  0.70627  0.57907  0.67638  1.0000
  H   H2526     1.0  0.94172  0.67423  0.77749  1.0000
  C   C1425     1.0  0.78458  0.51105  0.79309  1.0000
  C   C1426     1.0  0.79511  0.53108  0.87821  1.0000
  C   C1427     1.0  0.81228  0.58995  0.58554  1.0000
  C   C1428     1.0  0.83430  0.59352  0.59620  1.0000
  C   C1429     1.0  0.84384  0.57620  0.61172  1.0000
  C   C1430     1.0  0.83163  0.55502  0.61675  1.0000
  C   C1431     1.0  0.80975  0.55129  0.60587  1.0000
  C   C1432     1.0  0.80017  0.56866  0.59042  1.0000
  H   H2527     1.0  0.84386  0.60978  0.59272  1.0000
  H   H2528     1.0  0.86080  0.57931  0.61996  1.0000
  H   H2529     1.0  0.80021  0.53505  0.60934  1.0000
  H   H2530     1.0  0.78318  0.56563  0.58221  1.0000
  H   H2531     1.0  0.67858  0.74072  0.54481  1.0000
  C   C1433     1.0  0.83307  0.50385  0.56453  1.0000
  H   H2532     1.0  0.56242  0.54613  0.85255  1.0000
  H   H2533     1.0  0.50207  0.53642  0.82688  1.0000
  H   H2534     1.0  0.94840  0.63982  0.94408  1.0000
  C   C1434     1.0  0.77594  0.54839  0.66975  1.0000
  H   H2535     1.0  0.75916  0.54525  0.62679  1.0000
  H   H2536     1.0  0.60549  0.58830  0.88743  1.0000
  C   C1435     1.0  0.94872  0.66735  0.86731  1.0000
  C   C1436     1.0  0.95015  0.69017  0.87685  1.0000
  C   C1437     1.0  0.93133  0.69949  0.89073  1.0000
  C   C1438     1.0  0.91091  0.68602  0.89581  1.0000
  C   C1439     1.0  0.90973  0.66295  0.88683  1.0000
  C   C1440     1.0  0.92838  0.65382  0.87254  1.0000
  H   H2537     1.0  0.96594  0.70050  0.87384  1.0000
  H   H2538     1.0  0.93268  0.71725  0.89771  1.0000
  H   H2539     1.0  0.89422  0.65229  0.89044  1.0000
  H   H2540     1.0  0.92698  0.63611  0.86544  1.0000
  H   H2541     1.0  0.79836  0.50152  0.83833  1.0000
  C   C1441     1.0  0.91941  0.62934  0.98532  1.0000
  C   C1442     1.0  0.75582  0.53743  0.81225  1.0000
  H   H2542     1.0  0.53844  0.50588  0.79794  1.0000
  H   H2543     1.0  0.98654  0.64150  0.92311  1.0000
  C   C1443     1.0  0.91875  0.73188  0.82748  1.0000
  C   C1444     1.0  0.88367  0.70615  0.83899  1.0000
  N   N79       1.0  0.93542  0.67277  0.98279  1.0000
  C   C1445     1.0  0.76937  0.56130  0.81167  1.0000
  C   C1446     1.0  0.75297  0.58173  0.80432  1.0000
  H   H2544     1.0  0.80113  0.53198  0.83153  1.0000
  H   H2545     1.0  0.84514  0.58012  0.51511  1.0000
  H   H2546     1.0  0.89799  0.61540  0.95656  1.0000
  C   C1447     1.0  0.89932  0.61388  0.97614  1.0000
  H   H2547     1.0  0.86590  0.52996  0.58860  1.0000
  H   H2548     1.0  0.74609  0.53637  0.79532  1.0000
  H   H2549     1.0  0.74167  0.53881  0.82603  1.0000
  H   H2550     1.0  0.49689  0.54253  0.85712  1.0000
  C   C1448     1.0  0.51027  0.73507  0.72228  1.0000
  H   H2551     1.0  0.88747  0.74007  0.96516  1.0000
  S   S335      1.0  0.77290  0.72557  0.52474  1.0000
  C   C1449     1.0  0.77644  0.52349  0.86031  1.0000
  C   C1450     1.0  0.75432  0.49490  0.82115  1.0000
  H   H2552     1.0  0.88907  0.52727  0.56733  1.0000
  H   H2553     1.0  0.82445  0.55315  0.67997  1.0000
  H   H2554     1.0  0.77278  0.51225  0.77740  1.0000
  C   C1451     1.0  0.91480  0.65600  0.97979  1.0000
  H   H2555     1.0  0.77653  0.56544  0.82944  1.0000
  H   H2556     1.0  0.78435  0.56083  0.79889  1.0000
  H   H2557     1.0  0.76253  0.59883  0.80568  1.0000
  H   H2558     1.0  0.74712  0.57947  0.78571  1.0000
  H   H2559     1.0  0.73704  0.58251  0.81595  1.0000
  H   H2560     1.0  0.76305  0.53785  0.85926  1.0000
  C   C1452     1.0  0.80836  0.51016  0.55410  1.0000
  H   H2561     1.0  0.88795  0.50834  0.62020  1.0000
  H   H2562     1.0  0.87946  0.71851  0.85372  1.0000
  H   H2563     1.0  0.89504  0.69152  0.84586  1.0000
  C   C1453     1.0  0.73522  0.50558  0.61956  1.0000
  H   H2564     1.0  0.88215  0.61924  0.98425  1.0000
  N   N80       1.0  0.64541  0.64328  0.85310  1.0000
  C   C1454     1.0  0.62771  0.62673  0.86476  1.0000
  C   C1455     1.0  0.63801  0.64671  0.82758  1.0000
  C   C1456     1.0  0.64513  0.66723  0.86490  1.0000
  C   C1457     1.0  0.65498  0.66830  0.89041  1.0000
  C   C1458     1.0  0.61248  0.65644  0.82362  1.0000
  C   C1459     1.0  0.65630  0.69393  0.89900  1.0000
  C   C1460     1.0  0.60657  0.65752  0.79724  1.0000
  H   H2565     1.0  0.61175  0.63679  0.87084  1.0000
  H   H2566     1.0  0.62106  0.61375  0.85158  1.0000
  H   H2567     1.0  0.63966  0.62957  0.81785  1.0000
  H   H2568     1.0  0.64990  0.65942  0.81831  1.0000
  H   H2569     1.0  0.65480  0.68044  0.85383  1.0000
  H   H2570     1.0  0.62668  0.67419  0.86611  1.0000
  H   H2571     1.0  0.64296  0.65878  0.90277  1.0000
  H   H2572     1.0  0.61061  0.67471  0.83060  1.0000
  H   H2573     1.0  0.59902  0.64516  0.83243  1.0000
  H   H2574     1.0  0.82223  0.49904  0.76322  1.0000
  H   H2575     1.0  0.60435  0.61365  0.90703  1.0000
  H   H2576     1.0  0.63848  0.70242  0.89873  1.0000
  H   H2577     1.0  0.66298  0.69418  0.91748  1.0000
  H   H2578     1.0  0.66867  0.70436  0.88769  1.0000
  H   H2579     1.0  0.58805  0.66391  0.79493  1.0000
  H   H2580     1.0  0.61867  0.66986  0.78776  1.0000
  H   H2581     1.0  0.60810  0.63963  0.78919  1.0000
  H   H2582     1.0  0.50825  0.58963  0.81051  1.0000
  H   H2583     1.0  0.92798  0.71941  0.83967  1.0000
  C   C1461     1.0  0.88592  0.73325  0.57921  1.0000
  H   H2584     1.0  0.87668  0.54999  0.52279  1.0000
  N   N81       1.0  0.85432  0.51703  0.55457  1.0000
  C   C1462     1.0  0.84742  0.54211  0.54777  1.0000
  C   C1463     1.0  0.88095  0.49459  0.58488  1.0000
  S   S336      1.0  0.77279  0.72528  0.95589  1.0000
  Fe  Fe168     1.0  0.83345  0.65972  0.49990  1.0000
  H   H2585     1.0  0.89624  0.69716  0.96358  1.0000
  H   H2586     1.0  0.86687  0.69832  0.83261  1.0000
  H   H2587     1.0  0.52115  0.72233  0.71286  1.0000
  H   H2588     1.0  0.93837  0.70289  0.50697  1.0000
  H   H2589     1.0  0.64753  0.62084  0.89840  1.0000
  H   H2590     1.0  0.83327  0.54240  0.53424  1.0000
  H   H2591     1.0  0.78647  0.53452  0.89561  1.0000
  C   C1464     1.0  0.52771  0.55974  0.84294  1.0000
  H   H2592     1.0  0.84851  0.59142  0.54479  1.0000
  C   C1465     1.0  0.89623  0.71907  0.81864  1.0000
  H   H2593     1.0  0.80279  0.52809  0.56003  1.0000
  C   C1466     1.0  0.75457  0.73845  0.50242  1.0000
  H   H2594     1.0  0.75226  0.50805  0.65333  1.0000
  C   C1467     1.0  0.57625  0.50392  0.80074  1.0000
  H   H2595     1.0  0.76518  0.58458  0.62057  1.0000
  N   N82       1.0  0.77067  0.51531  0.81563  1.0000
  H   H2596     1.0  0.73964  0.56248  0.69846  1.0000
  H   H2597     1.0  0.69032  0.66484  0.84605  1.0000
  H   H2598     1.0  0.62312  0.58855  0.91387  1.0000
  C   C1468     1.0  0.74461  0.54434  0.64018  1.0000
  H   H2599     1.0  0.69755  0.55909  0.71480  1.0000
  Fe  Fe169     1.0  0.83809  0.66458  0.97943  1.0000
  C   C1469     1.0  0.94937  0.67511  0.95996  1.0000
  H   H2600     1.0  0.64762  0.59634  0.87848  1.0000
  H   H2601     1.0  0.92110  0.70529  0.53324  1.0000
  H   H2602     1.0  0.88072  0.56190  0.55215  1.0000
  H   H2603     1.0  0.67629  0.62861  0.87117  1.0000
  H   H2604     1.0  0.49582  0.56434  0.79657  1.0000
  H   H2605     1.0  0.97276  0.64359  0.96447  1.0000
  H   H2606     1.0  0.73507  0.53358  0.68761  1.0000
  H   H2607     1.0  0.96299  0.68924  0.96178  1.0000
  H   H2608     1.0  0.66903  0.61430  0.84473  1.0000
  H   H2609     1.0  0.80385  0.54773  0.87228  1.0000
  C   C1470     1.0  0.70826  0.55950  0.67758  1.0000
  H   H2610     1.0  0.93021  0.71604  0.78004  1.0000
  H   H2611     1.0  0.93764  0.68087  0.94518  1.0000
  H   H2612     1.0  0.72522  0.50273  0.79644  1.0000
  H   H2613     1.0  0.90056  0.70571  0.80492  1.0000
  H   H2614     1.0  0.82061  0.56208  0.71029  1.0000
  H   H2615     1.0  0.72146  0.51569  0.65349  1.0000
  C   C1471     1.0  0.97845  0.65812  0.92999  1.0000
  H   H2616     1.0  0.81005  0.56538  0.49347  1.0000
  C   C1472     1.0  0.81249  0.55200  0.69562  1.0000
  H   H2617     1.0  0.69316  0.53131  0.69959  1.0000
  H   H2618     1.0  0.79786  0.52530  0.79029  1.0000
  H   H2619     1.0  0.53518  0.56587  0.82574  1.0000
  C   C1473     1.0  0.73831  0.51774  0.64346  1.0000
  C   C1474     1.0  0.69222  0.55094  0.69778  1.0000
  H   H2620     1.0  0.75478  0.59382  0.67366  1.0000
  C   C1475     1.0  0.77016  0.59171  0.63810  1.0000
  H   H2621     1.0  0.67311  0.66072  0.89165  1.0000
  H   H2622     1.0  0.77491  0.52966  0.67596  1.0000
  H   H2623     1.0  0.93610  0.62272  0.97737  1.0000
  H   H2624     1.0  0.80871  0.51695  0.88059  1.0000
  H   H2625     1.0  0.97137  0.68549  0.77250  1.0000
  C   C1476     1.0  0.85774  0.58227  0.52997  1.0000
  H   H2626     1.0  0.96598  0.66329  0.79505  1.0000
  C   C1477     1.0  0.66984  0.63214  0.85296  1.0000
  H   H2627     1.0  0.74284  0.49927  0.83666  1.0000
  H   H2628     1.0  0.78835  0.54778  0.65435  1.0000
  H   H2629     1.0  0.57782  0.52083  0.79063  1.0000
  H   H2630     1.0  0.90769  0.65747  0.96143  1.0000
  C   C1478     1.0  0.77059  0.61872  0.63578  1.0000
  H   H2631     1.0  0.91317  0.71902  0.60196  1.0000
  C   C1479     1.0  0.54380  0.53982  0.85203  1.0000
  C   C1480     1.0  0.73448  0.55260  0.68234  1.0000
  H   H2632     1.0  0.67355  0.55609  0.69414  1.0000
  H   H2633     1.0  0.80834  0.51023  0.53453  1.0000
  H   H2634     1.0  0.77745  0.56215  0.70629  1.0000
  H   H2635     1.0  0.52862  0.57439  0.85589  1.0000
  H   H2636     1.0  0.70164  0.55168  0.66094  1.0000
  C   C1481     1.0  0.75198  0.58354  0.65714  1.0000
  H   H2637     1.0  0.77625  0.62690  0.65266  1.0000
  H   H2638     1.0  0.75283  0.62568  0.63080  1.0000
  H   H2639     1.0  0.72059  0.51405  0.60943  1.0000
  H   H2640     1.0  0.54300  0.52424  0.84018  1.0000
  H   H2641     1.0  0.88020  0.73108  0.52439  1.0000
  C   C1482     1.0  0.90452  0.73504  0.59573  1.0000
  C   C1483     1.0  0.91298  0.66335  0.50931  1.0000
  H   H2642     1.0  0.91666  0.66037  0.52843  1.0000
  H   H2643     1.0  0.72924  0.55325  0.63153  1.0000
  H   H2644     1.0  0.79105  0.58126  0.68452  1.0000
  H   H2645     1.0  0.98045  0.73539  0.72331  1.0000
  H   H2646     1.0  0.68646  0.64622  0.82043  1.0000
  C   C1484     1.0  0.78782  0.51806  0.83580  1.0000
  H   H2647     1.0  0.97087  0.72659  0.84282  1.0000
  N   N83       1.0  0.93545  0.74100  0.80854  1.0000
  H   H2648     1.0  0.88347  0.73211  0.81111  1.0000
  C   C1485     1.0  0.78818  0.56251  0.68978  1.0000
  C   C1486     1.0  0.71393  0.63507  0.84385  1.0000
  H   H2649     1.0  0.97113  0.70231  0.81334  1.0000
  C   C1487     1.0  0.91025  0.70931  0.96974  1.0000
  C   C1488     1.0  0.92035  0.70767  0.51359  1.0000
  C   C1489     1.0  0.95854  0.67932  0.78619  1.0000
  H   H2650     1.0  0.71399  0.61615  0.83842  1.0000
  C   C1490     1.0  0.63661  0.61102  0.88563  1.0000
  H   H2651     1.0  0.73437  0.58951  0.65053  1.0000
  H   H2652     1.0  0.59111  0.49217  0.79528  1.0000
  N   N84       1.0  0.75173  0.55727  0.66235  1.0000
  C   C1491     1.0  0.95404  0.69866  0.80458  1.0000
  H   H2653     1.0  0.69452  0.49725  0.74940  1.0000
  H   H2654     1.0  0.83118  0.50712  0.58396  1.0000
  C   C1492     1.0  0.86754  0.55823  0.53814  1.0000
  C   C1493     1.0  0.92579  0.69710  0.98888  1.0000
  H   H2655     1.0  0.78342  0.62389  0.62166  1.0000
  C   C1494     1.0  0.90284  0.68824  0.50531  1.0000
  H   H2656     1.0  0.81093  0.53317  0.70122  1.0000
  H   H2657     1.0  0.72750  0.64462  0.83320  1.0000
  C   C1495     1.0  0.68954  0.64625  0.83983  1.0000
  H   H2658     1.0  0.78844  0.58576  0.64228  1.0000
  H   H2659     1.0  0.94146  0.69114  0.81771  1.0000
  H   H2660     1.0  0.63494  0.72997  0.49463  1.0000
  H   H2661     1.0  0.95894  0.72805  0.78095  1.0000
  H   H2662     1.0  0.92954  0.66081  0.49888  1.0000
  H   H2663     1.0  0.92120  0.71490  0.95430  1.0000
  H   H2664     1.0  0.49706  0.70906  0.74749  1.0000
  H   H2665     1.0  0.50022  0.61502  0.77523  1.0000
  H   H2666     1.0  0.96849  0.66670  0.91538  1.0000
  C   C1496     1.0  0.96186  0.65241  0.95072  1.0000
  C   C1497     1.0  0.94437  0.72145  0.79255  1.0000
  H   H2667     1.0  0.91331  0.50863  0.60040  1.0000
  C   C1498     1.0  0.86532  0.50366  0.53418  1.0000
  C   C1499     1.0  0.88787  0.73692  0.50714  1.0000
  N   N85       1.0  0.91442  0.73323  0.50734  1.0000
  H   H2668     1.0  0.89986  0.64998  0.50353  1.0000
  H   H2669     1.0  0.53846  0.53438  0.87024  1.0000
  H   H2670     1.0  0.87930  0.72556  0.49377  1.0000
  C   C1500     1.0  0.71201  0.50115  0.74250  1.0000
  C   C1501     1.0  0.85046  0.50188  0.51134  1.0000
  H   H2671     1.0  0.87249  0.59374  0.52375  1.0000
  H   H2672     1.0  0.71404  0.72369  0.56770  1.0000
  C   C1502     1.0  0.49666  0.72747  0.74197  1.0000
  C   C1503     1.0  0.55247  0.49221  0.79543  1.0000
  C   C1504     1.0  0.50183  0.55106  0.84007  1.0000
  H   H2673     1.0  0.75187  0.50650  0.60898  1.0000
  H   H2674     1.0  0.49974  0.60027  0.84893  1.0000
  H   H2675     1.0  0.84447  0.51952  0.50491  1.0000
  C   C1505     1.0  0.89735  0.49851  0.60594  1.0000
  H   H2676     1.0  0.95662  0.72760  0.53476  1.0000
  H   H2677     1.0  0.50067  0.61135  0.89074  1.0000
  H   H2678     1.0  0.77177  0.49850  0.55615  1.0000
  Fe  Fe170     1.0  0.83147  0.49696  0.64775  1.0000
  H   H2679     1.0  0.90279  0.59503  0.98083  1.0000
  C   C1506     1.0  0.72017  0.74204  0.57112  1.0000
  H   H2680     1.0  0.89962  0.66125  0.99138  1.0000
  C   C1507     1.0  0.78947  0.49269  0.56253  1.0000
  H   H2681     1.0  0.64599  0.73543  0.99053  1.0000
  H   H2682     1.0  0.78119  0.57915  0.49244  1.0000
  Fe  Fe171     1.0  0.68184  0.80699  0.44776  1.0000
  S   S337      1.0  0.69273  0.84204  0.46302  1.0000
  S   S338      1.0  0.70261  0.77193  0.44837  1.0000
  Fe  Fe172     1.0  0.63550  0.82808  0.42656  1.0000
  S   S339      1.0  0.64358  0.86430  0.44081  1.0000
  S   S340      1.0  0.60224  0.81537  0.40702  1.0000
  Fe  Fe173     1.0  0.68136  0.85810  0.42802  1.0000
  S   S341      1.0  0.69816  0.88795  0.40507  1.0000
  H   H2683     1.0  0.66961  0.96111  0.21957  1.0000
  S   S342      1.0  0.67247  0.82272  0.41209  1.0000
  S   S343      1.0  0.64414  0.80938  0.46100  1.0000
  Fe  Fe174     1.0  0.81752  0.94960  0.33757  1.0000
  S   S344      1.0  0.82640  0.93410  0.30171  1.0000
  S   S345      1.0  0.79889  0.92612  0.36613  1.0000
  H   H2684     1.0  0.56833  0.77767  0.31516  1.0000
  Fe  Fe175     1.0  0.81794  0.97060  0.28721  1.0000
  C   C1508     1.0  0.51834  0.84139  0.24311  1.0000
  Fe  Fe176     1.0  0.86378  0.94705  0.30730  1.0000
  S   S346      1.0  0.89768  0.92828  0.29375  1.0000
  H   H2685     1.0  0.55222  0.81743  0.32146  1.0000
  S   S347      1.0  0.85574  0.96067  0.34384  1.0000
  H   H2686     1.0  0.72934  0.92284  0.43172  1.0000
  H   H2687     1.0  0.51431  0.75416  0.36457  1.0000
  Fe  Fe177     1.0  0.67916  0.87218  0.05162  1.0000
  S   S348      1.0  0.64253  0.86143  0.04039  1.0000
  S   S349      1.0  0.69070  0.90781  0.06788  1.0000
  Fe  Fe178     1.0  0.70129  0.82595  0.02995  1.0000
  S   S350      1.0  0.66603  0.81294  0.01737  1.0000
  S   S351      1.0  0.73643  0.80534  0.02759  1.0000
  C   C1509     1.0  0.74200  0.97094  0.42415  1.0000
  Fe  Fe179     1.0  0.65193  0.82419  0.05319  1.0000
  S   S352      1.0  0.63201  0.80224  0.08183  1.0000
  S   S353      1.0  0.69612  0.86328  0.01629  1.0000
  S   S354      1.0  0.68779  0.83588  0.06619  1.0000
  C   C1510     1.0  0.98563  0.86252  0.23372  1.0000
  Fe  Fe180     1.0  0.65423  0.84518  0.47450  1.0000
  S   S355      1.0  0.52170  0.86095  0.34088  1.0000
  H   H2688     1.0  0.74440  0.96008  0.40793  1.0000
  C   C1511     1.0  0.50793  0.76630  0.26091  1.0000
  S   S356      1.0  0.97802  0.86110  0.33916  1.0000
  H   H2689     1.0  0.51238  0.78246  0.27000  1.0000
  C   C1512     1.0  0.54829  0.80819  0.30464  1.0000
  C   C1513     1.0  0.61003  0.76893  0.11070  1.0000
  C   C1514     1.0  0.61656  0.77495  0.08726  1.0000
  H   H2690     1.0  0.60230  0.98468  0.25717  1.0000
  H   H2691     1.0  0.68253  0.75732  0.09998  1.0000
  H   H2692     1.0  0.61445  0.78086  0.12491  1.0000
  C   C1515     1.0  0.74598  0.78256  0.00798  1.0000
  H   H2693     1.0  0.55150  0.75575  0.37724  1.0000
  C   C1516     1.0  0.65032  0.91964  0.47862  1.0000
  C   C1517     1.0  0.65814  0.96298  0.11956  1.0000
  C   C1518     1.0  0.67780  0.96851  0.10537  1.0000
  C   C1519     1.0  0.68720  0.95156  0.08945  1.0000
  C   C1520     1.0  0.67680  0.92903  0.08698  1.0000
  C   C1521     1.0  0.65670  0.92378  0.10067  1.0000
  C   C1522     1.0  0.64760  0.94055  0.11696  1.0000
  Fe  Fe181     1.0  0.66004  0.85119  0.00561  1.0000
  H   H2694     1.0  0.70270  0.95591  0.07897  1.0000
  H   H2695     1.0  0.64846  0.90658  0.09906  1.0000
  H   H2696     1.0  0.63230  0.93604  0.12767  1.0000
  C   C1523     1.0  0.92020  0.91040  0.30722  1.0000
  C   C1524     1.0  0.91925  0.90327  0.33101  1.0000
  C   C1525     1.0  0.93720  0.88845  0.34052  1.0000
  C   C1526     1.0  0.95643  0.88066  0.32649  1.0000
  C   C1527     1.0  0.95754  0.88811  0.30280  1.0000
  C   C1528     1.0  0.93954  0.90277  0.29326  1.0000
  H   H2697     1.0  0.90448  0.90887  0.34200  1.0000
  H   H2698     1.0  0.93602  0.88278  0.35883  1.0000
  H   H2699     1.0  0.97202  0.88219  0.29167  1.0000
  H   H2700     1.0  0.94051  0.90811  0.27484  1.0000
  C   C1529     1.0  0.64161  0.74569  0.48475  1.0000
  H   H2701     1.0  0.99083  0.75459  0.12756  1.0000
  H   H2702     1.0  0.61507  0.76367  0.05105  1.0000
  C   C1530     1.0  0.57893  0.82962  0.39091  1.0000
  C   C1531     1.0  0.58081  0.85278  0.38205  1.0000
  C   C1532     1.0  0.56308  0.86221  0.36701  1.0000
  C   C1533     1.0  0.54285  0.84892  0.36122  1.0000
  C   C1534     1.0  0.54046  0.82620  0.37104  1.0000
  C   C1535     1.0  0.55848  0.81657  0.38554  1.0000
  H   H2703     1.0  0.59609  0.86323  0.38651  1.0000
  H   H2704     1.0  0.56501  0.87992  0.35982  1.0000
  H   H2705     1.0  0.52479  0.81599  0.36732  1.0000
  H   H2706     1.0  0.55652  0.79889  0.39279  1.0000
  C   C1536     1.0  0.72633  0.89687  0.39306  1.0000
  C   C1537     1.0  0.72711  0.91563  0.37641  1.0000
  C   C1538     1.0  0.74894  0.92437  0.36746  1.0000
  C   C1539     1.0  0.77051  0.91482  0.37540  1.0000
  C   C1540     1.0  0.76967  0.89605  0.39206  1.0000
  C   C1541     1.0  0.74785  0.88698  0.40062  1.0000
  H   H2707     1.0  0.71071  0.92366  0.37049  1.0000
  H   H2708     1.0  0.74911  0.93886  0.35482  1.0000
  H   H2709     1.0  0.78613  0.88843  0.39839  1.0000
  H   H2710     1.0  0.74776  0.87260  0.41336  1.0000
  H   H2711     1.0  0.91048  0.80286  0.25170  1.0000
  H   H2712     1.0  0.98742  0.88715  0.38949  1.0000
  C   C1542     1.0  0.72299  0.75975  0.46928  1.0000
  H   H2713     1.0  0.69250  0.79787  0.11316  1.0000
  C   C1543     1.0  0.77792  0.75633  0.99388  1.0000
  H   H2714     1.0  0.63580  0.74377  0.01959  1.0000
  H   H2715     1.0  0.56641  0.77464  0.35625  1.0000
  H   H2716     1.0  0.97753  0.77438  0.31149  1.0000
  C   C1544     1.0  0.73070  0.77231  0.99161  1.0000
  C   C1545     1.0  0.68209  0.75005  0.03872  1.0000
  H   H2717     1.0  0.74885  0.85602  0.45387  1.0000
  H   H2718     1.0  0.54172  0.76348  0.24290  1.0000
  S   S357      1.0  0.85599  0.98235  0.28974  1.0000
  H   H2719     1.0  0.55927  0.97759  0.29024  1.0000
  C   C1546     1.0  0.58831  0.74781  0.37189  1.0000
  C   C1547     1.0  0.96348  0.83247  0.25916  1.0000
  N   N86       1.0  0.94048  0.82099  0.26674  1.0000
  C   C1548     1.0  0.94616  0.80032  0.28288  1.0000
  C   C1549     1.0  0.92692  0.81196  0.24573  1.0000
  C   C1550     1.0  0.94031  0.79371  0.23005  1.0000
  C   C1551     1.0  0.92555  0.83934  0.27932  1.0000
  C   C1552     1.0  0.90166  0.83064  0.28984  1.0000
  C   C1553     1.0  0.95649  0.80674  0.30742  1.0000
  H   H2720     1.0  0.70752  0.98629  0.18920  1.0000
  H   H2721     1.0  0.68593  0.98574  0.10684  1.0000
  H   H2722     1.0  0.52996  0.78326  0.34078  1.0000
  C   C1554     1.0  0.88994  0.85004  0.30476  1.0000
  C   C1555     1.0  0.98447  0.74878  0.24461  1.0000
  H   H2723     1.0  0.92418  0.80444  0.19658  1.0000
  H   H2724     1.0  0.53655  0.84573  0.23695  1.0000
  H   H2725     1.0  0.51351  0.77577  0.31549  1.0000
  H   H2726     1.0  0.75942  0.97292  0.43299  1.0000
  H   H2727     1.0  0.93579  0.84749  0.29385  1.0000
  H   H2728     1.0  0.92107  0.85430  0.26720  1.0000
  H   H2729     1.0  0.90405  0.81486  0.30140  1.0000
  H   H2730     1.0  0.88918  0.82611  0.27545  1.0000
  C   C1556     1.0  0.53051  0.77196  0.32471  1.0000
  H   H2731     1.0  0.94330  0.81651  0.31835  1.0000
  C   C1557     1.0  0.52448  0.75552  0.24549  1.0000
  H   H2732     1.0  0.99093  0.87337  0.24913  1.0000
  H   H2733     1.0  0.97051  0.98734  0.39514  1.0000
  H   H2734     1.0  0.94262  0.77677  0.23991  1.0000
  H   H2735     1.0  0.97692  0.81885  0.25405  1.0000
  C   C1558     1.0  0.76953  0.77428  0.00920  1.0000
  H   H2736     1.0  0.90115  0.85430  0.32027  1.0000
  H   H2737     1.0  0.88715  0.86645  0.29407  1.0000
  H   H2738     1.0  0.87244  0.84388  0.31139  1.0000
  H   H2739     1.0  0.60881  0.90412  0.36648  1.0000
  H   H2740     1.0  0.71857  0.88786  0.45307  1.0000
  H   H2741     1.0  0.78147  0.78192  0.02196  1.0000
  H   H2742     1.0  0.77391  0.85835  0.47330  1.0000
  H   H2743     1.0  0.98710  0.75954  0.18542  1.0000
  C   C1559     1.0  0.50632  0.82552  0.22499  1.0000
  H   H2744     1.0  0.72186  0.97066  0.45680  1.0000
  H   H2745     1.0  0.79618  0.75041  0.99481  1.0000
  C   C1560     1.0  0.61057  0.75924  0.06915  1.0000
  H   H2746     1.0  0.72048  0.76804  0.06175  1.0000
  C   C1561     1.0  0.58329  0.98731  0.26135  1.0000
  N   N87       1.0  0.72695  0.93989  0.17664  1.0000
  C   C1562     1.0  0.70265  0.94777  0.18498  1.0000
  C   C1563     1.0  0.72528  0.91733  0.16220  1.0000
  C   C1564     1.0  0.74158  0.93441  0.19841  1.0000
  C   C1565     1.0  0.73945  0.95908  0.16278  1.0000
  C   C1566     1.0  0.72637  0.96888  0.14081  1.0000
  C   C1567     1.0  0.70156  0.97082  0.19990  1.0000
  C   C1568     1.0  0.76687  0.92427  0.19382  1.0000
  C   C1569     1.0  0.70236  0.91339  0.14762  1.0000
  C   C1570     1.0  0.70499  0.89200  0.13127  1.0000
  C   C1571     1.0  0.73190  0.93378  0.44775  1.0000
  C   C1572     1.0  0.67625  0.97587  0.20828  1.0000
  C   C1573     1.0  0.77845  0.91636  0.21700  1.0000
  H   H2747     1.0  0.69431  0.93328  0.19559  1.0000
  H   H2748     1.0  0.69050  0.95092  0.16984  1.0000
  H   H2749     1.0  0.74067  0.91583  0.14981  1.0000
  H   H2750     1.0  0.72645  0.90138  0.17395  1.0000
  H   H2751     1.0  0.73191  0.92171  0.21016  1.0000
  H   H2752     1.0  0.74441  0.95060  0.20912  1.0000
  H   H2753     1.0  0.74366  0.97422  0.17449  1.0000
  H   H2754     1.0  0.75689  0.95253  0.15617  1.0000
  N   N88       1.0  0.71903  0.92274  0.46854  1.0000
  H   H2755     1.0  0.72480  0.95487  0.12725  1.0000
  C   C1574     1.0  0.69270  0.92494  0.46393  1.0000
  H   H2756     1.0  0.62666  0.75810  0.48116  1.0000
  H   H2757     1.0  0.77840  0.93809  0.18581  1.0000
  H   H2758     1.0  0.76668  0.90875  0.18185  1.0000
  H   H2759     1.0  0.68716  0.90987  0.15972  1.0000
  H   H2760     1.0  0.69776  0.92897  0.13656  1.0000
  H   H2761     1.0  0.70991  0.87581  0.14146  1.0000
  H   H2762     1.0  0.68792  0.88862  0.12223  1.0000
  H   H2763     1.0  0.71864  0.89547  0.11741  1.0000
  H   H2764     1.0  0.50617  0.83489  0.20763  1.0000
  C   C1575     1.0  0.70960  0.75498  0.07194  1.0000
  C   C1576     1.0  0.72407  0.95933  0.44093  1.0000
  C   C1577     1.0  0.96362  0.78445  0.32125  1.0000
  S   S358      1.0  0.80743  0.98578  0.32272  1.0000
  H   H2765     1.0  0.95639  0.84194  0.22185  1.0000
  H   H2766     1.0  0.76839  0.90157  0.22527  1.0000
  H   H2767     1.0  0.79686  0.91016  0.21348  1.0000
  H   H2768     1.0  0.77924  0.93135  0.22966  1.0000
  H   H2769     1.0  0.67685  0.89244  0.47864  1.0000
  N   N89       1.0  0.65877  0.85425  0.34260  1.0000
  C   C1578     1.0  0.65310  0.82819  0.34491  1.0000
  C   C1579     1.0  0.68368  0.85836  0.35132  1.0000
  C   C1580     1.0  0.64213  0.86758  0.35898  1.0000
  C   C1581     1.0  0.65568  0.86368  0.31766  1.0000
  C   C1582     1.0  0.66090  0.84627  0.29699  1.0000
  C   C1583     1.0  0.62674  0.82155  0.34105  1.0000
  C   C1584     1.0  0.64606  0.89474  0.36088  1.0000
  C   C1585     1.0  0.70405  0.84553  0.33801  1.0000
  C   C1586     1.0  0.72777  0.84946  0.35033  1.0000
  C   C1587     1.0  0.66162  0.85933  0.27319  1.0000
  C   C1588     1.0  0.62374  0.79487  0.33782  1.0000
  H   H2770     1.0  0.67936  0.77952  0.07681  1.0000
  H   H2771     1.0  0.65787  0.82160  0.36292  1.0000
  H   H2772     1.0  0.66407  0.81735  0.33270  1.0000
  H   H2773     1.0  0.68828  0.87748  0.35040  1.0000
  H   H2774     1.0  0.68489  0.85324  0.37038  1.0000
  H   H2775     1.0  0.64294  0.85996  0.37728  1.0000
  H   H2776     1.0  0.62349  0.86552  0.35307  1.0000
  H   H2777     1.0  0.63711  0.86996  0.31487  1.0000
  H   H2778     1.0  0.66684  0.87973  0.31497  1.0000
  H   H2779     1.0  0.64678  0.83271  0.29591  1.0000
  H   H2780     1.0  0.67791  0.83669  0.29912  1.0000
  H   H2781     1.0  0.61617  0.82656  0.35686  1.0000
  H   H2782     1.0  0.61907  0.83091  0.32552  1.0000
  H   H2783     1.0  0.64659  0.90325  0.34311  1.0000
  H   H2784     1.0  0.66285  0.89865  0.37012  1.0000
  H   H2785     1.0  0.70123  0.82612  0.33724  1.0000
  H   H2786     1.0  0.70588  0.85289  0.31984  1.0000
  H   H2787     1.0  0.72708  0.84304  0.36899  1.0000
  H   H2788     1.0  0.97091  0.78962  0.33871  1.0000
  H   H2789     1.0  0.73240  0.86859  0.35014  1.0000
  H   H2790     1.0  0.64451  0.86861  0.26986  1.0000
  H   H2791     1.0  0.67624  0.87244  0.27285  1.0000
  H   H2792     1.0  0.66472  0.84641  0.25870  1.0000
  H   H2793     1.0  0.60461  0.79079  0.33608  1.0000
  H   H2794     1.0  0.63315  0.78877  0.32161  1.0000
  H   H2795     1.0  0.63070  0.78513  0.35351  1.0000
  H   H2796     1.0  0.70853  0.97578  0.14552  1.0000
  S   S359      1.0  0.79957  0.97459  0.25112  1.0000
  C   C1589     1.0  0.65066  0.74543  0.00671  1.0000
  C   C1590     1.0  0.70547  0.78695  0.10303  1.0000
  H   H2797     1.0  0.74204  0.83959  0.34091  1.0000
  N   N90       1.0  0.53205  0.74605  0.33149  1.0000
  C   C1591     1.0  0.56433  0.75602  0.36228  1.0000
  H   H2798     1.0  0.93027  0.78905  0.28583  1.0000
  H   H2799     1.0  0.93629  0.77478  0.19701  1.0000
  H   H2800     1.0  0.57296  0.97733  0.24803  1.0000
  H   H2801     1.0  0.94877  0.86498  0.24249  1.0000
  H   H2802     1.0  0.95804  0.80012  0.22454  1.0000
  H   H2803     1.0  0.97161  0.84186  0.27434  1.0000
  H   H2804     1.0  0.64443  0.91656  0.46015  1.0000
  C   C1592     1.0  0.72495  0.89658  0.46950  1.0000
  C   C1593     1.0  0.67613  0.91186  0.48171  1.0000
  H   H2805     1.0  0.98257  0.94857  0.34291  1.0000
  H   H2806     1.0  0.98700  0.93329  0.30805  1.0000
  S   S360      1.0  0.64660  0.98299  0.14131  1.0000
  H   H2807     1.0  0.92070  0.82700  0.23444  1.0000
  H   H2808     1.0  0.59292  0.74346  0.13411  1.0000
  C   C1594     1.0  0.74020  0.98924  0.12938  1.0000
  H   H2809     1.0  0.51964  0.83212  0.26046  1.0000
  C   C1595     1.0  0.96176  0.85072  0.23849  1.0000
  C   C1596     1.0  0.62622  0.90651  0.37524  1.0000
  H   H2810     1.0  0.75789  0.98300  0.12323  1.0000
  H   H2811     1.0  0.66427  0.97825  0.19287  1.0000
  H   H2812     1.0  0.95787  0.97634  0.36817  1.0000
  H   H2813     1.0  0.62542  0.89882  0.39342  1.0000
  H   H2814     1.0  0.71553  0.88782  0.48452  1.0000
  H   H2815     1.0  0.58910  0.98472  0.29947  1.0000
  H   H2816     1.0  0.76270  0.89774  0.45863  1.0000
  H   H2817     1.0  0.59418  0.76020  0.38593  1.0000
  C   C1597     1.0  0.92643  0.78820  0.20760  1.0000
  H   H2818     1.0  0.90877  0.78081  0.21216  1.0000
  C   C1598     1.0  0.75136  0.88973  0.47260  1.0000
  H   H2819     1.0  0.68714  0.94392  0.46403  1.0000
  C   C1599     1.0  0.55043  0.78136  0.30807  1.0000
  H   H2820     1.0  0.95934  0.78838  0.27423  1.0000
  H   H2821     1.0  0.62968  0.92582  0.37673  1.0000
  H   H2822     1.0  0.70681  0.95881  0.43154  1.0000
  H   H2823     1.0  0.51742  0.80926  0.22318  1.0000
  C   C1600     1.0  0.98017  0.74560  0.22027  1.0000
  H   H2824     1.0  0.68842  0.91829  0.44588  1.0000
  C   C1601     1.0  0.75482  0.86284  0.47125  1.0000
  C   C1602     1.0  0.69216  0.76926  0.08767  1.0000
  H   H2825     1.0  0.56118  0.81426  0.29099  1.0000
  C   C1603     1.0  0.57838  0.97602  0.28557  1.0000
  H   H2826     1.0  0.75135  0.93376  0.45041  1.0000
  H   H2827     1.0  0.58321  0.95690  0.28515  1.0000
  H   H2828     1.0  0.71640  0.79901  0.09186  1.0000
  H   H2829     1.0  0.50826  0.85823  0.24538  1.0000
  H   H2830     1.0  0.65291  0.76438  0.00185  1.0000
  H   H2831     1.0  0.97246  0.81794  0.30545  1.0000
  H   H2832     1.0  0.94802  0.77288  0.32429  1.0000
  H   H2833     1.0  0.69072  0.76626  0.03132  1.0000
  H   H2834     1.0  0.66630  0.75691  0.04839  1.0000
  H   H2835     1.0  0.71717  0.77750  0.11578  1.0000
  H   H2836     1.0  0.71255  0.96958  0.21605  1.0000
  H   H2837     1.0  0.53015  0.81324  0.29885  1.0000
  H   H2838     1.0  0.88641  0.76997  0.48594  1.0000
  H   H2839     1.0  0.75128  0.96168  0.48335  1.0000
  H   H2840     1.0  0.74474  0.85379  0.48561  1.0000
  H   H2841     1.0  0.64811  0.93872  0.48294  1.0000
  H   H2842     1.0  0.98424  0.87441  0.21803  1.0000
  H   H2843     1.0  0.92285  0.75786  0.43761  1.0000
  H   H2844     1.0  0.76391  0.93319  0.48924  1.0000
  H   H2845     1.0  0.78035  0.98611  0.20548  1.0000
  C   C1604     1.0  0.73117  0.77269  0.48863  1.0000
  H   H2846     1.0  0.54933  0.77308  0.29036  1.0000
  H   H2847     1.0  0.84600  0.75250  0.48508  1.0000
  C   C1605     1.0  0.59774  0.74768  0.11600  1.0000
  H   H2848     1.0  0.49498  0.79498  0.19283  1.0000
  H   H2849     1.0  0.74621  0.85122  0.00441  1.0000
  H   H2850     1.0  0.66778  0.77255  0.48733  1.0000
  C   C1606     1.0  0.99114  0.76093  0.20405  1.0000
  H   H2851     1.0  0.49563  0.76504  0.16151  1.0000
  H   H2852     1.0  0.73552  0.98882  0.41880  1.0000
  H   H2853     1.0  0.98609  0.94770  0.38569  1.0000
  H   H2854     1.0  0.60191  0.74768  0.35760  1.0000
  H   H2855     1.0  0.92445  0.75991  0.48148  1.0000
  C   C1607     1.0  0.97451  0.98260  0.37646  1.0000
  H   H2856     1.0  0.72191  0.74601  0.08448  1.0000
  H   H2857     1.0  0.72585  0.79097  0.49061  1.0000
  H   H2858     1.0  0.49174  0.83862  0.45204  1.0000
  H   H2859     1.0  0.49198  0.74365  0.18525  1.0000
  H   H2860     1.0  0.63880  0.90916  0.49075  1.0000
  H   H2861     1.0  0.75759  0.89520  0.49032  1.0000
  H   H2862     1.0  0.77186  0.86567  0.99227  1.0000
  Fe  Fe182     1.0  0.96020  0.81432  0.68272  1.0000
  S   S361      1.0  0.96650  0.78094  0.70539  1.0000
  Fe  Fe183     1.0  0.93542  0.86245  0.67072  1.0000
  S   S362      1.0  0.94788  0.86091  0.63298  1.0000
  S   S363      1.0  0.91181  0.89270  0.68537  1.0000
  Fe  Fe184     1.0  0.93698  0.82211  0.63366  1.0000
  S   S364      1.0  0.91176  0.80738  0.60478  1.0000
  S   S365      1.0  0.92322  0.82423  0.67105  1.0000
  S   S366      1.0  0.97118  0.85257  0.68643  1.0000
  S   S367      1.0  0.64526  0.85862  0.51189  1.0000
  H   H2863     1.0  0.88351  0.77434  0.51753  1.0000
  H   H2864     1.0  0.61718  0.90980  0.67584  1.0000
  Fe  Fe185     1.0  0.64008  0.95431  0.80966  1.0000
  S   S368      1.0  0.67466  0.93505  0.81520  1.0000
  S   S369      1.0  0.60940  0.94151  0.78545  1.0000
  Fe  Fe186     1.0  0.67274  0.94664  0.85343  1.0000
  S   S370      1.0  0.68826  0.92490  0.88459  1.0000
  Fe  Fe187     1.0  0.69199  0.97030  0.80739  1.0000
  S   S371      1.0  0.72373  0.96737  0.78187  1.0000
  S   S372      1.0  0.63688  0.96393  0.84874  1.0000
  C   C1608     1.0  0.96500  0.74523  0.84397  1.0000
  Fe  Fe188     1.0  0.53209  0.80283  0.67004  1.0000
  S   S373      1.0  0.51849  0.83784  0.68310  1.0000
  S   S374      1.0  0.52653  0.76709  0.68893  1.0000
  Fe  Fe189     1.0  0.55676  0.82616  0.62569  1.0000
  S   S375      1.0  0.54482  0.86266  0.63705  1.0000
  S   S376      1.0  0.57422  0.81500  0.59023  1.0000
  Fe  Fe190     1.0  0.55516  0.85197  0.67471  1.0000
  S   S377      1.0  0.58094  0.86809  0.70256  1.0000
  Fe  Fe191     1.0  0.50940  0.84501  0.64456  1.0000
  S   S378      1.0  0.56893  0.81619  0.66245  1.0000
  S   S379      1.0  0.52105  0.80921  0.63224  1.0000
  H   H2865     1.0  0.95208  0.78017  0.78067  1.0000
  S   S380      1.0  0.64480  0.86149  0.96919  1.0000
  H   H2866     1.0  0.49507  0.79342  0.72125  1.0000
  H   H2867     1.0  0.61590  0.94084  0.66828  1.0000
  C   C1609     1.0  0.65636  0.78723  0.56088  1.0000
  H   H2868     1.0  0.66883  0.79370  0.57444  1.0000
  C   C1610     1.0  0.50970  0.75884  0.71448  1.0000
  C   C1611     1.0  0.67514  0.90866  0.90862  1.0000
  C   C1612     1.0  0.68908  0.90302  0.92857  1.0000
  C   C1613     1.0  0.67995  0.88920  0.94749  1.0000
  C   C1614     1.0  0.65683  0.88034  0.94655  1.0000
  C   C1615     1.0  0.64294  0.88592  0.92658  1.0000
  C   C1616     1.0  0.65191  0.90013  0.90785  1.0000
  H   H2869     1.0  0.70705  0.90952  0.92947  1.0000
  H   H2870     1.0  0.69079  0.88539  0.96280  1.0000
  H   H2871     1.0  0.62504  0.87923  0.92560  1.0000
  H   H2872     1.0  0.64094  0.90412  0.89267  1.0000
  C   C1617     1.0  0.85185  0.76325  0.50039  1.0000
  H   H2873     1.0  0.49572  0.84333  0.57778  1.0000
  S   S381      1.0  0.65753  0.98936  0.80067  1.0000
  H   H2874     1.0  0.75843  0.96221  0.74488  1.0000
  H   H2875     1.0  0.74341  0.98628  0.87419  1.0000
  C   C1618     1.0  0.60157  0.92025  0.76305  1.0000
  C   C1619     1.0  0.58016  0.92327  0.75052  1.0000
  C   C1620     1.0  0.57347  0.90753  0.73224  1.0000
  C   C1621     1.0  0.58813  0.88839  0.72598  1.0000
  C   C1622     1.0  0.60937  0.88513  0.73875  1.0000
  C   C1623     1.0  0.61591  0.90072  0.75722  1.0000
  H   H2876     1.0  0.56866  0.93806  0.75488  1.0000
  H   H2877     1.0  0.55707  0.91045  0.72280  1.0000
  H   H2878     1.0  0.62084  0.87033  0.73438  1.0000
  H   H2879     1.0  0.63206  0.89757  0.76700  1.0000
  C   C1624     1.0  0.62463  0.84678  0.53305  1.0000
  C   C1625     1.0  0.62208  0.85780  0.55527  1.0000
  C   C1626     1.0  0.60642  0.84874  0.57277  1.0000
  C   C1627     1.0  0.59323  0.82827  0.56840  1.0000
  C   C1628     1.0  0.59585  0.81722  0.54618  1.0000
  C   C1629     1.0  0.61121  0.82650  0.52856  1.0000
  H   H2880     1.0  0.63227  0.87351  0.55902  1.0000
  H   H2881     1.0  0.60476  0.85744  0.58973  1.0000
  H   H2882     1.0  0.58579  0.80140  0.54253  1.0000
  H   H2883     1.0  0.61269  0.81791  0.51153  1.0000
  C   C1630     1.0  0.98373  0.77275  0.73048  1.0000
  C   C1631     1.0  0.89900  0.91886  0.67238  1.0000
  C   C1632     1.0  0.90298  0.92543  0.64873  1.0000
  C   C1633     1.0  0.89153  0.94563  0.63902  1.0000
  C   C1634     1.0  0.87635  0.95995  0.65285  1.0000
  C   C1635     1.0  0.87282  0.95374  0.67666  1.0000
  C   C1636     1.0  0.88393  0.93328  0.68626  1.0000
  H   H2884     1.0  0.91476  0.91485  0.63787  1.0000
  H   H2885     1.0  0.89439  0.95015  0.62057  1.0000
  H   H2886     1.0  0.86120  0.96446  0.68758  1.0000
  H   H2887     1.0  0.88075  0.92852  0.70459  1.0000
  C   C1637     1.0  0.90190  0.77843  0.59586  1.0000
  C   C1638     1.0  0.88343  0.77664  0.57920  1.0000
  H   H2888     1.0  0.96184  0.75298  0.51592  1.0000
  H   H2889     1.0  0.64678  0.75158  0.57436  1.0000
  H   H2890     1.0  0.87548  0.79269  0.57222  1.0000
  H   H2891     1.0  0.68976  0.79266  0.51026  1.0000
  C   C1639     1.0  0.91221  0.75733  0.60424  1.0000
  H   H2892     1.0  0.74259  0.96951  0.83077  1.0000
  N   N91       1.0  0.66406  0.96478  0.71841  1.0000
  H   H2893     1.0  0.92140  0.76793  0.52235  1.0000
  C   C1640     1.0  0.98584  0.75997  0.85265  1.0000
  C   C1641     1.0  0.95141  0.74629  0.53127  1.0000
  C   C1642     1.0  0.69047  0.91180  0.75577  1.0000
  H   H2894     1.0  0.97141  0.75480  0.80737  1.0000
  C   C1643     1.0  0.98749  0.74847  0.73528  1.0000
  H   H2895     1.0  0.72822  0.74252  0.58902  1.0000
  H   H2896     1.0  0.73269  0.98646  0.91679  1.0000
  C   C1644     1.0  0.65121  0.76796  0.52256  1.0000
  H   H2897     1.0  0.93875  0.95797  0.61690  1.0000
  H   H2898     1.0  0.76478  0.82719  0.97281  1.0000
  C   C1645     1.0  0.75350  0.85999  0.98831  1.0000
  H   H2899     1.0  0.69280  0.93906  0.71722  1.0000
  H   H2900     1.0  0.69477  0.81718  0.55841  1.0000
  H   H2901     1.0  0.70648  0.77745  0.57370  1.0000
  H   H2902     1.0  0.95095  0.74664  0.85777  1.0000
  C   C1646     1.0  0.63904  0.76969  0.57315  1.0000
  C   C1647     1.0  0.72451  0.93460  0.49184  1.0000
  C   C1648     1.0  0.92140  0.78948  0.76038  1.0000
  H   H2903     1.0  0.68124  0.91529  0.50033  1.0000
  C   C1649     1.0  0.76152  0.96399  0.83201  1.0000
  H   H2904     1.0  0.78400  0.79075  0.90274  1.0000
  H   H2905     1.0  0.52260  0.87869  0.72505  1.0000
  H   H2906     1.0  0.70118  0.75774  0.53133  1.0000
  H   H2907     1.0  0.96604  0.97431  0.61546  1.0000
  H   H2908     1.0  0.80834  0.91631  0.84126  1.0000
  H   H2909     1.0  0.61872  0.76597  0.60574  1.0000
  C   C1650     1.0  0.92180  0.75851  0.79339  1.0000
  C   C1651     1.0  0.73913  0.75451  0.97613  1.0000
  C   C1652     1.0  0.73746  0.98868  0.76296  1.0000
  H   H2910     1.0  0.52999  0.76919  0.77125  1.0000
  H   H2911     1.0  0.71655  0.79936  0.54268  1.0000
  C   C1653     1.0  0.87518  0.75434  0.57131  1.0000
  H   H2912     1.0  0.63420  0.95482  0.74092  1.0000
  H   H2913     1.0  0.93229  0.79792  0.74621  1.0000
  H   H2914     1.0  0.51115  0.80762  0.76856  1.0000
  H   H2915     1.0  0.80676  0.94429  0.82598  1.0000
  H   H2916     1.0  0.62498  0.93409  0.71065  1.0000
  H   H2917     1.0  0.92647  0.75816  0.61693  1.0000
  H   H2918     1.0  0.66793  0.78325  0.96502  1.0000
  H   H2919     1.0  0.72168  0.92190  0.50679  1.0000
  H   H2920     1.0  0.77470  0.76704  0.92239  1.0000
  H   H2921     1.0  0.75251  0.77207  0.52031  1.0000
  H   H2922     1.0  0.64157  0.92315  0.65995  1.0000
  C   C1654     1.0  0.74657  0.76199  0.50525  1.0000
  H   H2923     1.0  0.76830  0.76556  0.89125  1.0000
  S   S382      1.0  0.69297  0.98047  0.84594  1.0000
  H   H2924     1.0  0.51534  0.78595  0.82105  1.0000
  C   C1655     1.0  0.68713  0.75849  0.54529  1.0000
  H   H2925     1.0  0.51484  0.82180  0.56384  1.0000
  C   C1656     1.0  0.70095  0.81129  0.54073  1.0000
  C   C1657     1.0  0.75457  0.98096  0.74640  1.0000
  H   H2926     1.0  0.64552  0.80547  0.95938  1.0000
  H   H2927     1.0  0.67408  0.82961  0.93675  1.0000
  H   H2928     1.0  0.91522  0.80353  0.77270  1.0000
  H   H2929     1.0  0.84242  0.85421  0.70533  1.0000
  H   H2930     1.0  0.95091  0.77317  0.82269  1.0000
  C   C1658     1.0  0.62792  0.92619  0.67389  1.0000
  H   H2931     1.0  0.64156  0.75296  0.53100  1.0000
  H   H2932     1.0  0.65791  0.78888  0.93502  1.0000
  H   H2933     1.0  0.95367  0.77976  0.55051  1.0000
  H   H2934     1.0  0.68341  0.82459  0.96679  1.0000
  C   C1659     1.0  0.50979  0.87177  0.73841  1.0000
  H   H2935     1.0  0.74051  0.96599  0.52610  1.0000
  H   H2936     1.0  0.68675  0.75498  0.58411  1.0000
  H   H2937     1.0  0.67561  0.74512  0.50160  1.0000
  C   C1660     1.0  0.53203  0.78163  0.78631  1.0000
  N   N92       1.0  0.76432  0.94468  0.85058  1.0000
  C   C1661     1.0  0.78886  0.94365  0.86103  1.0000
  C   C1662     1.0  0.74647  0.94773  0.87041  1.0000
  C   C1663     1.0  0.75963  0.92096  0.83917  1.0000
  H   H2938     1.0  0.66428  0.93828  0.76402  1.0000
  C   C1664     1.0  0.83336  0.94203  0.85319  1.0000
  H   H2939     1.0  0.76284  0.85171  0.95256  1.0000
  C   C1665     1.0  0.73395  0.91692  0.83042  1.0000
  H   H2940     1.0  0.53529  0.86803  0.76596  1.0000
  H   H2941     1.0  0.69402  0.95878  0.74162  1.0000
  H   H2942     1.0  0.67061  0.94899  0.68410  1.0000
  C   C1666     1.0  0.73254  0.89577  0.81370  1.0000
  H   H2943     1.0  0.78926  0.93099  0.87630  1.0000
  H   H2944     1.0  0.74185  0.80075  0.89443  1.0000
  H   H2945     1.0  0.72819  0.94790  0.86332  1.0000
  H   H2946     1.0  0.74728  0.93222  0.88276  1.0000
  H   H2947     1.0  0.76394  0.90617  0.85166  1.0000
  H   H2948     1.0  0.77144  0.91845  0.82350  1.0000
  H   H2949     1.0  0.78020  0.99107  0.71946  1.0000
  H   H2950     1.0  0.98054  0.77884  0.85476  1.0000
  C   C1667     1.0  0.51334  0.77501  0.80489  1.0000
  C   C1668     1.0  0.63952  0.93194  0.69756  1.0000
  C   C1669     1.0  0.64385  0.97087  0.73501  1.0000
  H   H2951     1.0  0.54971  0.77858  0.79419  1.0000
  H   H2952     1.0  0.72712  0.93275  0.82090  1.0000
  H   H2953     1.0  0.72204  0.91312  0.84569  1.0000
  H   H2954     1.0  0.79562  0.98292  0.83211  1.0000
  H   H2955     1.0  0.84724  0.93551  0.84074  1.0000
  H   H2956     1.0  0.72305  0.82276  0.97620  1.0000
  H   H2957     1.0  0.76609  0.97302  0.89276  1.0000
  C   C1670     1.0  0.80886  0.93586  0.84367  1.0000
  H   H2958     1.0  0.91272  0.74681  0.83894  1.0000
  H   H2959     1.0  0.62493  0.79619  0.59755  1.0000
  C   C1671     1.0  0.93637  0.77099  0.77349  1.0000
  H   H2960     1.0  0.71378  0.89292  0.80860  1.0000
  H   H2961     1.0  0.74299  0.89922  0.79731  1.0000
  H   H2962     1.0  0.73923  0.87941  0.82254  1.0000
  C   C1672     1.0  0.70944  0.83335  0.52737  1.0000
  H   H2963     1.0  0.74622  0.88547  0.88637  1.0000
  C   C1673     1.0  0.74817  0.97065  0.88525  1.0000
  H   H2964     1.0  0.66761  0.81189  0.52161  1.0000
  H   H2965     1.0  0.71528  0.87892  0.89032  1.0000
  C   C1674     1.0  0.68120  0.79846  0.52694  1.0000
  H   H2966     1.0  0.69469  0.84632  0.52525  1.0000
  H   H2967     1.0  0.72384  0.84195  0.53745  1.0000
  H   H2968     1.0  0.71644  0.82848  0.50965  1.0000
  H   H2969     1.0  0.79385  0.96095  0.86873  1.0000
  H   H2970     1.0  0.70529  0.92111  0.76455  1.0000
  N   N93       1.0  0.85077  0.86528  0.63091  1.0000
  C   C1675     1.0  0.83357  0.88266  0.61978  1.0000
  C   C1676     1.0  0.84312  0.84028  0.62541  1.0000
  C   C1677     1.0  0.84889  0.86842  0.65748  1.0000
  C   C1678     1.0  0.87617  0.86924  0.62309  1.0000
  C   C1679     1.0  0.88002  0.87910  0.59754  1.0000
  C   C1680     1.0  0.83653  0.90890  0.62752  1.0000
  C   C1681     1.0  0.86335  0.85079  0.67290  1.0000
  C   C1682     1.0  0.84215  0.83323  0.59898  1.0000
  C   C1683     1.0  0.83098  0.80876  0.59616  1.0000
  C   C1684     1.0  0.90610  0.87841  0.59023  1.0000
  C   C1685     1.0  0.82472  0.92619  0.61024  1.0000
  C   C1686     1.0  0.86099  0.85668  0.69923  1.0000
  H   H2971     1.0  0.81498  0.87754  0.62415  1.0000
  H   H2972     1.0  0.83451  0.88210  0.60019  1.0000
  H   H2973     1.0  0.85560  0.82716  0.63337  1.0000
  H   H2974     1.0  0.82540  0.83679  0.63353  1.0000
  H   H2975     1.0  0.83002  0.86736  0.66335  1.0000
  H   H2976     1.0  0.85522  0.88635  0.66262  1.0000
  H   H2977     1.0  0.88518  0.88185  0.63509  1.0000
  H   H2978     1.0  0.88666  0.85248  0.62492  1.0000
  H   H2979     1.0  0.87415  0.89788  0.59639  1.0000
  H   H2980     1.0  0.87002  0.86905  0.58420  1.0000
  H   H2981     1.0  0.82824  0.91161  0.64522  1.0000
  H   H2982     1.0  0.85548  0.91366  0.62892  1.0000
  H   H2983     1.0  0.88229  0.85175  0.66789  1.0000
  H   H2984     1.0  0.85714  0.83230  0.67089  1.0000
  H   H2985     1.0  0.83154  0.84587  0.58827  1.0000
  H   H2986     1.0  0.86042  0.83204  0.59164  1.0000
  H   H2987     1.0  0.81234  0.80886  0.60262  1.0000
  H   H2988     1.0  0.83103  0.80373  0.57716  1.0000
  H   H2989     1.0  0.84124  0.79512  0.60616  1.0000
  H   H2990     1.0  0.91674  0.88973  0.60209  1.0000
  H   H2991     1.0  0.91303  0.85993  0.59075  1.0000
  H   H2992     1.0  0.90808  0.88528  0.57184  1.0000
  H   H2993     1.0  0.83325  0.92509  0.59249  1.0000
  H   H2994     1.0  0.80551  0.92233  0.60870  1.0000
  H   H2995     1.0  0.86637  0.87525  0.70267  1.0000
  C   C1687     1.0  0.69948  0.75964  0.56978  1.0000
  H   H2996     1.0  0.87271  0.84470  0.70966  1.0000
  N   N94       1.0  0.66938  0.77786  0.53940  1.0000
  H   H2997     1.0  0.73379  0.95450  0.91759  1.0000
  C   C1688     1.0  0.50266  0.83699  0.56045  1.0000
  C   C1689     1.0  0.67141  0.92950  0.74791  1.0000
  S   S383      1.0  0.97357  0.81080  0.64518  1.0000
  H   H2998     1.0  0.64570  0.80322  0.55603  1.0000
  H   H2999     1.0  0.76593  0.95717  0.81400  1.0000
  C   C1690     1.0  0.95856  0.76077  0.55289  1.0000
  N   N95       1.0  0.54765  0.81781  0.76125  1.0000
  C   C1691     1.0  0.55853  0.79853  0.74613  1.0000
  C   C1692     1.0  0.52872  0.80763  0.77755  1.0000
  C   C1693     1.0  0.53571  0.83532  0.74476  1.0000
  C   C1694     1.0  0.56607  0.83108  0.77512  1.0000
  C   C1695     1.0  0.58298  0.81593  0.79055  1.0000
  C   C1696     1.0  0.57786  0.80648  0.72816  1.0000
  S   S384      1.0  0.86180  0.98476  0.63917  1.0000
  H   H3000     1.0  0.72725  0.74689  0.96332  1.0000
  H   H3001     1.0  0.50278  0.75234  0.64006  1.0000
  C   C1697     1.0  0.60199  0.83144  0.80174  1.0000
  C   C1698     1.0  0.58972  0.78510  0.71639  1.0000
  H   H3002     1.0  0.69746  0.90177  0.74033  1.0000
  H   H3003     1.0  0.54442  0.78956  0.73583  1.0000
  H   H3004     1.0  0.56662  0.78436  0.75718  1.0000
  C   C1699     1.0  0.63239  0.77791  0.59809  1.0000
  H   H3005     1.0  0.63754  0.78169  0.51833  1.0000
  H   H3006     1.0  0.52284  0.82592  0.73329  1.0000
  H   H3007     1.0  0.54880  0.84362  0.73259  1.0000
  H   H3008     1.0  0.57699  0.84239  0.76306  1.0000
  H   H3009     1.0  0.55741  0.84382  0.78746  1.0000
  H   H3010     1.0  0.59229  0.80217  0.78002  1.0000
  H   H3011     1.0  0.57297  0.80740  0.80521  1.0000
  H   H3012     1.0  0.56986  0.81734  0.71386  1.0000
  H   H3013     1.0  0.59194  0.81695  0.73676  1.0000
  C   C1700     1.0  0.94962  0.97145  0.62603  1.0000
  H   H3014     1.0  0.65051  0.91631  0.70245  1.0000
  H   H3015     1.0  0.86094  0.75352  0.55862  1.0000
  H   H3016     1.0  0.90588  0.78102  0.75194  1.0000
  H   H3017     1.0  0.64815  0.77757  0.60979  1.0000
  C   C1701     1.0  0.95588  0.75425  0.81965  1.0000
  C   C1702     1.0  0.73063  0.97021  0.90602  1.0000
  H   H3018     1.0  0.61296  0.84015  0.78780  1.0000
  H   H3019     1.0  0.59373  0.84533  0.81305  1.0000
  H   H3020     1.0  0.61380  0.82033  0.81299  1.0000
  H   H3021     1.0  0.57636  0.77424  0.70705  1.0000
  H   H3022     1.0  0.60298  0.79133  0.70316  1.0000
  H   H3023     1.0  0.59893  0.77390  0.72976  1.0000
  C   C1703     1.0  0.75380  0.84279  0.96752  1.0000
  C   C1704     1.0  0.65538  0.95426  0.69552  1.0000
  H   H3024     1.0  0.52621  0.81908  0.79339  1.0000
  N   N96       1.0  0.72546  0.82167  0.93777  1.0000
  C   C1705     1.0  0.74719  0.80668  0.93267  1.0000
  C   C1706     1.0  0.72839  0.83447  0.96110  1.0000
  C   C1707     1.0  0.70458  0.80510  0.93995  1.0000
  C   C1708     1.0  0.72007  0.83894  0.91795  1.0000
  C   C1709     1.0  0.73930  0.85749  0.91200  1.0000
  C   C1710     1.0  0.74604  0.79041  0.91066  1.0000
  C   C1711     1.0  0.68106  0.81611  0.94931  1.0000
  H   H3025     1.0  0.71210  0.96972  0.89946  1.0000
  H   H3026     1.0  0.82677  0.94461  0.61682  1.0000
  C   C1712     1.0  0.73330  0.87096  0.88919  1.0000
  C   C1713     1.0  0.76974  0.77775  0.90656  1.0000
  C   C1714     1.0  0.66201  0.79715  0.95232  1.0000
  H   H3027     1.0  0.75099  0.79500  0.94824  1.0000
  H   H3028     1.0  0.76324  0.81770  0.93053  1.0000
  H   H3029     1.0  0.71619  0.85005  0.96195  1.0000
  H   H3030     1.0  0.73407  0.85889  0.87372  1.0000
  H   H3031     1.0  0.70913  0.78988  0.95167  1.0000
  H   H3032     1.0  0.70025  0.79724  0.92247  1.0000
  H   H3033     1.0  0.71554  0.82931  0.90146  1.0000
  H   H3034     1.0  0.70389  0.84947  0.92224  1.0000
  H   H3035     1.0  0.75698  0.84925  0.90943  1.0000
  H   H3036     1.0  0.74011  0.87074  0.92645  1.0000
  H   H3037     1.0  0.73249  0.77640  0.91320  1.0000
  H   H3038     1.0  0.94252  0.75789  0.76018  1.0000
  H   H3039     1.0  0.91363  0.77251  0.80474  1.0000
  C   C1715     1.0  0.52254  0.85637  0.75678  1.0000
  Fe  Fe192     1.0  0.98314  0.84962  0.64851  1.0000
  C   C1716     1.0  0.66100  0.75808  0.49875  1.0000
  C   C1717     1.0  0.68156  0.94834  0.73058  1.0000
  H   H3040     1.0  0.62235  0.76871  0.56282  1.0000
  H   H3041     1.0  0.75367  0.93718  0.53214  1.0000
  C   C1718     1.0  0.75407  0.95290  0.52017  1.0000
  H   H3042     1.0  0.68270  0.89900  0.76863  1.0000
  H   H3043     1.0  0.83524  0.96155  0.85489  1.0000
  H   H3044     1.0  0.65695  0.91938  0.73989  1.0000
  H   H3045     1.0  0.50915  0.85011  0.76982  1.0000
  H   H3046     1.0  0.51301  0.85143  0.55188  1.0000
  H   H3047     1.0  0.95438  0.96434  0.64380  1.0000
  H   H3048     1.0  0.83625  0.93350  0.87075  1.0000
  H   H3049     1.0  0.77181  0.96124  0.52148  1.0000
  H   H3050     1.0  0.51541  0.75602  0.80993  1.0000
  H   H3051     1.0  0.74268  0.87598  0.98408  1.0000
  C   C1719     1.0  0.77653  0.98681  0.83493  1.0000
  H   H3052     1.0  0.84333  0.75624  0.51679  1.0000
  H   H3053     1.0  0.71238  0.77798  0.99105  1.0000
  H   H3054     1.0  0.73408  0.74670  0.55790  1.0000
  H   H3055     1.0  0.98940  0.80810  0.74316  1.0000
  C   C1720     1.0  0.87887  0.76259  0.50257  1.0000
  H   H3056     1.0  0.90684  0.74968  0.78429  1.0000
  C   C1721     1.0  0.76283  0.74649  0.97705  1.0000
  H   H3057     1.0  0.91503  0.74538  0.54350  1.0000
  H   H3058     1.0  0.49518  0.77751  0.79771  1.0000
  H   H3059     1.0  0.71181  0.94942  0.49533  1.0000
  H   H3060     1.0  0.91947  0.99075  0.63906  1.0000
  C   C1722     1.0  0.49561  0.77509  0.72692  1.0000
  H   H3061     1.0  0.64568  0.96791  0.68496  1.0000
  H   H3062     1.0  0.50117  0.88712  0.74728  1.0000
  C   C1723     1.0  0.74958  0.94554  0.49457  1.0000
  H   H3063     1.0  0.84573  0.78181  0.49764  1.0000
  H   H3064     1.0  0.59501  0.97497  0.74583  1.0000
  C   C1724     1.0  0.67682  0.98764  0.71259  1.0000
  H   H3065     1.0  0.49593  0.86142  0.72927  1.0000
  H   H3066     1.0  0.94968  0.75383  0.56910  1.0000
  H   H3067     1.0  0.69843  0.97609  0.68186  1.0000
  H   H3068     1.0  0.71399  0.97504  0.70961  1.0000
  H   H3069     1.0  0.65103  0.97855  0.75158  1.0000
  H   H3070     1.0  0.97803  0.75950  0.55548  1.0000
  C   C1725     1.0  0.62493  0.98843  0.72530  1.0000
  C   C1726     1.0  0.70079  0.98517  0.69904  1.0000
  H   H3071     1.0  0.61705  0.98180  0.70867  1.0000
  H   H3072     1.0  0.91161  0.74453  0.98548  1.0000
  C   C1727     1.0  0.92442  0.74884  0.52649  1.0000
  C   C1728     1.0  0.60472  0.99185  0.74312  1.0000
