data_image0
_chemical_formula_structural       HSHCH3C2H5CH6C3H5CH2CH2NC2H2FeHFeCFeS2FeSFeS2FeSHFeSFeHS2H6C6H4CH3CHCHCH2C2HN2C8HC2H3CH9CH2CH9CH4C2HCH2CFeHC2HCHCHCHCH3CNCS2HSHCSHNH2C2HCSH3C2H2SHC2H4CH6CH5CH4SCH4CHC3H2CH4CH2C3H2C2HSCHCH2SH8FeCSCSCFeS2FeS2FeCFeCS2CH4C6SH7CHC3H6C2H6NCFeH5CHSHFeC2H2C2H3NHC2HSHC2H2CH7CH7CH2C2H2CH3CHC2H3C2HSHCHCH2CH2CHSH3CHCHNCH2C2H2C2H2NH2CH3CFeSHFeS2FeSFeHSHC3H3C6H4C2HCHCSH2C3H9C2HCH2CSHNCH2C3HCHC2H5C2H7C2H2CH4CH4SH3SC2H3C2HCHC3HCH2CHCH4CHCHCHNH4CHNH6CH2CHCHNFeSCFeS2FeSFeS3C6H4C2H2C5H3C2H4CHCH6CHC2H4CH2C3H5CHCHNH3SCH6CHC3SH3C2H2C3H5CH7C4HCH7CH4CH2CFeSCFeS2FeSFeHSH3C5H3CH3SH2C3S2CH2CH8SHC2HCHCH2CHNHCH2CNC2HC2H2C2H8C2H3CH2CH5C2H3CHC2HCHCHCH2CHCH6CH3CH5CH7NCHC2HCHC2HC2H2CHCFeSHFeS2FeSFeS3H3C2H2C5HCHC5H3C2NH5CHNH6C3H2CH2CH2C5HCH6CHSH3C2HC2HC2HCSH9CH4CHC2H3C2H5FeH2SFeSH3FeS2FeS2FeSFeHS2HC2H2CH2SH5CFeHSC6H4CHCH2FeCH2C8HC2HCHNH2CH2SCH9C3H2CH2CH2CHC3H2CH7NCHC2HCH2CH7CH5C3H4CH2CHSH4CHCHSCHFeSHFeCSFeS2FeSHFeHFeHS2H4C2H3CSHC6H4SHSH2C3H2NC9H16FeH2C3SH5NC8H2CH16C3H14SNCH5C2H6CH2SHCH2C5H4C2H2C3HFeC3H4SH3CH2CH5CH3CHC2H5C3HCH5
_chemical_formula_sum              "H768 S96 C432 N24 Fe48"
_cell_length_a       44.6093
_cell_length_b       45.0319
_cell_length_c       30.9146
_cell_angle_alpha    89.5389
_cell_angle_beta     90.3722
_cell_angle_gamma    120.287

_space_group_name_H-M_alt    "P 1"
_space_group_IT_number       1

loop_
  _space_group_symop_operation_xyz
  'x, y, z'

loop_
  _atom_site_type_symbol
  _atom_site_label
  _atom_site_symmetry_multiplicity
  _atom_site_fract_x
  _atom_site_fract_y
  _atom_site_fract_z
  _atom_site_occupancy
  H   H1        1.0  0.45963  0.27864  0.50647  1.0000
  S   S1        1.0  0.45041  0.04560  0.33824  1.0000
  H   H2        1.0  0.45430  0.24329  0.21768  1.0000
  C   C1        1.0  0.44742  0.00636  0.35583  1.0000
  H   H3        1.0  0.41042  0.19326  0.47710  1.0000
  H   H4        1.0  0.45641  0.23152  0.52980  1.0000
  H   H5        1.0  0.43119  0.16765  0.47238  1.0000
  C   C2        1.0  0.46169  0.21590  0.50699  1.0000
  C   C3        1.0  0.42696  0.18483  0.49395  1.0000
  H   H6        1.0  0.45895  0.07689  0.50443  1.0000
  H   H7        1.0  0.41309  0.17001  0.52332  1.0000
  H   H8        1.0  0.46455  0.24086  0.44530  1.0000
  H   H9        1.0  0.40664  0.97570  0.31047  1.0000
  H   H10       1.0  0.46559  0.25607  0.04188  1.0000
  C   C4        1.0  0.42327  0.97531  0.33585  1.0000
  H   H11       1.0  0.43287  0.05163  0.57600  1.0000
  H   H12       1.0  0.44846  0.02265  0.58066  1.0000
  H   H13       1.0  0.46064  0.20248  0.91070  1.0000
  H   H14       1.0  0.38644  0.01961  0.67257  1.0000
  H   H15       1.0  0.44043  0.02489  0.69533  1.0000
  H   H16       1.0  0.46181  0.11496  0.59374  1.0000
  C   C5        1.0  0.43583  0.02177  0.65978  1.0000
  C   C6        1.0  0.45522  0.04946  0.58834  1.0000
  C   C7        1.0  0.43116  0.99001  0.77816  1.0000
  H   H17       1.0  0.40946  0.99414  0.77382  1.0000
  H   H18       1.0  0.42004  0.07057  0.64171  1.0000
  H   H19       1.0  0.44024  0.23189  0.85870  1.0000
  H   H20       1.0  0.46000  0.14327  0.68327  1.0000
  H   H21       1.0  0.44237  0.00195  0.65015  1.0000
  C   C8        1.0  0.39617  0.00586  0.65253  1.0000
  H   H22       1.0  0.44969  0.08364  0.68595  1.0000
  H   H23       1.0  0.42745  0.13018  0.64119  1.0000
  C   C9        1.0  0.44774  0.08052  0.65003  1.0000
  H   H24       1.0  0.45647  0.11180  0.94884  1.0000
  H   H25       1.0  0.38999  0.00759  0.61812  1.0000
  N   N1        1.0  0.45905  0.05545  0.63670  1.0000
  C   C10       1.0  0.45547  0.14042  0.64779  1.0000
  C   C11       1.0  0.46505  0.01849  0.78048  1.0000
  H   H26       1.0  0.46498  0.23805  0.96685  1.0000
  H   H27       1.0  0.17905  0.62308  0.23116  1.0000
  Fe  Fe1       1.0  0.14467  0.58085  0.07663  1.0000
  H   H28       1.0  0.03404  0.55915  0.34019  1.0000
  Fe  Fe2       1.0  0.40691  0.55266  0.10561  1.0000
  C   C12       1.0  0.28131  0.62329  0.07708  1.0000
  Fe  Fe3       1.0  0.32942  0.52635  0.09299  1.0000
  S   S2        1.0  0.33701  0.57897  0.08322  1.0000
  S   S3        1.0  0.27801  0.47698  0.09173  1.0000
  Fe  Fe4       1.0  0.37329  0.59394  0.14044  1.0000
  S   S4        1.0  0.36332  0.54012  0.15192  1.0000
  Fe  Fe5       1.0  0.08286  0.52813  0.44419  1.0000
  S   S5        1.0  0.12000  0.50820  0.43650  1.0000
  S   S6        1.0  0.02875  0.49783  0.47402  1.0000
  Fe  Fe6       1.0  0.13564  0.59908  0.40829  1.0000
  S   S7        1.0  0.17644  0.58521  0.39676  1.0000
  H   H29       1.0  0.07503  0.60735  0.46846  1.0000
  Fe  Fe7       1.0  0.13220  0.53568  0.37199  1.0000
  S   S8        1.0  0.13390  0.51348  0.30777  1.0000
  Fe  Fe8       1.0  0.16168  0.55953  0.46226  1.0000
  H   H30       1.0  0.26648  0.53240  0.06273  1.0000
  S   S9        1.0  0.09242  0.55154  0.37814  1.0000
  S   S10       1.0  0.12356  0.57730  0.47541  1.0000
  H   H31       1.0  0.26011  0.57383  0.27030  1.0000
  H   H32       1.0  0.09797  0.58391  0.28569  1.0000
  H   H33       1.0  0.35388  0.42922  0.07062  1.0000
  H   H34       1.0  0.19224  0.50561  0.50155  1.0000
  H   H35       1.0  0.41006  0.32684  0.15743  1.0000
  H   H36       1.0  0.34814  0.61501  0.40767  1.0000
  C   C13       1.0  0.14700  0.58042  0.18947  1.0000
  C   C14       1.0  0.12471  0.54478  0.18760  1.0000
  C   C15       1.0  0.11957  0.52434  0.22459  1.0000
  C   C16       1.0  0.13593  0.53949  0.26375  1.0000
  C   C17       1.0  0.15605  0.57529  0.26641  1.0000
  C   C18       1.0  0.16189  0.59564  0.22927  1.0000
  H   H37       1.0  0.11281  0.53274  0.15729  1.0000
  H   H38       1.0  0.10347  0.49666  0.22268  1.0000
  H   H39       1.0  0.16830  0.58717  0.29670  1.0000
  H   H40       1.0  0.21058  0.54383  0.35949  1.0000
  C   C19       1.0  0.24102  0.47773  0.07293  1.0000
  H   H41       1.0  0.22152  0.58748  0.12926  1.0000
  H   H42       1.0  0.07793  0.57751  0.23327  1.0000
  H   H43       1.0  0.34373  0.41014  0.30437  1.0000
  C   C20       1.0  0.04646  0.59237  0.47302  1.0000
  H   H44       1.0  0.36400  0.57302  0.26684  1.0000
  C   C21       1.0  0.98823  0.48406  0.44760  1.0000
  H   H45       1.0  0.35877  0.57124  0.38670  1.0000
  C   C22       1.0  0.33216  0.55759  0.37270  1.0000
  H   H46       1.0  0.00941  0.50285  0.38437  1.0000
  H   H47       1.0  0.36415  0.39160  0.33637  1.0000
  C   C23       1.0  0.42922  0.48222  0.06658  1.0000
  C   C24       1.0  0.35303  0.39142  0.30404  1.0000
  H   H48       1.0  0.33223  0.44960  0.09486  1.0000
  N   N2        1.0  0.38956  0.40754  0.18566  1.0000
  N   N3        1.0  0.23836  0.56437  0.17853  1.0000
  C   C25       1.0  0.20099  0.53641  0.18352  1.0000
  C   C26       1.0  0.24687  0.59221  0.21144  1.0000
  C   C27       1.0  0.20775  0.52495  0.38480  1.0000
  C   C28       1.0  0.26316  0.55081  0.18179  1.0000
  C   C29       1.0  0.25291  0.51963  0.21243  1.0000
  C   C30       1.0  0.18640  0.50941  0.14677  1.0000
  C   C31       1.0  0.24130  0.53808  0.41071  1.0000
  C   C32       1.0  0.24123  0.58155  0.25972  1.0000
  H   H49       1.0  0.41245  0.37849  0.21197  1.0000
  C   C33       1.0  0.28243  0.51188  0.21656  1.0000
  C   C34       1.0  0.15255  0.47717  0.15951  1.0000
  H   H50       1.0  0.23805  0.56190  0.10855  1.0000
  H   H51       1.0  0.18444  0.54811  0.18473  1.0000
  H   H52       1.0  0.19644  0.52257  0.21480  1.0000
  C   C35       1.0  0.02817  0.57971  0.42945  1.0000
  H   H53       1.0  0.27903  0.60948  0.38166  1.0000
  H   H54       1.0  0.36030  0.42308  0.22592  1.0000
  H   H55       1.0  0.99994  0.56373  0.43618  1.0000
  H   H56       1.0  0.26733  0.54269  0.14947  1.0000
  H   H57       1.0  0.28916  0.57171  0.19188  1.0000
  H   H58       1.0  0.23009  0.49611  0.19956  1.0000
  H   H59       1.0  0.24618  0.52391  0.24520  1.0000
  H   H60       1.0  0.18079  0.52056  0.11775  1.0000
  H   H61       1.0  0.20527  0.50144  0.13768  1.0000
  C   C36       1.0  0.39692  0.37829  0.18379  1.0000
  H   H62       1.0  0.97674  0.58320  0.28272  1.0000
  H   H63       1.0  0.21443  0.56037  0.26611  1.0000
  C   C37       1.0  0.30614  0.61672  0.37388  1.0000
  H   H64       1.0  0.18660  0.52100  0.40691  1.0000
  H   H65       1.0  0.03722  0.56317  0.41511  1.0000
  H   H66       1.0  0.07259  0.59915  0.34840  1.0000
  H   H67       1.0  0.27500  0.49021  0.23954  1.0000
  H   H68       1.0  0.28777  0.50438  0.18463  1.0000
  H   H69       1.0  0.30642  0.53473  0.22854  1.0000
  H   H70       1.0  0.15618  0.46511  0.18904  1.0000
  H   H71       1.0  0.13193  0.48353  0.16515  1.0000
  H   H72       1.0  0.14386  0.45826  0.13274  1.0000
  C   C38       1.0  0.32736  0.63826  0.53319  1.0000
  H   H73       1.0  0.31311  0.40360  0.09832  1.0000
  H   H74       1.0  0.45120  0.36326  0.17409  1.0000
  H   H75       1.0  0.29440  0.51791  0.44228  1.0000
  H   H76       1.0  0.33066  0.36520  0.29821  1.0000
  C   C39       1.0  0.33673  0.57128  0.32563  1.0000
  C   C40       1.0  0.41587  0.37701  0.14254  1.0000
  H   H77       1.0  0.24769  0.56275  0.42616  1.0000
  C   C41       1.0  0.30645  0.54640  0.44479  1.0000
  H   H78       1.0  0.20021  0.49995  0.36931  1.0000
  H   H79       1.0  0.34787  0.53363  0.29720  1.0000
  C   C42       1.0  0.07271  0.57353  0.26856  1.0000
  Fe  Fe9       1.0  0.38255  0.58815  0.04272  1.0000
  H   H80       1.0  0.44279  0.35189  0.11787  1.0000
  C   C43       1.0  0.24745  0.61192  0.28803  1.0000
  C   C44       1.0  0.98604  0.49030  0.40359  1.0000
  H   H81       1.0  0.31098  0.60410  0.43907  1.0000
  C   C45       1.0  0.31924  0.59970  0.40700  1.0000
  H   H82       1.0  0.34964  0.59978  0.32552  1.0000
  C   C46       1.0  0.33805  0.42845  0.09859  1.0000
  H   H83       1.0  0.36381  0.55784  0.52957  1.0000
  C   C47       1.0  0.20953  0.44667  0.06996  1.0000
  H   H84       1.0  0.97752  0.48236  0.12190  1.0000
  C   C48       1.0  0.43263  0.45470  0.05100  1.0000
  H   H85       1.0  0.32557  0.56148  0.53341  1.0000
  H   H86       1.0  0.39747  0.36698  0.11482  1.0000
  H   H87       1.0  0.40640  0.48377  0.05897  1.0000
  C   C49       1.0  0.04652  0.58716  0.33283  1.0000
  N   N4        1.0  0.30719  0.56202  0.40096  1.0000
  C   C50       1.0  0.36639  0.40208  0.22393  1.0000
  S   S11       1.0  0.42015  0.60803  0.09876  1.0000
  S   S12       1.0  0.10027  0.52752  0.06454  1.0000
  H   H88       1.0  0.32439  0.52985  0.37147  1.0000
  S   S13       1.0  0.15945  0.60631  0.14243  1.0000
  H   H89       1.0  0.31166  0.56038  0.30811  1.0000
  C   C51       1.0  0.21312  0.51904  0.52460  1.0000
  S   S14       1.0  0.45026  0.54039  0.11701  1.0000
  H   H90       1.0  0.26941  0.55283  0.35025  1.0000
  N   N5        1.0  0.02542  0.60156  0.35202  1.0000
  H   H91       1.0  0.38591  0.57268  0.31564  1.0000
  H   H92       1.0  0.02986  0.58239  0.26397  1.0000
  C   C52       1.0  0.21220  0.50780  0.04550  1.0000
  C   C53       1.0  0.03571  0.61030  0.39900  1.0000
  H   H93       1.0  0.97939  0.54493  0.29295  1.0000
  C   C54       1.0  0.36003  0.56198  0.29998  1.0000
  S   S15       1.0  0.35916  0.61625  0.19812  1.0000
  H   H94       1.0  0.35702  0.54950  0.45194  1.0000
  H   H95       1.0  0.26518  0.51524  0.37384  1.0000
  H   H96       1.0  0.38955  0.38215  0.27143  1.0000
  C   C55       1.0  0.24211  0.58060  0.13436  1.0000
  C   C56       1.0  0.27124  0.54185  0.38168  1.0000
  H   H97       1.0  0.98705  0.52472  0.13737  1.0000
  H   H98       1.0  0.29950  0.60960  0.13420  1.0000
  S   S16       1.0  0.20654  0.57680  0.51032  1.0000
  H   H99       1.0  0.23609  0.51897  0.43681  1.0000
  C   C57       1.0  0.05384  0.59208  0.28338  1.0000
  C   C58       1.0  0.45382  0.44504  0.21234  1.0000
  H   H100      1.0  0.28971  0.55060  0.46764  1.0000
  H   H101      1.0  0.05681  0.54545  0.27501  1.0000
  H   H102      1.0  0.07084  0.61966  0.27520  1.0000
  H   H103      1.0  0.34106  0.37776  0.21972  1.0000
  C   C59       1.0  0.34216  0.56020  0.46755  1.0000
  H   H104      1.0  0.35777  0.58866  0.46612  1.0000
  H   H105      1.0  0.32421  0.61711  0.51204  1.0000
  H   H106      1.0  0.37220  0.35313  0.18602  1.0000
  H   H107      1.0  0.44655  0.42995  0.24268  1.0000
  H   H108      1.0  0.23136  0.60487  0.20419  1.0000
  H   H109      1.0  0.04020  0.56994  0.49424  1.0000
  C   C60       1.0  0.27760  0.61342  0.12498  1.0000
  H   H110      1.0  0.38523  0.40957  0.11595  1.0000
  H   H111      1.0  0.34590  0.37964  0.14212  1.0000
  H   H112      1.0  0.33905  0.42964  0.16723  1.0000
  H   H113      1.0  0.23098  0.62261  0.27736  1.0000
  H   H114      1.0  0.38000  0.45924  0.14236  1.0000
  C   C61       1.0  0.38079  0.40116  0.26932  1.0000
  H   H115      1.0  0.32186  0.52099  0.51840  1.0000
  H   H116      1.0  0.27468  0.61267  0.20909  1.0000
  H   H117      1.0  0.20826  0.42287  0.07941  1.0000
  H   H118      1.0  0.97229  0.58594  0.36760  1.0000
  S   S17       1.0  0.46302  0.41486  0.04427  1.0000
  C   C62       1.0  0.45490  0.50714  0.09315  1.0000
  H   H119      1.0  0.21998  0.47546  0.53682  1.0000
  H   H120      1.0  0.40260  0.42708  0.27766  1.0000
  H   H121      1.0  0.98147  0.55190  0.36934  1.0000
  H   H122      1.0  0.24065  0.60318  0.32207  1.0000
  C   C63       1.0  0.35737  0.43266  0.14123  1.0000
  H   H123      1.0  0.02263  0.62353  0.41311  1.0000
  C   C64       1.0  0.43081  0.35326  0.14861  1.0000
  C   C65       1.0  0.36933  0.40573  0.14529  1.0000
  C   C66       1.0  0.33793  0.54941  0.51507  1.0000
  H   H124      1.0  0.27216  0.63759  0.45892  1.0000
  H   H125      1.0  0.28037  0.60249  0.05708  1.0000
  C   C67       1.0  0.98706  0.57543  0.35097  1.0000
  H   H126      1.0  0.30644  0.60891  0.34016  1.0000
  H   H127      1.0  0.26027  0.62813  0.06664  1.0000
  H   H128      1.0  0.43736  0.40290  0.13366  1.0000
  H   H129      1.0  0.27509  0.63266  0.28660  1.0000
  C   C68       1.0  0.97045  0.56205  0.30598  1.0000
  H   H130      1.0  0.41615  0.46175  0.20106  1.0000
  H   H131      1.0  0.06410  0.62878  0.40172  1.0000
  C   C69       1.0  0.42215  0.44248  0.18750  1.0000
  C   C70       1.0  0.46156  0.45154  0.06217  1.0000
  C   C71       1.0  0.18081  0.47660  0.04215  1.0000
  H   H132      1.0  0.27994  0.63559  0.14338  1.0000
  H   H133      1.0  0.43180  0.45209  0.15431  1.0000
  C   C72       1.0  0.22431  0.55329  0.53477  1.0000
  C   C73       1.0  0.24235  0.50836  0.06062  1.0000
  H   H134      1.0  0.03778  0.60863  0.48926  1.0000
  S   S18       1.0  0.37183  0.53401  0.04789  1.0000
  C   C74       1.0  0.03164  0.63407  0.32959  1.0000
  H   H135      1.0  0.02555  0.62970  0.29460  1.0000
  C   C75       1.0  0.17968  0.44606  0.05425  1.0000
  H   H136      1.0  0.15555  0.42183  0.05171  1.0000
  H   H137      1.0  0.33297  0.64143  0.26353  1.0000
  S   S19       1.0  0.18366  0.57369  0.03967  1.0000
  H   H138      1.0  0.30474  0.64191  0.52853  1.0000
  H   H139      1.0  0.12771  0.64187  0.51918  1.0000
  H   H140      1.0  0.31980  0.59956  0.83588  1.0000
  H   H141      1.0  0.21394  0.51765  0.95675  1.0000
  H   H142      1.0  0.40922  0.43859  0.74153  1.0000
  H   H143      1.0  0.30563  0.59062  0.96736  1.0000
  H   H144      1.0  0.36636  0.42448  0.79955  1.0000
  H   H145      1.0  0.28572  0.60672  0.85399  1.0000
  Fe  Fe10      1.0  0.16844  0.59316  0.98124  1.0000
  C   C76       1.0  0.11568  0.47233  0.88900  1.0000
  S   S20       1.0  0.12476  0.54072  0.96250  1.0000
  C   C77       1.0  0.42971  0.44889  0.63064  1.0000
  S   S21       1.0  0.39614  0.61531  0.97763  1.0000
  C   C78       1.0  0.35073  0.46324  0.97084  1.0000
  Fe  Fe11      1.0  0.31870  0.52408  0.64906  1.0000
  S   S22       1.0  0.37328  0.55973  0.62648  1.0000
  S   S23       1.0  0.27511  0.49693  0.59975  1.0000
  Fe  Fe12      1.0  0.33892  0.54062  0.74461  1.0000
  S   S24       1.0  0.39407  0.57917  0.72847  1.0000
  S   S25       1.0  0.31871  0.52498  0.81316  1.0000
  Fe  Fe13      1.0  0.37164  0.59565  0.67462  1.0000
  C   C79       1.0  0.22709  0.47294  0.90441  1.0000
  Fe  Fe14      1.0  0.39074  0.53923  0.68201  1.0000
  C   C80       1.0  0.42333  0.37500  0.74195  1.0000
  S   S26       1.0  0.31652  0.56104  0.69516  1.0000
  S   S27       1.0  0.33605  0.49970  0.70049  1.0000
  C   C81       1.0  0.25583  0.51902  0.57502  1.0000
  H   H146      1.0  0.42809  0.36743  0.82801  1.0000
  H   H147      1.0  0.25513  0.48554  0.89634  1.0000
  H   H148      1.0  0.40980  0.54637  0.88570  1.0000
  H   H149      1.0  0.26669  0.56387  0.99722  1.0000
  C   C82       1.0  0.37620  0.58951  0.93177  1.0000
  C   C83       1.0  0.38671  0.60347  0.89011  1.0000
  C   C84       1.0  0.37040  0.58358  0.85319  1.0000
  C   C85       1.0  0.34330  0.54958  0.85784  1.0000
  C   C86       1.0  0.33394  0.53525  0.89943  1.0000
  C   C87       1.0  0.34996  0.55521  0.93625  1.0000
  S   S28       1.0  0.13318  0.60527  0.01980  1.0000
  H   H150      1.0  0.37797  0.59491  0.82127  1.0000
  H   H151      1.0  0.31379  0.50873  0.90329  1.0000
  H   H152      1.0  0.34150  0.54414  0.96811  1.0000
  H   H153      1.0  0.39827  0.46497  0.95570  1.0000
  H   H154      1.0  0.41519  0.51688  0.99427  1.0000
  H   H155      1.0  0.11034  0.46690  0.92414  1.0000
  H   H156      1.0  0.25185  0.51694  0.76607  1.0000
  C   C88       1.0  0.25118  0.57018  0.56507  1.0000
  H   H157      1.0  0.31626  0.61950  0.76218  1.0000
  C   C89       1.0  0.01566  0.45425  0.91527  1.0000
  C   C90       1.0  0.99358  0.47814  0.02325  1.0000
  C   C91       1.0  0.15471  0.49459  0.88108  1.0000
  H   H158      1.0  0.21408  0.48142  0.74191  1.0000
  H   H159      1.0  0.22995  0.41660  0.93731  1.0000
  H   H160      1.0  0.25964  0.59648  0.57335  1.0000
  H   H161      1.0  0.41237  0.40879  0.81054  1.0000
  H   H162      1.0  0.44104  0.58683  0.94475  1.0000
  H   H163      1.0  0.19375  0.44227  0.95860  1.0000
  C   C92       1.0  0.26658  0.54656  0.93188  1.0000
  C   C93       1.0  0.27688  0.57507  0.96497  1.0000
  H   H164      1.0  0.21446  0.44964  0.88372  1.0000
  H   H165      1.0  0.28044  0.55866  0.90138  1.0000
  H   H166      1.0  0.27606  0.52969  0.94442  1.0000
  H   H167      1.0  0.97357  0.41744  0.95449  1.0000
  H   H168      1.0  0.39003  0.33339  0.69860  1.0000
  H   H169      1.0  0.27220  0.62764  0.63831  1.0000
  N   N6        1.0  0.26019  0.62930  0.73175  1.0000
  C   C94       1.0  0.42200  0.47371  0.64596  1.0000
  Fe  Fe15      1.0  0.13857  0.52232  0.02287  1.0000
  H   H170      1.0  0.27636  0.58263  0.77928  1.0000
  H   H171      1.0  0.03335  0.44556  0.92794  1.0000
  H   H172      1.0  0.18269  0.46812  0.81147  1.0000
  H   H173      1.0  0.37908  0.47671  0.91175  1.0000
  H   H174      1.0  0.44829  0.35062  0.89286  1.0000
  C   C95       1.0  0.22672  0.52633  0.92469  1.0000
  H   H175      1.0  0.43346  0.36055  0.67880  1.0000
  S   S29       1.0  0.14282  0.47448  0.02166  1.0000
  H   H176      1.0  0.16636  0.46876  0.93155  1.0000
  Fe  Fe16      1.0  0.09037  0.55085  0.00560  1.0000
  C   C96       1.0  0.43111  0.54023  0.88731  1.0000
  C   C97       1.0  0.29383  0.61062  0.78423  1.0000
  H   H177      1.0  0.21481  0.62801  0.75799  1.0000
  H   H178      1.0  0.41232  0.43525  0.03101  1.0000
  C   C98       1.0  0.38790  0.45137  0.79509  1.0000
  C   C99       1.0  0.44792  0.50362  0.66563  1.0000
  H   H179      1.0  0.25364  0.52447  0.84658  1.0000
  H   H180      1.0  0.26640  0.59196  0.95566  1.0000
  H   H181      1.0  0.33615  0.47653  0.96254  1.0000
  N   N7        1.0  0.21320  0.49651  0.89373  1.0000
  H   H182      1.0  0.40283  0.37566  0.67779  1.0000
  C   C100      1.0  0.24021  0.59196  0.71812  1.0000
  C   C101      1.0  0.24008  0.43887  0.95957  1.0000
  H   H183      1.0  0.38408  0.63963  0.74230  1.0000
  S   S30       1.0  0.03706  0.54172  0.98503  1.0000
  H   H184      1.0  0.30808  0.63952  0.70114  1.0000
  C   C102      1.0  0.21022  0.58112  0.68477  1.0000
  C   C103      1.0  0.19732  0.54479  0.66795  1.0000
  H   H185      1.0  0.22207  0.46629  0.81543  1.0000
  H   H186      1.0  0.23547  0.42905  0.99337  1.0000
  C   C104      1.0  0.26702  0.55332  0.58493  1.0000
  H   H187      1.0  0.02206  0.46175  0.88078  1.0000
  H   H188      1.0  0.25844  0.58396  0.70553  1.0000
  H   H189      1.0  0.22727  0.57528  0.74676  1.0000
  H   H190      1.0  0.39239  0.53014  0.95904  1.0000
  H   H191      1.0  0.25352  0.62164  0.80124  1.0000
  H   H192      1.0  0.39604  0.46966  0.64260  1.0000
  H   H193      1.0  0.39566  0.46420  0.82700  1.0000
  C   C105      1.0  0.22177  0.45940  0.95164  1.0000
  H   H194      1.0  0.40028  0.37269  0.75840  1.0000
  H   H195      1.0  0.23242  0.48062  0.97524  1.0000
  H   H196      1.0  0.18785  0.58112  0.70044  1.0000
  H   H197      1.0  0.21773  0.59852  0.65648  1.0000
  H   H198      1.0  0.17702  0.53834  0.64287  1.0000
  H   H199      1.0  0.21885  0.54287  0.65302  1.0000
  H   H200      1.0  0.18590  0.52564  0.69458  1.0000
  C   C106      1.0  0.38533  0.47971  0.94672  1.0000
  H   H201      1.0  0.44171  0.39950  0.86921  1.0000
  H   H202      1.0  0.16333  0.45125  0.87977  1.0000
  C   C107      1.0  0.43427  0.43449  0.80164  1.0000
  C   C108      1.0  0.40864  0.51784  0.95980  1.0000
  H   H203      1.0  0.10236  0.48617  0.87752  1.0000
  H   H204      1.0  0.35505  0.46451  0.00634  1.0000
  C   C109      1.0  0.22306  0.50121  0.76764  1.0000
  H   H205      1.0  0.28780  0.56682  0.60802  1.0000
  H   H206      1.0  0.21171  0.51776  0.76131  1.0000
  H   H207      1.0  0.21770  0.53056  0.84095  1.0000
  C   C110      1.0  0.21142  0.48376  0.81182  1.0000
  H   H208      1.0  0.15858  0.50004  0.84587  1.0000
  C   C111      1.0  0.41873  0.45197  0.77291  1.0000
  C   C112      1.0  0.17415  0.47612  0.89719  1.0000
  H   H209      1.0  0.21960  0.54549  0.91331  1.0000
  H   H210      1.0  0.16384  0.51919  0.89833  1.0000
  H   H211      1.0  0.26853  0.45553  0.95493  1.0000
  C   C113      1.0  0.99641  0.50709  0.00231  1.0000
  C   C114      1.0  0.46322  0.45356  0.63520  1.0000
  H   H212      1.0  0.10483  0.44764  0.87129  1.0000
  S   S31       1.0  0.21201  0.62100  0.93178  1.0000
  H   H213      1.0  0.42006  0.51467  0.87210  1.0000
  C   C115      1.0  0.22481  0.51069  0.84868  1.0000
  H   H214      1.0  0.96790  0.53032  0.97687  1.0000
  C   C116      1.0  0.45365  0.41264  0.74020  1.0000
  H   H215      1.0  0.40950  0.42579  0.61550  1.0000
  H   H216      1.0  0.33465  0.43579  0.96155  1.0000
  C   C117      1.0  0.45803  0.57567  0.95103  1.0000
  H   H217      1.0  0.44739  0.42674  0.71558  1.0000
  H   H218      1.0  0.44284  0.44893  0.83258  1.0000
  C   C118      1.0  0.27468  0.63103  0.77670  1.0000
  H   H219      1.0  0.37831  0.46527  0.77459  1.0000
  S   S32       1.0  0.43970  0.53525  0.68698  1.0000
  H   H220      1.0  0.42562  0.55903  0.80357  1.0000
  H   H221      1.0  0.22271  0.64143  0.70335  1.0000
  H   H222      1.0  0.43190  0.35868  0.75876  1.0000
  C   C119      1.0  0.41179  0.36037  0.69649  1.0000
  H   H223      1.0  0.43814  0.47932  0.76641  1.0000
  C   C120      1.0  0.45100  0.38770  0.84526  1.0000
  H   H224      1.0  0.01676  0.47702  0.03049  1.0000
  N   N8        1.0  0.44119  0.53935  0.93383  1.0000
  C   C121      1.0  0.45025  0.55916  0.80979  1.0000
  H   H225      1.0  0.02030  0.47713  0.93402  1.0000
  H   H226      1.0  0.40717  0.62984  0.88634  1.0000
  C   C122      1.0  0.46286  0.49835  0.90734  1.0000
  C   C123      1.0  0.30739  0.61528  0.83060  1.0000
  H   H227      1.0  0.43573  0.47739  0.90320  1.0000
  H   H228      1.0  0.21335  0.53139  0.03586  1.0000
  C   C124      1.0  0.97795  0.42527  0.91983  1.0000
  C   C125      1.0  0.22889  0.50202  0.54463  1.0000
  H   H229      1.0  0.32766  0.63068  0.56743  1.0000
  H   H230      1.0  0.44348  0.56889  0.01999  1.0000
  N   N9        1.0  0.46396  0.43201  0.78232  1.0000
  H   H231      1.0  0.44686  0.53393  0.80026  1.0000
  H   H232      1.0  0.97480  0.40308  0.90111  1.0000
  C   C126      1.0  0.46052  0.56651  0.85747  1.0000
  H   H233      1.0  0.46565  0.59289  0.86422  1.0000
  H   H234      1.0  0.46450  0.51620  0.97292  1.0000
  H   H235      1.0  0.31408  0.64029  0.92048  1.0000
  C   C127      1.0  0.43755  0.85070  0.51549  1.0000
  Fe  Fe17      1.0  0.39399  0.78148  0.33389  1.0000
  S   S33       1.0  0.38038  0.82166  0.31415  1.0000
  H   H236      1.0  0.41306  0.73063  0.48681  1.0000
  Fe  Fe18      1.0  0.36925  0.77875  0.42686  1.0000
  S   S34       1.0  0.35293  0.81766  0.41393  1.0000
  S   S35       1.0  0.36567  0.75315  0.49162  1.0000
  Fe  Fe19      1.0  0.33151  0.78849  0.35206  1.0000
  S   S36       1.0  0.27965  0.77797  0.32663  1.0000
  Fe  Fe20      1.0  0.40320  0.84782  0.37777  1.0000
  H   H237      1.0  0.37926  0.86643  0.51946  1.0000
  S   S37       1.0  0.34364  0.74695  0.36777  1.0000
  H   H238      1.0  0.34194  0.73747  0.24666  1.0000
  C   C128      1.0  0.27631  0.66399  0.45566  1.0000
  C   C129      1.0  0.19768  0.68756  0.50466  1.0000
  C   C130      1.0  0.25653  0.70452  0.48180  1.0000
  H   H239      1.0  0.38168  0.90752  0.44012  1.0000
  H   H240      1.0  0.33613  0.79702  0.49900  1.0000
  H   H241      1.0  0.45004  0.67128  0.49590  1.0000
  C   C131      1.0  0.24157  0.74131  0.34464  1.0000
  C   C132      1.0  0.24104  0.71117  0.35778  1.0000
  C   C133      1.0  0.20973  0.68243  0.37183  1.0000
  C   C134      1.0  0.17917  0.68408  0.37313  1.0000
  C   C135      1.0  0.17992  0.71417  0.35978  1.0000
  C   C136      1.0  0.21087  0.74250  0.34524  1.0000
  H   H242      1.0  0.26463  0.70998  0.35696  1.0000
  H   H243      1.0  0.15647  0.71565  0.36071  1.0000
  H   H244      1.0  0.21111  0.76566  0.33496  1.0000
  H   H245      1.0  0.08891  0.65773  0.33205  1.0000
  C   C137      1.0  0.40862  0.68571  0.20819  1.0000
  C   C138      1.0  0.42175  0.71789  0.22859  1.0000
  H   H246      1.0  0.40131  0.72834  0.40761  1.0000
  C   C139      1.0  0.36075  0.67172  0.52268  1.0000
  H   H247      1.0  0.19166  0.68611  0.46945  1.0000
  C   C140      1.0  0.21772  0.69534  0.10419  1.0000
  S   S38       1.0  0.42096  0.81016  0.39467  1.0000
  H   H248      1.0  0.18341  0.66842  0.18537  1.0000
  H   H249      1.0  0.22592  0.72176  0.09272  1.0000
  C   C141      1.0  0.42061  0.94375  0.34804  1.0000
  C   C142      1.0  0.39505  0.92001  0.50828  1.0000
  C   C143      1.0  0.14709  0.67634  0.24914  1.0000
  H   H250      1.0  0.40151  0.73295  0.06691  1.0000
  H   H251      1.0  0.30336  0.70112  0.26891  1.0000
  H   H252      1.0  0.21482  0.64959  0.07622  1.0000
  H   H253      1.0  0.19127  0.66103  0.51376  1.0000
  H   H254      1.0  0.42352  0.68232  0.18325  1.0000
  H   H255      1.0  0.41566  0.88921  0.48579  1.0000
  H   H256      1.0  0.01346  0.64210  0.34221  1.0000
  H   H257      1.0  0.19536  0.67918  0.26317  1.0000
  H   H258      1.0  0.35863  0.67945  0.48915  1.0000
  C   C144      1.0  0.22338  0.67658  0.06691  1.0000
  C   C145      1.0  0.07674  0.69302  0.30024  1.0000
  H   H259      1.0  0.22540  0.64798  0.47850  1.0000
  C   C146      1.0  0.13421  0.66893  0.51419  1.0000
  H   H260      1.0  0.20937  0.65931  0.38220  1.0000
  H   H261      1.0  0.10328  0.71525  0.30548  1.0000
  C   C147      1.0  0.40287  0.72277  0.26131  1.0000
  S   S39       1.0  0.13961  0.64980  0.39222  1.0000
  H   H262      1.0  0.40209  0.92021  0.33204  1.0000
  N   N10       1.0  0.23485  0.71378  0.18417  1.0000
  C   C148      1.0  0.25527  0.70982  0.22061  1.0000
  H   H263      1.0  0.26637  0.70905  0.13439  1.0000
  H   H264      1.0  0.05784  0.70213  0.30241  1.0000
  C   C149      1.0  0.24829  0.75107  0.17255  1.0000
  C   C150      1.0  0.25546  0.77604  0.21049  1.0000
  C   C151      1.0  0.29459  0.72480  0.21207  1.0000
  H   H265      1.0  0.44677  0.73915  0.21905  1.0000
  C   C152      1.0  0.18648  0.69420  0.24380  1.0000
  H   H266      1.0  0.36460  0.93215  0.46412  1.0000
  C   C153      1.0  0.26933  0.81278  0.19405  1.0000
  C   C154      1.0  0.31400  0.72696  0.25384  1.0000
  H   H267      1.0  0.13669  0.69119  0.23245  1.0000
  H   H268      1.0  0.24410  0.68203  0.22869  1.0000
  H   H269      1.0  0.25291  0.72181  0.25073  1.0000
  H   H270      1.0  0.40980  0.69748  0.06835  1.0000
  H   H271      1.0  0.18312  0.70693  0.17668  1.0000
  C   C155      1.0  0.44219  0.94285  0.38042  1.0000
  C   C156      1.0  0.45530  0.68934  0.52307  1.0000
  H   H272      1.0  0.27278  0.76164  0.15364  1.0000
  H   H273      1.0  0.22979  0.75345  0.15047  1.0000
  H   H274      1.0  0.27537  0.77676  0.23277  1.0000
  H   H275      1.0  0.23144  0.76868  0.22865  1.0000
  H   H276      1.0  0.29855  0.70801  0.18949  1.0000
  H   H277      1.0  0.30678  0.75104  0.19800  1.0000
  H   H278      1.0  0.39758  0.67629  0.44088  1.0000
  C   C157      1.0  0.43052  0.71982  0.48440  1.0000
  C   C158      1.0  0.42264  0.72267  0.40338  1.0000
  H   H279      1.0  0.19794  0.72005  0.25805  1.0000
  H   H280      1.0  0.28472  0.72404  0.48466  1.0000
  C   C159      1.0  0.34141  0.79129  0.53104  1.0000
  H   H281      1.0  0.31575  0.66747  0.35618  1.0000
  H   H282      1.0  0.25015  0.81416  0.17231  1.0000
  H   H283      1.0  0.27431  0.83007  0.22199  1.0000
  H   H284      1.0  0.29416  0.82208  0.17643  1.0000
  C   C160      1.0  0.23811  0.75789  0.45763  1.0000
  H   H285      1.0  0.41850  0.70897  0.37223  1.0000
  H   H286      1.0  0.44335  0.74000  0.08369  1.0000
  H   H287      1.0  0.25619  0.75640  0.43449  1.0000
  H   H288      1.0  0.25116  0.68983  0.05745  1.0000
  S   S40       1.0  0.42091  0.76348  0.28700  1.0000
  H   H289      1.0  0.44773  0.74732  0.40139  1.0000
  H   H290      1.0  0.23127  0.66914  0.15306  1.0000
  H   H291      1.0  0.31196  0.74452  0.27706  1.0000
  S   S41       1.0  0.44104  0.90410  0.39624  1.0000
  C   C161      1.0  0.37659  0.65790  0.22081  1.0000
  C   C162      1.0  0.19653  0.69578  0.19544  1.0000
  H   H292      1.0  0.18945  0.68189  0.11098  1.0000
  H   H293      1.0  0.45161  0.81379  0.49319  1.0000
  H   H294      1.0  0.21101  0.74009  0.44727  1.0000
  C   C163      1.0  0.42305  0.70042  0.44081  1.0000
  C   C164      1.0  0.37010  0.91100  0.46999  1.0000
  H   H295      1.0  0.07559  0.68275  0.26733  1.0000
  C   C165      1.0  0.35770  0.66278  0.25350  1.0000
  H   H296      1.0  0.24923  0.70595  0.44783  1.0000
  C   C166      1.0  0.37064  0.69506  0.27339  1.0000
  C   C167      1.0  0.42128  0.72535  0.06112  1.0000
  C   C168      1.0  0.23880  0.69622  0.14489  1.0000
  H   H297      1.0  0.24040  0.80001  0.42051  1.0000
  C   C169      1.0  0.24484  0.74946  0.50418  1.0000
  H   H298      1.0  0.35591  0.69865  0.29823  1.0000
  H   H299      1.0  0.25841  0.66355  0.51997  1.0000
  C   C170      1.0  0.24453  0.79452  0.45446  1.0000
  H   H300      1.0  0.14058  0.67440  0.28403  1.0000
  C   C171      1.0  0.39276  0.66706  0.52763  1.0000
  H   H301      1.0  0.35444  0.66445  0.36198  1.0000
  H   H302      1.0  0.27069  0.66781  0.42165  1.0000
  H   H303      1.0  0.22628  0.79764  0.47562  1.0000
  H   H304      1.0  0.27169  0.81341  0.46383  1.0000
  C   C172      1.0  0.06898  0.66544  0.33450  1.0000
  H   H305      1.0  0.44353  0.69402  0.43393  1.0000
  C   C173      1.0  0.25229  0.66825  0.48666  1.0000
  H   H306      1.0  0.17598  0.72017  0.52395  1.0000
  C   C174      1.0  0.32832  0.65587  0.37558  1.0000
  H   H307      1.0  0.30383  0.68286  0.46337  1.0000
  N   N11       1.0  0.23567  0.71276  0.51274  1.0000
  H   H308      1.0  0.07194  0.67737  0.36676  1.0000
  H   H309      1.0  0.13107  0.67315  0.47939  1.0000
  H   H310      1.0  0.41885  0.94476  0.50045  1.0000
  H   H311      1.0  0.34521  0.88696  0.47668  1.0000
  C   C175      1.0  0.40406  0.89136  0.51634  1.0000
  H   H312      1.0  0.45705  0.74261  0.48153  1.0000
  N   N12       1.0  0.42780  0.69939  0.52457  1.0000
  H   H313      1.0  0.23096  0.75753  0.52652  1.0000
  H   H314      1.0  0.33148  0.66530  0.40927  1.0000
  H   H315      1.0  0.27282  0.76706  0.51112  1.0000
  H   H316      1.0  0.41189  0.83599  0.49925  1.0000
  H   H317      1.0  0.38228  0.92360  0.53677  1.0000
  H   H318      1.0  0.39030  0.64771  0.50359  1.0000
  C   C176      1.0  0.35562  0.77014  0.53669  1.0000
  H   H319      1.0  0.13441  0.64988  0.23575  1.0000
  H   H320      1.0  0.30669  0.64705  0.07153  1.0000
  C   C177      1.0  0.45084  0.82585  0.52406  1.0000
  H   H321      1.0  0.11562  0.67320  0.53305  1.0000
  C   C178      1.0  0.17129  0.69381  0.52922  1.0000
  H   H322      1.0  0.45535  0.87036  0.49222  1.0000
  N   N13       1.0  0.41314  0.71949  0.93473  1.0000
  Fe  Fe21      1.0  0.39705  0.85732  0.78824  1.0000
  S   S42       1.0  0.34264  0.84395  0.77067  1.0000
  C   C179      1.0  0.25301  0.68191  0.74762  1.0000
  Fe  Fe22      1.0  0.37865  0.78240  0.78287  1.0000
  S   S43       1.0  0.32387  0.76339  0.76186  1.0000
  S   S44       1.0  0.39489  0.74445  0.80156  1.0000
  Fe  Fe23      1.0  0.34664  0.81060  0.71988  1.0000
  S   S45       1.0  0.32821  0.81388  0.65271  1.0000
  Fe  Fe24      1.0  0.32426  0.79739  0.81447  1.0000
  S   S46       1.0  0.27878  0.77523  0.86130  1.0000
  S   S47       1.0  0.40178  0.82597  0.73517  1.0000
  S   S48       1.0  0.37831  0.81440  0.83741  1.0000
  C   C180      1.0  0.39131  0.71756  0.75913  1.0000
  C   C181      1.0  0.38824  0.68569  0.76848  1.0000
  C   C182      1.0  0.38646  0.66422  0.73491  1.0000
  C   C183      1.0  0.38837  0.67490  0.69198  1.0000
  C   C184      1.0  0.39121  0.70671  0.68256  1.0000
  C   C185      1.0  0.39219  0.72786  0.71617  1.0000
  H   H323      1.0  0.38713  0.67752  0.80164  1.0000
  H   H324      1.0  0.20877  0.67753  0.78292  1.0000
  H   H325      1.0  0.39254  0.71501  0.64939  1.0000
  H   H326      1.0  0.39453  0.75250  0.70896  1.0000
  C   C186      1.0  0.33963  0.79716  0.60891  1.0000
  C   C187      1.0  0.35428  0.77633  0.61486  1.0000
  H   H327      1.0  0.35934  0.77061  0.64726  1.0000
  H   H328      1.0  0.45563  0.77214  0.93669  1.0000
  C   C188      1.0  0.21760  0.68540  0.92641  1.0000
  C   C189      1.0  0.23274  0.71938  0.91037  1.0000
  C   C190      1.0  0.26058  0.73240  0.88103  1.0000
  C   C191      1.0  0.27317  0.71104  0.86790  1.0000
  C   C192      1.0  0.25773  0.67696  0.88342  1.0000
  H   H329      1.0  0.41784  0.89742  0.70791  1.0000
  H   H330      1.0  0.22283  0.73569  0.92071  1.0000
  H   H331      1.0  0.29484  0.72086  0.84583  1.0000
  C   C193      1.0  0.36184  0.76247  0.57874  1.0000
  C   C194      1.0  0.40873  0.77520  0.93358  1.0000
  H   H332      1.0  0.39880  0.93452  0.78133  1.0000
  H   H333      1.0  0.38653  0.70519  0.87341  1.0000
  H   H334      1.0  0.41443  0.86436  0.64418  1.0000
  H   H335      1.0  0.45459  0.72617  0.01123  1.0000
  C   C195      1.0  0.40403  0.71275  0.98210  1.0000
  H   H336      1.0  0.25052  0.73993  0.66334  1.0000
  C   C196      1.0  0.43240  0.72129  0.56356  1.0000
  H   H337      1.0  0.33190  0.65873  0.97274  1.0000
  H   H338      1.0  0.44156  0.82081  0.89451  1.0000
  H   H339      1.0  0.43115  0.68294  0.93982  1.0000
  H   H340      1.0  0.23095  0.68174  0.56930  1.0000
  H   H341      1.0  0.43331  0.76031  0.88677  1.0000
  H   H342      1.0  0.38225  0.95235  0.64438  1.0000
  C   C197      1.0  0.33318  0.80452  0.56697  1.0000
  H   H343      1.0  0.23144  0.69558  0.64728  1.0000
  C   C198      1.0  0.42255  0.89186  0.63902  1.0000
  C   C199      1.0  0.25124  0.72242  0.63876  1.0000
  H   H344      1.0  0.26340  0.75934  0.58822  1.0000
  H   H345      1.0  0.29370  0.65811  0.78559  1.0000
  H   H346      1.0  0.40725  0.92062  0.59698  1.0000
  H   H347      1.0  0.32484  0.70475  0.64489  1.0000
  C   C200      1.0  0.40886  0.90308  0.67702  1.0000
  H   H348      1.0  0.26811  0.68738  0.77795  1.0000
  H   H349      1.0  0.27391  0.71563  0.55913  1.0000
  C   C201      1.0  0.24381  0.73191  0.59401  1.0000
  C   C202      1.0  0.32097  0.66232  0.94215  1.0000
  C   C203      1.0  0.42920  0.75698  0.92233  1.0000
  H   H350      1.0  0.38243  0.96480  0.70003  1.0000
  H   H351      1.0  0.32165  0.82047  0.56229  1.0000
  H   H352      1.0  0.17229  0.68902  0.56426  1.0000
  H   H353      1.0  0.33256  0.67096  0.62712  1.0000
  H   H354      1.0  0.34984  0.71726  0.93949  1.0000
  C   C204      1.0  0.23001  0.66400  0.91291  1.0000
  H   H355      1.0  0.27050  0.69855  0.72149  1.0000
  C   C205      1.0  0.42502  0.95619  0.78241  1.0000
  H   H356      1.0  0.27751  0.72536  0.63974  1.0000
  N   N14       1.0  0.42710  0.89616  0.55484  1.0000
  H   H357      1.0  0.26753  0.66064  0.87282  1.0000
  H   H358      1.0  0.34773  0.95825  0.66401  1.0000
  H   H359      1.0  0.39315  0.68484  0.98934  1.0000
  S   S49       1.0  0.44652  0.90888  0.79843  1.0000
  C   C206      1.0  0.44844  0.70757  0.87745  1.0000
  H   H360      1.0  0.23875  0.72004  0.76332  1.0000
  H   H361      1.0  0.42565  0.70564  0.59371  1.0000
  H   H362      1.0  0.37273  0.74604  0.58354  1.0000
  H   H363      1.0  0.38023  0.87537  0.59375  1.0000
  H   H364      1.0  0.21808  0.72985  0.59496  1.0000
  H   H365      1.0  0.38002  0.88902  0.67708  1.0000
  C   C207      1.0  0.43421  0.73322  0.01439  1.0000
  H   H366      1.0  0.30528  0.68175  0.59563  1.0000
  C   C208      1.0  0.22568  0.69224  0.75522  1.0000
  C   C209      1.0  0.43368  0.86635  0.55835  1.0000
  C   C210      1.0  0.34675  0.69577  0.91944  1.0000
  S   S50       1.0  0.38693  0.64847  0.65005  1.0000
  H   H367      1.0  0.42549  0.68735  0.86004  1.0000
  H   H368      1.0  0.19620  0.67574  0.94893  1.0000
  H   H369      1.0  0.41399  0.73103  0.56209  1.0000
  C   C211      1.0  0.31303  0.67924  0.62906  1.0000
  C   C212      1.0  0.43141  0.81418  0.92809  1.0000
  H   H370      1.0  0.32697  0.64267  0.83670  1.0000
  H   H371      1.0  0.41164  0.84422  0.57526  1.0000
  C   C213      1.0  0.45279  0.95062  0.78973  1.0000
  C   C214      1.0  0.45867  0.67127  0.56436  1.0000
  C   C215      1.0  0.38134  0.69702  0.90775  1.0000
  H   H372      1.0  0.38654  0.76680  0.91088  1.0000
  H   H373      1.0  0.46530  0.75538  0.64012  1.0000
  H   H374      1.0  0.37618  0.67003  0.90756  1.0000
  H   H375      1.0  0.33430  0.69744  0.88892  1.0000
  H   H376      1.0  0.38314  0.71798  0.99086  1.0000
  C   C216      1.0  0.40795  0.89632  0.59506  1.0000
  H   H377      1.0  0.30695  0.67683  0.71475  1.0000
  H   H378      1.0  0.29687  0.66270  0.94987  1.0000
  H   H379      1.0  0.41570  0.82653  0.93440  1.0000
  H   H380      1.0  0.41898  0.93119  0.67567  1.0000
  H   H381      1.0  0.46435  0.68751  0.59347  1.0000
  H   H382      1.0  0.20946  0.68770  0.72591  1.0000
  H   H383      1.0  0.39922  0.77017  0.96735  1.0000
  C   C217      1.0  0.29047  0.65029  0.70197  1.0000
  C   C218      1.0  0.37606  0.96801  0.66612  1.0000
  C   C219      1.0  0.24619  0.70904  0.55834  1.0000
  C   C220      1.0  0.43977  0.70888  0.92579  1.0000
  H   H384      1.0  0.45011  0.78018  0.61072  1.0000
  C   C221      1.0  0.28133  0.65273  0.65425  1.0000
  H   H385      1.0  0.26124  0.66014  0.65138  1.0000
  H   H386      1.0  0.39004  0.65435  0.55946  1.0000
  H   H387      1.0  0.45712  0.73247  0.86075  1.0000
  H   H388      1.0  0.46485  0.72665  0.94192  1.0000
  H   H389      1.0  0.44604  0.76132  0.00903  1.0000
  H   H390      1.0  0.43441  0.64648  0.57033  1.0000
  H   H391      1.0  0.45352  0.82473  0.95122  1.0000
  C   C222      1.0  0.23604  0.64361  0.73453  1.0000
  H   H392      1.0  0.36209  0.69145  0.54499  1.0000
  H   H393      1.0  0.45552  0.95183  0.55509  1.0000
  H   H394      1.0  0.45696  0.87359  0.57889  1.0000
  H   H395      1.0  0.45125  0.90690  0.64052  1.0000
  C   C223      1.0  0.46071  0.93017  0.55308  1.0000
  H   H396      1.0  0.43330  0.80510  0.54665  1.0000
  H   H397      1.0  0.20792  0.67610  0.03832  1.0000
  C   C224      1.0  0.50939  0.30044  0.47245  1.0000
  Fe  Fe25      1.0  0.52845  0.17654  0.31560  1.0000
  S   S51       1.0  0.53479  0.13098  0.30124  1.0000
  C   C225      1.0  0.47802  0.06855  0.51182  1.0000
  Fe  Fe26      1.0  0.52451  0.16065  0.41377  1.0000
  S   S52       1.0  0.53210  0.11534  0.40549  1.0000
  S   S53       1.0  0.51995  0.18066  0.47895  1.0000
  Fe  Fe27      1.0  0.57221  0.14922  0.35670  1.0000
  S   S54       1.0  0.62362  0.15188  0.34879  1.0000
  Fe  Fe28      1.0  0.49375  0.10100  0.35117  1.0000
  H   H398      1.0  0.65153  0.24530  0.45397  1.0000
  S   S55       1.0  0.56777  0.19540  0.36951  1.0000
  H   H399      1.0  0.52284  0.29594  0.38512  1.0000
  H   H400      1.0  0.52154  0.98968  0.34695  1.0000
  H   H401      1.0  0.55268  0.30177  0.15426  1.0000
  C   C226      1.0  0.66197  0.18976  0.36359  1.0000
  C   C227      1.0  0.69287  0.18895  0.36580  1.0000
  C   C228      1.0  0.72393  0.21831  0.37799  1.0000
  C   C229      1.0  0.72474  0.24918  0.38649  1.0000
  C   C230      1.0  0.66254  0.22048  0.37275  1.0000
  H   H402      1.0  0.69274  0.16538  0.35885  1.0000
  H   H403      1.0  0.74758  0.21723  0.38033  1.0000
  H   H404      1.0  0.63899  0.22153  0.37105  1.0000
  C   C231      1.0  0.54092  0.17419  0.52357  1.0000
  H   H405      1.0  0.61809  0.28961  0.46650  1.0000
  H   H406      1.0  0.62248  0.23521  0.52620  1.0000
  H   H407      1.0  0.48649  0.02881  0.40533  1.0000
  S   S56       1.0  0.54615  0.21823  0.26283  1.0000
  H   H408      1.0  0.52319  0.07144  0.23245  1.0000
  H   H409      1.0  0.56214  0.14854  0.48727  1.0000
  C   C232      1.0  0.50189  0.27476  0.18282  1.0000
  C   C233      1.0  0.52819  0.23969  0.23311  1.0000
  C   C234      1.0  0.49397  0.23219  0.23858  1.0000
  S   S57       1.0  0.48377  0.29536  0.15154  1.0000
  S   S58       1.0  0.48382  0.14521  0.36152  1.0000
  C   C235      1.0  0.69400  0.25032  0.38351  1.0000
  H   H410      1.0  0.69903  0.24852  0.48648  1.0000
  H   H411      1.0  0.68323  0.29858  0.29562  1.0000
  C   C236      1.0  0.60562  0.04299  0.31452  1.0000
  H   H412      1.0  0.55895  0.25561  0.36139  1.0000
  H   H413      1.0  0.60616  0.05093  0.40257  1.0000
  H   H414      1.0  0.50175  0.08478  0.49251  1.0000
  H   H415      1.0  0.73598  0.25760  0.20638  1.0000
  H   H416      1.0  0.50291  0.24983  0.38481  1.0000
  H   H417      1.0  0.69019  0.28669  0.19480  1.0000
  H   H418      1.0  0.65061  0.15243  0.48289  1.0000
  H   H419      1.0  0.69438  0.27402  0.38988  1.0000
  S   S59       1.0  0.76461  0.28528  0.40129  1.0000
  H   H420      1.0  0.54409  0.27665  0.32478  1.0000
  C   C237      1.0  0.51784  0.03633  0.28477  1.0000
  C   C238      1.0  0.53628  0.28260  0.17777  1.0000
  H   H421      1.0  0.54822  0.25527  0.44086  1.0000
  C   C239      1.0  0.53249  0.26955  0.51651  1.0000
  H   H422      1.0  0.55277  0.06494  0.44630  1.0000
  C   C240      1.0  0.72698  0.24487  0.23834  1.0000
  H   H423      1.0  0.47740  0.21270  0.26170  1.0000
  H   H424      1.0  0.49977  0.00885  0.29245  1.0000
  C   C241      1.0  0.66893  0.08751  0.30096  1.0000
  H   H425      1.0  0.63144  0.26530  0.10043  1.0000
  N   N15       1.0  0.56864  0.03402  0.32315  1.0000
  H   H426      1.0  0.57944  0.08071  0.35571  1.0000
  C   C242      1.0  0.61932  0.26763  0.45254  1.0000
  H   H427      1.0  0.61545  0.03276  0.34017  1.0000
  H   H428      1.0  0.46714  0.04134  0.50197  1.0000
  C   C243      1.0  0.63300  0.08191  0.31147  1.0000
  N   N16       1.0  0.66693  0.24149  0.23560  1.0000
  C   C244      1.0  0.64489  0.25094  0.26266  1.0000
  C   C245      1.0  0.64981  0.20283  0.23152  1.0000
  H   H429      1.0  0.71515  0.21672  0.23400  1.0000
  C   C246      1.0  0.67445  0.25841  0.19158  1.0000
  C   C247      1.0  0.64287  0.25005  0.16248  1.0000
  H   H430      1.0  0.60665  0.03042  0.28408  1.0000
  H   H431      1.0  0.61178  0.28968  0.27481  1.0000
  C   C248      1.0  0.60954  0.18194  0.23060  1.0000
  C   C249      1.0  0.59625  0.14469  0.21750  1.0000
  H   H432      1.0  0.53867  0.04526  0.36778  1.0000
  H   H433      1.0  0.50310  0.99143  0.50699  1.0000
  H   H434      1.0  0.68066  0.19128  0.45481  1.0000
  H   H435      1.0  0.63859  0.23675  0.29402  1.0000
  H   H436      1.0  0.61944  0.24250  0.24705  1.0000
  H   H437      1.0  0.65963  0.19613  0.20231  1.0000
  H   H438      1.0  0.65698  0.19178  0.25950  1.0000
  H   H439      1.0  0.56179  0.01938  0.41639  1.0000
  C   C250      1.0  0.65050  0.26635  0.47081  1.0000
  C   C251      1.0  0.50667  0.04389  0.24121  1.0000
  H   H440      1.0  0.69069  0.25118  0.17227  1.0000
  H   H441      1.0  0.62466  0.25631  0.17863  1.0000
  H   H442      1.0  0.62910  0.22252  0.15346  1.0000
  C   C252      1.0  0.48094  0.24960  0.21352  1.0000
  H   H443      1.0  0.67000  0.29860  0.12645  1.0000
  H   H444      1.0  0.53803  0.24804  0.51576  1.0000
  C   C253      1.0  0.67199  0.17938  0.48719  1.0000
  H   H445      1.0  0.59952  0.18177  0.26343  1.0000
  H   H446      1.0  0.59812  0.19284  0.20823  1.0000
  H   H447      1.0  0.56747  0.13066  0.21613  1.0000
  H   H448      1.0  0.60603  0.14357  0.18496  1.0000
  H   H449      1.0  0.60462  0.13185  0.24155  1.0000
  C   C254      1.0  0.55409  0.27737  0.35801  1.0000
  C   C255      1.0  0.46848  0.00534  0.38888  1.0000
  H   H450      1.0  0.62189  0.27110  0.41687  1.0000
  H   H451      1.0  0.68795  0.11555  0.29936  1.0000
  H   H452      1.0  0.69618  0.24396  0.29280  1.0000
  C   C256      1.0  0.65910  0.19929  0.51340  1.0000
  H   H453      1.0  0.56042  0.03424  0.25403  1.0000
  C   C257      1.0  0.75929  0.25710  0.26665  1.0000
  C   C258      1.0  0.56638  0.30272  0.52982  1.0000
  H   H454      1.0  0.63604  0.19703  0.49654  1.0000
  C   C259      1.0  0.57934  0.04619  0.40538  1.0000
  H   H455      1.0  0.57163  0.07375  0.27989  1.0000
  C   C260      1.0  0.54927  0.26513  0.20275  1.0000
  H   H456      1.0  0.77839  0.25230  0.24996  1.0000
  C   C261      1.0  0.70103  0.25405  0.25906  1.0000
  H   H457      1.0  0.58936  0.06500  0.47143  1.0000
  H   H458      1.0  0.77174  0.28508  0.27331  1.0000
  C   C262      1.0  0.56605  0.05260  0.36201  1.0000
  H   H459      1.0  0.62654  0.09517  0.28594  1.0000
  C   C263      1.0  0.57948  0.06985  0.44069  1.0000
  H   H460      1.0  0.67069  0.26305  0.10105  1.0000
  H   H461      1.0  0.66908  0.30583  0.24378  1.0000
  H   H462      1.0  0.63521  0.09459  0.34288  1.0000
  H   H463      1.0  0.66864  0.07602  0.26918  1.0000
  H   H464      1.0  0.67760  0.07597  0.32649  1.0000
  H   H465      1.0  0.51450  0.05226  0.30924  1.0000
  C   C264      1.0  0.54074  0.27541  0.43824  1.0000
  H   H466      1.0  0.59491  0.24324  0.45978  1.0000
  H   H467      1.0  0.50825  0.02770  0.21543  1.0000
  H   H468      1.0  0.59661  0.09730  0.43145  1.0000
  C   C265      1.0  0.55635  0.04537  0.28401  1.0000
  H   H469      1.0  0.69395  0.17915  0.50401  1.0000
  H   H470      1.0  0.47935  0.03802  0.24341  1.0000
  H   H471      1.0  0.57573  0.27106  0.19819  1.0000
  H   H472      1.0  0.71523  0.28239  0.26198  1.0000
  H   H473      1.0  0.62485  0.28037  0.32637  1.0000
  C   C266      1.0  0.65450  0.27054  0.12009  1.0000
  H   H474      1.0  0.48774  0.21863  0.44859  1.0000
  H   H475      1.0  0.75240  0.24292  0.29784  1.0000
  H   H476      1.0  0.71613  0.30582  0.50939  1.0000
  H   H477      1.0  0.53506  0.98314  0.29610  1.0000
  H   H478      1.0  0.53071  0.97746  0.48342  1.0000
  H   H479      1.0  0.57897  0.30196  0.36201  1.0000
  H   H480      1.0  0.56514  0.30058  0.44094  1.0000
  N   N17       1.0  0.51584  0.27067  0.47423  1.0000
  C   C267      1.0  0.66067  0.28967  0.27341  1.0000
  H   H481      1.0  0.57607  0.98708  0.37851  1.0000
  C   C268      1.0  0.68801  0.23739  0.51886  1.0000
  C   C269      1.0  0.55975  0.15731  0.51875  1.0000
  H   H482      1.0  0.70955  0.23679  0.53642  1.0000
  C   C270      1.0  0.63426  0.29613  0.29636  1.0000
  H   H483      1.0  0.64281  0.28006  0.53460  1.0000
  C   C271      1.0  0.54512  0.99546  0.32820  1.0000
  C   C272      1.0  0.52741  0.27424  0.39126  1.0000
  H   H484      1.0  0.67414  0.29102  0.46263  1.0000
  C   C273      1.0  0.48245  0.23685  0.46662  1.0000
  C   C274      1.0  0.64711  0.25990  0.52036  1.0000
  H   H485      1.0  0.49656  0.30031  0.44148  1.0000
  H   H486      1.0  0.47655  0.20590  0.52476  1.0000
  C   C275      1.0  0.48600  0.30151  0.50828  1.0000
  H   H487      1.0  0.50712  0.25969  0.05175  1.0000
  C   C276      1.0  0.53860  0.18599  0.56464  1.0000
  Fe  Fe29      1.0  0.52329  0.11050  0.77400  1.0000
  S   S60       1.0  0.57636  0.11992  0.75721  1.0000
  H   H488      1.0  0.68467  0.23851  0.60230  1.0000
  Fe  Fe30      1.0  0.54866  0.18778  0.77308  1.0000
  S   S61       1.0  0.60271  0.20277  0.75361  1.0000
  S   S62       1.0  0.53781  0.22952  0.79173  1.0000
  Fe  Fe31      1.0  0.57714  0.15777  0.70845  1.0000
  S   S63       1.0  0.59403  0.15615  0.63993  1.0000
  Fe  Fe32      1.0  0.59728  0.16445  0.80410  1.0000
  S   S64       1.0  0.63819  0.17857  0.85659  1.0000
  S   S65       1.0  0.52340  0.14653  0.72315  1.0000
  S   S66       1.0  0.54390  0.15123  0.82548  1.0000
  H   H489      1.0  0.53049  0.27052  0.95526  1.0000
  H   H490      1.0  0.54563  0.21619  0.88219  1.0000
  H   H491      1.0  0.58849  0.27580  0.56464  1.0000
  C   C277      1.0  0.55477  0.18065  0.60071  1.0000
  C   C278      1.0  0.57296  0.16309  0.59592  1.0000
  H   H492      1.0  0.55298  0.18996  0.63221  1.0000
  H   H493      1.0  0.55701  0.04151  0.64868  1.0000
  C   C279      1.0  0.51454  0.24705  0.67112  1.0000
  C   C280      1.0  0.52196  0.23217  0.70654  1.0000
  C   C281      1.0  0.52862  0.24777  0.74714  1.0000
  C   C282      1.0  0.52829  0.27845  0.75226  1.0000
  C   C283      1.0  0.48296  0.23602  0.99003  1.0000
  H   H494      1.0  0.52236  0.20861  0.70241  1.0000
  C   C284      1.0  0.50179  0.15697  0.92189  1.0000
  H   H495      1.0  0.60579  0.29446  0.72157  1.0000
  C   C285      1.0  0.70997  0.26515  0.91917  1.0000
  C   C286      1.0  0.68665  0.23058  0.90816  1.0000
  C   C287      1.0  0.66696  0.22232  0.86982  1.0000
  C   C288      1.0  0.67062  0.24904  0.84282  1.0000
  C   C289      1.0  0.69419  0.28347  0.85348  1.0000
  H   H496      1.0  0.72533  0.27114  0.94843  1.0000
  H   H497      1.0  0.68396  0.21012  0.92931  1.0000
  H   H498      1.0  0.65570  0.24320  0.81338  1.0000
  C   C290      1.0  0.50891  0.04262  0.64874  1.0000
  C   C291      1.0  0.52150  0.29367  0.71671  1.0000
  N   N18       1.0  0.67737  0.25979  0.54242  1.0000
  H   H499      1.0  0.64105  0.22130  0.58690  1.0000
  H   H500      1.0  0.56923  0.21055  0.95895  1.0000
  H   H501      1.0  0.51447  0.09284  0.63619  1.0000
  H   H502      1.0  0.61886  0.26642  0.89527  1.0000
  H   H503      1.0  0.47230  0.17233  0.96114  1.0000
  C   C292      1.0  0.64708  0.25106  0.66272  1.0000
  H   H504      1.0  0.51458  0.26383  0.54415  1.0000
  N   N19       1.0  0.51321  0.21902  0.93199  1.0000
  H   H505      1.0  0.51958  0.26500  0.86227  1.0000
  H   H506      1.0  0.63038  0.24522  0.93627  1.0000
  H   H507      1.0  0.52915  0.16445  0.91548  1.0000
  H   H508      1.0  0.49908  0.02436  0.67658  1.0000
  H   H509      1.0  0.55882  0.07614  0.67947  1.0000
  H   H510      1.0  0.49860  0.10060  0.56759  1.0000
  C   C293      1.0  0.49996  0.18371  0.95147  1.0000
  C   C294      1.0  0.66639  0.24581  0.58770  1.0000
  C   C295      1.0  0.71419  0.29170  0.89143  1.0000
  H   H511      1.0  0.64774  0.26926  0.68715  1.0000
  H   H512      1.0  0.58959  0.13807  0.55093  1.0000
  C   C296      1.0  0.66217  0.26970  0.61990  1.0000
  H   H513      1.0  0.58530  0.25585  0.96414  1.0000
  H   H514      1.0  0.49961  0.02739  0.61859  1.0000
  C   C297      1.0  0.49399  0.25106  0.87836  1.0000
  H   H515      1.0  0.51398  0.18523  0.98206  1.0000
  H   H516      1.0  0.60289  0.22079  0.89178  1.0000
  C   C298      1.0  0.49288  0.01288  0.78649  1.0000
  C   C299      1.0  0.48445  0.12139  0.94310  1.0000
  C   C300      1.0  0.60854  0.30665  0.68932  1.0000
  C   C301      1.0  0.51708  0.24351  0.96749  1.0000
  C   C302      1.0  0.74079  0.30132  0.56670  1.0000
  H   H517      1.0  0.53428  0.24327  0.99354  1.0000
  C   C303      1.0  0.49569  0.06848  0.65256  1.0000
  H   H518      1.0  0.55792  0.25840  0.89758  1.0000
  H   H519      1.0  0.66220  0.23946  0.67562  1.0000
  H   H520      1.0  0.61965  0.23044  0.65813  1.0000
  H   H521      1.0  0.50330  0.28825  0.01354  1.0000
  H   H522      1.0  0.52414  0.19914  0.56873  1.0000
  H   H523      1.0  0.55959  0.07817  0.62104  1.0000
  C   C304      1.0  0.54851  0.06080  0.64950  1.0000
  H   H524      1.0  0.64455  0.27824  0.60677  1.0000
  S   S67       1.0  0.50757  0.29752  0.63136  1.0000
  H   H525      1.0  0.68765  0.29281  0.62707  1.0000
  H   H526      1.0  0.49796  0.07553  0.68738  1.0000
  H   H527      1.0  0.50942  0.23500  0.63971  1.0000
  C   C305      1.0  0.70772  0.29612  0.54292  1.0000
  C   C306      1.0  0.57548  0.15159  0.55484  1.0000
  H   H528      1.0  0.51907  0.03454  0.78836  1.0000
  C   C307      1.0  0.54805  0.23211  0.91084  1.0000
  C   C308      1.0  0.51454  0.27789  0.67619  1.0000
  H   H529      1.0  0.53358  0.29062  0.78358  1.0000
  C   C309      1.0  0.60928  0.24233  0.91430  1.0000
  C   C310      1.0  0.57735  0.23467  0.94065  1.0000
  H   H530      1.0  0.65091  0.18646  0.54544  1.0000
  C   C311      1.0  0.46725  0.11667  0.62898  1.0000
  S   S68       1.0  0.47119  0.06048  0.77575  1.0000
  H   H531      1.0  0.49737  0.12222  0.97428  1.0000
  H   H532      1.0  0.69700  0.30376  0.83206  1.0000
  H   H533      1.0  0.63834  0.30390  0.00135  1.0000
  H   H534      1.0  0.49550  0.12892  0.63433  1.0000
  H   H535      1.0  0.75412  0.29107  0.54669  1.0000
  H   H536      1.0  0.60992  0.30762  0.81542  1.0000
  H   H537      1.0  0.48759  0.20091  0.87015  1.0000
  H   H538      1.0  0.73483  0.28818  0.59855  1.0000
  H   H539      1.0  0.60383  0.28737  0.66406  1.0000
  C   C312      1.0  0.48762  0.21651  0.89793  1.0000
  H   H540      1.0  0.49722  0.30283  0.54071  1.0000
  H   H541      1.0  0.48663  0.10303  0.92135  1.0000
  H   H542      1.0  0.48863  0.15453  0.89047  1.0000
  H   H543      1.0  0.47048  0.16631  0.63264  1.0000
  C   C313      1.0  0.48734  0.07307  0.55989  1.0000
  H   H544      1.0  0.50813  0.06672  0.56480  1.0000
  C   C314      1.0  0.58195  0.29617  0.57051  1.0000
  C   C315      1.0  0.48670  0.97910  0.79139  1.0000
  H   H545      1.0  0.46741  0.22922  0.81731  1.0000
  H   H546      1.0  0.49294  0.26794  0.90343  1.0000
  H   H547      1.0  0.56340  0.28807  0.59783  1.0000
  C   C316      1.0  0.46658  0.24503  0.84420  1.0000
  C   C317      1.0  0.49033  0.26159  0.02648  1.0000
  H   H548      1.0  0.47185  0.27011  0.83055  1.0000
  H   H549      1.0  0.52968  0.98105  0.54138  1.0000
  H   H550      1.0  0.60376  0.30268  0.03279  1.0000
  H   H551      1.0  0.46951  0.20991  0.00460  1.0000
  H   H552      1.0  0.83122  0.30471  0.96568  1.0000
  Fe  Fe33      1.0  0.76574  0.35366  0.06617  1.0000
  H   H553      1.0  0.92283  0.51884  0.33205  1.0000
  H   H554      1.0  0.83192  0.38193  0.19303  1.0000
  S   S69       1.0  0.52640  0.39339  0.12108  1.0000
  Fe  Fe34      1.0  0.57377  0.40750  0.08092  1.0000
  S   S70       1.0  0.62696  0.44606  0.10510  1.0000
  H   H555      1.0  0.93014  0.50076  0.17289  1.0000
  H   H556      1.0  0.53446  0.32531  0.47280  1.0000
  H   H557      1.0  0.66471  0.35633  0.14375  1.0000
  Fe  Fe35      1.0  0.75808  0.38889  0.35186  1.0000
  S   S71       1.0  0.80065  0.37651  0.34935  1.0000
  S   S72       1.0  0.73425  0.39595  0.29067  1.0000
  Fe  Fe36      1.0  0.75616  0.38741  0.45059  1.0000
  S   S73       1.0  0.80000  0.37582  0.45466  1.0000
  S   S74       1.0  0.72536  0.38051  0.51244  1.0000
  Fe  Fe37      1.0  0.82628  0.41561  0.40196  1.0000
  S   S75       1.0  0.88284  0.45412  0.38360  1.0000
  Fe  Fe38      1.0  0.77098  0.33827  0.40155  1.0000
  H   H558      1.0  0.69992  0.39891  0.05755  1.0000
  S   S76       1.0  0.78456  0.43035  0.40186  1.0000
  S   S77       1.0  0.72630  0.34754  0.40005  1.0000
  H   H559      1.0  0.64800  0.33594  0.04242  1.0000
  C   C318      1.0  0.92268  0.46347  0.40876  1.0000
  C   C319      1.0  0.92475  0.45642  0.45248  1.0000
  H   H560      1.0  0.95532  0.48326  0.19543  1.0000
  H   H561      1.0  0.90134  0.44359  0.47166  1.0000
  C   C320      1.0  0.86570  0.36880  0.15973  1.0000
  H   H562      1.0  0.86930  0.46719  0.16790  1.0000
  H   H563      1.0  0.76570  0.32041  0.21522  1.0000
  S   S78       1.0  0.48289  0.34142  0.04248  1.0000
  H   H564      1.0  0.71906  0.43722  0.47507  1.0000
  H   H565      1.0  0.92369  0.43096  0.15085  1.0000
  H   H566      1.0  0.65993  0.38751  0.28089  1.0000
  H   H567      1.0  0.50482  0.52424  0.12278  1.0000
  H   H568      1.0  0.61875  0.34024  0.13578  1.0000
  C   C321      1.0  0.53854  0.35579  0.24269  1.0000
  Fe  Fe39      1.0  0.50225  0.39708  0.05837  1.0000
  H   H569      1.0  0.81202  0.42211  0.18430  1.0000
  S   S79       1.0  0.80382  0.40972  0.07365  1.0000
  C   C322      1.0  0.74841  0.34563  0.17089  1.0000
  C   C323      1.0  0.73725  0.36949  0.16644  1.0000
  C   C324      1.0  0.73319  0.38515  0.20334  1.0000
  C   C325      1.0  0.74044  0.37709  0.24458  1.0000
  C   C326      1.0  0.75228  0.35381  0.24863  1.0000
  C   C327      1.0  0.75666  0.33848  0.21185  1.0000
  H   H570      1.0  0.73095  0.37522  0.13474  1.0000
  H   H571      1.0  0.72445  0.40349  0.19992  1.0000
  H   H572      1.0  0.75704  0.34670  0.28017  1.0000
  H   H573      1.0  0.58655  0.31191  0.50451  1.0000
  C   C328      1.0  0.70024  0.42540  0.50077  1.0000
  H   H574      1.0  0.59939  0.40309  0.27933  1.0000
  C   C329      1.0  0.66276  0.44744  0.07943  1.0000
  H   H575      1.0  0.68718  0.50187  0.06745  1.0000
  H   H576      1.0  0.91393  0.42096  0.31685  1.0000
  Fe  Fe40      1.0  0.51089  0.33919  0.10239  1.0000
  C   C330      1.0  0.83500  0.33548  0.14273  1.0000
  H   H577      1.0  0.88408  0.47236  0.22239  1.0000
  H   H578      1.0  0.92009  0.55676  0.32029  1.0000
  C   C331      1.0  0.68242  0.47191  0.20699  1.0000
  C   C332      1.0  0.60390  0.38878  0.25345  1.0000
  C   C333      1.0  0.82089  0.46297  0.22726  1.0000
  C   C334      1.0  0.64543  0.44504  0.22280  1.0000
  C   C335      1.0  0.64506  0.39385  0.19587  1.0000
  C   C336      1.0  0.93087  0.54067  0.30913  1.0000
  C   C337      1.0  0.57363  0.37769  0.22058  1.0000
  C   C338      1.0  0.69744  0.39696  0.52302  1.0000
  H   H579      1.0  0.84383  0.40027  0.14092  1.0000
  C   C339      1.0  0.95736  0.46681  0.47176  1.0000
  C   C340      1.0  0.48179  0.33299  0.50280  1.0000
  H   H580      1.0  0.95222  0.48543  0.35049  1.0000
  C   C341      1.0  0.68498  0.50642  0.19710  1.0000
  H   H581      1.0  0.85039  0.37998  0.25791  1.0000
  N   N20       1.0  0.64009  0.41026  0.23542  1.0000
  H   H582      1.0  0.64595  0.39378  0.08842  1.0000
  H   H583      1.0  0.68270  0.46215  0.49654  1.0000
  C   C342      1.0  0.82932  0.43576  0.21216  1.0000
  H   H584      1.0  0.62745  0.44237  0.19616  1.0000
  H   H585      1.0  0.62943  0.39490  0.16827  1.0000
  S   S80       1.0  0.55984  0.35344  0.06612  1.0000
  C   C343      1.0  0.89809  0.42396  0.23038  1.0000
  H   H586      1.0  0.66602  0.50341  0.17153  1.0000
  H   H587      1.0  0.57385  0.40044  0.20620  1.0000
  H   H588      1.0  0.57507  0.36212  0.19393  1.0000
  H   H589      1.0  0.63831  0.45643  0.24984  1.0000
  H   H590      1.0  0.82272  0.41690  0.23872  1.0000
  H   H591      1.0  0.50320  0.48351  0.23962  1.0000
  H   H592      1.0  0.64199  0.42174  0.32712  1.0000
  H   H593      1.0  0.67240  0.40875  0.18455  1.0000
  H   H594      1.0  0.88563  0.37872  0.13392  1.0000
  C   C344      1.0  0.66629  0.41827  0.07638  1.0000
  C   C345      1.0  0.63856  0.34103  0.15847  1.0000
  C   C346      1.0  0.86785  0.45259  0.19793  1.0000
  H   H595      1.0  0.95875  0.42777  0.04966  1.0000
  H   H596      1.0  0.70243  0.47653  0.23168  1.0000
  C   C347      1.0  0.87295  0.40475  0.26820  1.0000
  H   H597      1.0  0.90042  0.37941  0.29295  1.0000
  H   H598      1.0  0.53599  0.33137  0.25504  1.0000
  C   C348      1.0  0.48767  0.47694  0.08789  1.0000
  H   H599      1.0  0.67997  0.51709  0.22666  1.0000
  H   H600      1.0  0.86368  0.42126  0.28231  1.0000
  C   C349      1.0  0.69677  0.42115  0.05877  1.0000
  H   H601      1.0  0.68734  0.40854  0.35309  1.0000
  C   C350      1.0  0.66752  0.43386  0.31069  1.0000
  C   C351      1.0  0.68948  0.47916  0.06455  1.0000
  C   C352      1.0  0.69391  0.43497  0.34340  1.0000
  H   H602      1.0  0.82640  0.48221  0.20126  1.0000
  H   H603      1.0  0.53540  0.37000  0.26982  1.0000
  C   C353      1.0  0.67963  0.43951  0.51306  1.0000
  H   H604      1.0  0.51735  0.34933  0.21896  1.0000
  H   H605      1.0  0.69248  0.42524  0.25580  1.0000
  H   H606      1.0  0.91276  0.41067  0.22291  1.0000
  H   H607      1.0  0.87602  0.36217  0.18866  1.0000
  H   H608      1.0  0.91961  0.53003  0.27689  1.0000
  H   H609      1.0  0.72046  0.44864  0.32945  1.0000
  H   H610      1.0  0.48889  0.49862  0.19436  1.0000
  N   N21       1.0  0.88225  0.42903  0.18972  1.0000
  C   C354      1.0  0.89140  0.39687  0.30450  1.0000
  H   H611      1.0  0.65646  0.35549  0.22364  1.0000
  C   C355      1.0  0.48016  0.48227  0.22385  1.0000
  C   C356      1.0  0.63706  0.35631  0.20174  1.0000
  H   H612      1.0  0.91779  0.44921  0.24393  1.0000
  C   C357      1.0  0.48448  0.50476  0.10286  1.0000
  H   H613      1.0  0.68888  0.46329  0.17673  1.0000
  H   H614      1.0  0.83627  0.47615  0.25659  1.0000
  C   C358      1.0  0.91065  0.44613  0.15621  1.0000
  H   H615      1.0  0.69388  0.44891  0.37286  1.0000
  H   H616      1.0  0.61088  0.33934  0.21536  1.0000
  H   H617      1.0  0.89923  0.44705  0.12432  1.0000
  H   H618      1.0  0.67540  0.46086  0.30258  1.0000
  H   H619      1.0  0.50750  0.35699  0.50228  1.0000
  H   H620      1.0  0.51021  0.47505  0.09647  1.0000
  H   H621      1.0  0.60076  0.36522  0.26974  1.0000
  C   C359      1.0  0.94031  0.48324  0.16668  1.0000
  H   H622      1.0  0.46774  0.33130  0.47229  1.0000
  H   H623      1.0  0.95248  0.50037  0.09953  1.0000
  H   H624      1.0  0.71145  0.52497  0.18518  1.0000
  H   H625      1.0  0.95868  0.46166  0.50575  1.0000
  H   H626      1.0  0.79296  0.45059  0.23563  1.0000
  C   C360      1.0  0.85446  0.39530  0.17102  1.0000
  C   C361      1.0  0.66586  0.41344  0.26959  1.0000
  C   C362      1.0  0.95351  0.48026  0.38443  1.0000
  H   H627      1.0  0.82423  0.34065  0.11296  1.0000
  H   H628      1.0  0.49399  0.62039  0.04744  1.0000
  H   H629      1.0  0.84367  0.31703  0.13457  1.0000
  H   H630      1.0  0.63296  0.31437  0.16381  1.0000
  C   C363      1.0  0.71894  0.48166  0.04514  1.0000
  H   H631      1.0  0.87321  0.38409  0.33185  1.0000
  H   H632      1.0  0.64668  0.32372  0.30522  1.0000
  C   C364      1.0  0.72284  0.45281  0.04221  1.0000
  H   H633      1.0  0.81424  0.32344  0.16749  1.0000
  S   S81       1.0  0.74875  0.32177  0.12659  1.0000
  H   H634      1.0  0.46727  0.43522  0.19187  1.0000
  H   H635      1.0  0.46858  0.49269  0.24656  1.0000
  H   H636      1.0  0.56095  0.32369  0.53705  1.0000
  H   H637      1.0  0.46660  0.33435  0.53031  1.0000
  C   C365      1.0  0.96581  0.49848  0.12902  1.0000
  H   H638      1.0  0.67084  0.36015  0.57397  1.0000
  C   C366      1.0  0.48913  0.48351  0.65477  1.0000
  H   H639      1.0  0.60591  0.32007  0.57998  1.0000
  S   S82       1.0  0.75993  0.45757  0.01577  1.0000
  C   C367      1.0  0.48151  0.50845  0.66971  1.0000
  H   H640      1.0  0.87469  0.31251  0.95850  1.0000
  Fe  Fe41      1.0  0.76704  0.35649  0.96785  1.0000
  S   S83       1.0  0.80714  0.41298  0.96806  1.0000
  H   H641      1.0  0.85129  0.45394  0.88225  1.0000
  Fe  Fe42      1.0  0.53348  0.36056  0.00769  1.0000
  C   C368      1.0  0.49292  0.46829  0.77307  1.0000
  S   S84       1.0  0.53584  0.33911  0.94220  1.0000
  Fe  Fe43      1.0  0.56419  0.41319  0.70635  1.0000
  S   S85       1.0  0.50840  0.37675  0.68995  1.0000
  S   S86       1.0  0.58171  0.43355  0.77405  1.0000
  Fe  Fe44      1.0  0.58800  0.42168  0.61235  1.0000
  S   S87       1.0  0.53369  0.38714  0.58863  1.0000
  H   H642      1.0  0.72496  0.45203  0.59992  1.0000
  Fe  Fe45      1.0  0.51671  0.41370  0.63563  1.0000
  H   H643      1.0  0.90426  0.45841  0.84932  1.0000
  Fe  Fe46      1.0  0.52977  0.35363  0.64442  1.0000
  H   H644      1.0  0.56023  0.52511  0.78165  1.0000
  S   S88       1.0  0.57167  0.45189  0.65454  1.0000
  S   S89       1.0  0.58511  0.38647  0.66585  1.0000
  H   H645      1.0  0.77388  0.35378  0.54338  1.0000
  H   H646      1.0  0.48245  0.56769  0.00926  1.0000
  H   H647      1.0  0.74480  0.42677  0.84469  1.0000
  H   H648      1.0  0.91706  0.38205  0.76948  1.0000
  C   C369      1.0  0.92588  0.37763  0.83824  1.0000
  C   C370      1.0  0.66467  0.43422  0.75534  1.0000
  H   H649      1.0  0.76735  0.40902  0.87380  1.0000
  H   H650      1.0  0.58206  0.31150  0.85385  1.0000
  H   H651      1.0  0.53107  0.32298  0.85162  1.0000
  C   C371      1.0  0.64466  0.33816  0.68393  1.0000
  S   S90       1.0  0.73228  0.36022  0.01705  1.0000
  H   H652      1.0  0.63351  0.38435  0.59438  1.0000
  C   C372      1.0  0.54608  0.36522  0.89534  1.0000
  C   C373      1.0  0.54182  0.35037  0.85433  1.0000
  C   C374      1.0  0.55163  0.37084  0.81664  1.0000
  C   C375      1.0  0.56628  0.40645  0.81985  1.0000
  C   C376      1.0  0.57023  0.42127  0.86075  1.0000
  C   C377      1.0  0.55996  0.40072  0.89830  1.0000
  H   H653      1.0  0.49364  0.54782  0.93638  1.0000
  H   H654      1.0  0.54853  0.35916  0.78524  1.0000
  H   H655      1.0  0.58161  0.44883  0.86347  1.0000
  H   H656      1.0  0.56332  0.41248  0.92953  1.0000
  S   S91       1.0  0.79674  0.34436  0.01699  1.0000
  H   H657      1.0  0.91973  0.36834  0.92781  1.0000
  S   S92       1.0  0.47115  0.42089  0.61719  1.0000
  H   H658      1.0  0.49731  0.43567  0.83611  1.0000
  H   H659      1.0  0.51362  0.63097  0.99457  1.0000
  C   C378      1.0  0.91271  0.36184  0.79360  1.0000
  C   C379      1.0  0.65197  0.39579  0.56830  1.0000
  C   C380      1.0  0.60616  0.32624  0.83464  1.0000
  H   H660      1.0  0.48276  0.59259  0.93370  1.0000
  H   H661      1.0  0.60288  0.34370  0.81202  1.0000
  N   N22       1.0  0.68677  0.39766  0.71729  1.0000
  C   C381      1.0  0.71556  0.38936  0.72014  1.0000
  C   C382      1.0  0.69009  0.41590  0.67483  1.0000
  C   C383      1.0  0.68994  0.41995  0.75523  1.0000
  C   C384      1.0  0.65163  0.36541  0.71895  1.0000
  C   C385      1.0  0.96595  0.50800  0.99299  1.0000
  C   C386      1.0  0.71345  0.36577  0.75841  1.0000
  C   C387      1.0  0.72211  0.45262  0.67039  1.0000
  C   C388      1.0  0.72301  0.46795  0.62580  1.0000
  C   C389      1.0  0.90333  0.46073  0.88486  1.0000
  H   H662      1.0  0.47264  0.50992  0.87495  1.0000
  H   H663      1.0  0.74111  0.41346  0.72309  1.0000
  H   H664      1.0  0.71734  0.37734  0.68962  1.0000
  H   H665      1.0  0.69186  0.40085  0.64760  1.0000
  H   H666      1.0  0.66633  0.41735  0.66783  1.0000
  H   H667      1.0  0.71700  0.44195  0.75809  1.0000
  H   H668      1.0  0.68507  0.40538  0.78604  1.0000
  H   H669      1.0  0.64697  0.35289  0.75132  1.0000
  H   H670      1.0  0.63079  0.37187  0.71522  1.0000
  H   H671      1.0  0.69927  0.46967  0.62041  1.0000
  H   H672      1.0  0.69990  0.31393  0.55684  1.0000
  H   H673      1.0  0.71297  0.37702  0.78996  1.0000
  H   H674      1.0  0.48497  0.56615  0.86271  1.0000
  H   H675      1.0  0.63752  0.41307  0.76027  1.0000
  H   H676      1.0  0.72161  0.47031  0.69474  1.0000
  H   H677      1.0  0.74661  0.45220  0.67436  1.0000
  Fe  Fe47      1.0  0.83397  0.40143  0.02202  1.0000
  H   H678      1.0  0.96245  0.45321  0.87559  1.0000
  H   H679      1.0  0.74593  0.49427  0.62342  1.0000
  C   C390      1.0  0.75130  0.42132  0.87741  1.0000
  C   C391      1.0  0.47758  0.41579  0.81415  1.0000
  C   C392      1.0  0.46727  0.58014  0.00002  1.0000
  S   S93       1.0  0.88949  0.41440  0.03708  1.0000
  H   H680      1.0  0.61558  0.35792  0.00143  1.0000
  H   H681      1.0  0.70077  0.48156  0.78912  1.0000
  H   H682      1.0  0.72660  0.39259  0.93465  1.0000
  H   H683      1.0  0.86485  0.40811  0.89868  1.0000
  H   H684      1.0  0.64569  0.34866  0.65106  1.0000
  N   N23       1.0  0.65918  0.39119  0.92699  1.0000
  C   C393      1.0  0.65949  0.36641  0.95994  1.0000
  C   C394      1.0  0.69528  0.41369  0.90874  1.0000
  C   C395      1.0  0.64897  0.41425  0.95019  1.0000
  C   C396      1.0  0.63284  0.37283  0.89163  1.0000
  C   C397      1.0  0.63735  0.34663  0.86450  1.0000
  C   C398      1.0  0.62475  0.34275  0.98362  1.0000
  C   C399      1.0  0.65328  0.44593  0.92431  1.0000
  C   C400      1.0  0.71832  0.39726  0.90259  1.0000
  H   H685      1.0  0.50177  0.53166  0.68457  1.0000
  H   H686      1.0  0.91524  0.41850  0.83049  1.0000
  C   C401      1.0  0.64413  0.46807  0.95224  1.0000
  H   H687      1.0  0.67952  0.38112  0.98495  1.0000
  H   H688      1.0  0.66767  0.34919  0.94538  1.0000
  H   H689      1.0  0.69382  0.42504  0.87726  1.0000
  H   H690      1.0  0.71095  0.43586  0.93077  1.0000
  H   H691      1.0  0.66435  0.42419  0.98056  1.0000
  H   H692      1.0  0.62122  0.39959  0.96014  1.0000
  H   H693      1.0  0.60620  0.35937  0.90536  1.0000
  H   H694      1.0  0.63279  0.39158  0.86809  1.0000
  H   H695      1.0  0.86596  0.33619  0.99882  1.0000
  H   H696      1.0  0.66052  0.36033  0.84356  1.0000
  H   H697      1.0  0.79027  0.34254  0.59028  1.0000
  H   H698      1.0  0.95480  0.45553  0.93135  1.0000
  H   H699      1.0  0.63600  0.43773  0.89564  1.0000
  H   H700      1.0  0.68033  0.46278  0.91314  1.0000
  H   H701      1.0  0.88456  0.34239  0.79483  1.0000
  H   H702      1.0  0.70473  0.37242  0.88548  1.0000
  C   C402      1.0  0.96063  0.45022  0.03400  1.0000
  C   C403      1.0  0.62909  0.31994  0.01701  1.0000
  C   C404      1.0  0.90737  0.39684  0.85366  1.0000
  H   H703      1.0  0.51195  0.50224  0.92651  1.0000
  H   H704      1.0  0.74330  0.34440  0.78670  1.0000
  H   H705      1.0  0.87896  0.37986  0.84829  1.0000
  H   H706      1.0  0.66267  0.47925  0.97963  1.0000
  H   H707      1.0  0.64556  0.48946  0.93249  1.0000
  H   H708      1.0  0.61746  0.45264  0.96533  1.0000
  H   H709      1.0  0.58016  0.51208  0.74121  1.0000
  H   H710      1.0  0.66566  0.44763  0.72470  1.0000
  H   H711      1.0  0.53868  0.46254  0.78431  1.0000
  H   H712      1.0  0.91107  0.39218  0.96518  1.0000
  H   H713      1.0  0.52561  0.45851  0.72849  1.0000
  H   H714      1.0  0.74584  0.34805  0.72859  1.0000
  H   H715      1.0  0.85758  0.33986  0.90031  1.0000
  H   H716      1.0  0.54684  0.52146  0.72555  1.0000
  S   S94       1.0  0.74560  0.33527  0.90120  1.0000
  N   N24       1.0  0.91449  0.40995  0.89951  1.0000
  C   C405      1.0  0.55539  0.51014  0.75145  1.0000
  H   H717      1.0  0.76687  0.44586  0.89518  1.0000
  H   H718      1.0  0.66386  0.32948  0.68579  1.0000
  H   H719      1.0  0.63991  0.32785  0.88518  1.0000
  H   H720      1.0  0.65618  0.47089  0.79049  1.0000
  H   H721      1.0  0.76936  0.38594  0.76202  1.0000
  C   C406      1.0  0.67359  0.45996  0.79202  1.0000
  C   C407      1.0  0.52820  0.47237  0.75900  1.0000
  H   H722      1.0  0.90986  0.48142  0.99717  1.0000
  H   H723      1.0  0.66995  0.44710  0.82384  1.0000
  H   H724      1.0  0.88620  0.49788  0.87761  1.0000
  H   H725      1.0  0.51508  0.48753  0.65799  1.0000
  H   H726      1.0  0.92146  0.35640  0.86050  1.0000
  H   H727      1.0  0.60433  0.32571  0.96033  1.0000
  C   C408      1.0  0.89234  0.42597  0.90813  1.0000
  H   H728      1.0  0.89168  0.43032  0.94341  1.0000
  H   H729      1.0  0.73903  0.50622  0.03274  1.0000
  S   S95       1.0  0.63229  0.44524  0.56373  1.0000
  H   H730      1.0  0.47705  0.35765  0.84834  1.0000
  C   C409      1.0  0.95226  0.43730  0.90551  1.0000
  H   H731      1.0  0.48532  0.48013  0.74681  1.0000
  H   H732      1.0  0.48977  0.38963  0.89036  1.0000
  C   C410      1.0  0.93301  0.48025  0.00426  1.0000
  C   C411      1.0  0.87765  0.47291  0.89419  1.0000
  C   C412      1.0  0.93019  0.45102  0.02435  1.0000
  C   C413      1.0  0.74494  0.36082  0.75876  1.0000
  C   C414      1.0  0.67308  0.38212  0.55663  1.0000
  H   H733      1.0  0.47081  0.57937  0.78912  1.0000
  H   H734      1.0  0.87641  0.47664  0.92948  1.0000
  H   H735      1.0  0.84865  0.36297  0.94086  1.0000
  H   H736      1.0  0.58853  0.31420  0.68561  1.0000
  C   C415      1.0  0.86564  0.35252  0.93229  1.0000
  C   C416      1.0  0.90441  0.38125  0.93202  1.0000
  H   H737      1.0  0.49805  0.48474  0.80209  1.0000
  H   H738      1.0  0.68992  0.33990  0.75601  1.0000
  C   C417      1.0  0.65560  0.42497  0.54707  1.0000
  C   C418      1.0  0.46629  0.52630  0.93937  1.0000
  C   C419      1.0  0.85915  0.32484  0.96590  1.0000
  H   H739      1.0  0.47584  0.41151  0.72618  1.0000
  Fe  Fe48      1.0  0.77338  0.41575  0.01976  1.0000
  C   C420      1.0  0.76643  0.33942  0.57449  1.0000
  C   C421      1.0  0.48416  0.48223  0.92277  1.0000
  C   C422      1.0  0.48851  0.61812  0.01212  1.0000
  H   H740      1.0  0.92692  0.34886  0.78279  1.0000
  H   H741      1.0  0.48227  0.46310  0.89889  1.0000
  H   H742      1.0  0.49167  0.40492  0.79662  1.0000
  H   H743      1.0  0.75477  0.35068  0.59572  1.0000
  S   S96       1.0  0.55137  0.41606  0.01994  1.0000
  H   H744      1.0  0.47424  0.46881  0.95431  1.0000
  H   H745      1.0  0.95415  0.39596  0.83512  1.0000
  H   H746      1.0  0.52157  0.31753  0.72062  1.0000
  C   C423      1.0  0.46764  0.37041  0.87064  1.0000
  H   H747      1.0  0.92925  0.48125  0.89603  1.0000
  H   H748      1.0  0.47376  0.63136  0.00445  1.0000
  C   C424      1.0  0.53264  0.93839  0.36115  1.0000
  H   H749      1.0  0.51648  0.93925  0.38772  1.0000
  H   H750      1.0  0.51569  0.92500  0.33294  1.0000
  H   H751      1.0  0.54467  0.92333  0.37257  1.0000
  H   H752      1.0  0.46966  0.93074  0.48282  1.0000
  H   H753      1.0  0.49646  0.92029  0.51636  1.0000
  C   C425      1.0  0.48428  0.93647  0.51357  1.0000
  H   H754      1.0  0.47743  0.83971  0.53801  1.0000
  H   H755      1.0  0.48116  0.71210  0.51574  1.0000
  H   H756      1.0  0.48303  0.64601  0.53180  1.0000
  C   C426      1.0  0.46600  0.97385  0.40085  1.0000
  H   H757      1.0  0.48286  0.97360  0.42585  1.0000
  C   C427      1.0  0.51371  0.97395  0.51141  1.0000
  C   C428      1.0  0.56090  0.97483  0.34892  1.0000
  H   H758      1.0  0.57847  0.97276  0.32532  1.0000
  H   H759      1.0  0.47703  0.93329  0.58188  1.0000
  H   H760      1.0  0.50184  0.71962  0.88782  1.0000
  H   H761      1.0  0.49599  0.79565  0.61507  1.0000
  H   H762      1.0  0.48222  0.69712  0.83829  1.0000
  C   C429      1.0  0.47002  0.77226  0.61147  1.0000
  C   C430      1.0  0.47741  0.69907  0.87310  1.0000
  C   C431      1.0  0.48797  0.66330  0.55971  1.0000
  H   H763      1.0  0.48955  0.65014  0.58949  1.0000
  C   C432      1.0  0.46882  0.75348  0.56989  1.0000
  H   H764      1.0  0.48932  0.74653  0.57250  1.0000
  H   H765      1.0  0.47522  0.77183  0.54260  1.0000
  H   H766      1.0  0.51328  0.68738  0.55525  1.0000
  H   H767      1.0  0.50832  0.97503  0.79713  1.0000
  H   H768      1.0  0.47000  0.67411  0.88909  1.0000
