data_image0
_chemical_formula_structural       S2FeSFeSCSH2C2SH2CFeH2C5HCH8C2HCHC2NHSC2FeH3C3HCSH9CH3CHCH13CH2CHCHSC2H2S3HCFeS2FeS2FeSFeSFeS2C2HC5H3C2H5C6H3CHC4H4NH2CS2CH2FeHCHCH6C2FeCH5CHNHFeH9C3H4C2H2CH6C2H5CHSH3C2HCHCH3CFeHFeHSFeHSH2FeCS2HCHSC3H3C7H2NC2HC3HC4H12CH11CH3CHCH6CH2CH2C2H3NC2H4CH2SCH4C5HC2H3CH4SCHFeSFeS2FeS2FeSFeS2C6H4C6H2CH4C6H3CHCH3NCHC5H2CH4CH6CHCH4CH5C2NC5HC2H18CHCH2CH4SHCHC2H2CH2CH3CH2C2H7CHCHCH2CH3SNHCH4CHSCH4C3H11NHCH2C4H3CFeSCHCFeS2FeSFeH2CHC6H4C6H6CHCHCHCSH3C3N2C8HC2FeH17SH7SCSCS2HC3H3CH2C3HCHCH2NCH2FeH8SC2H8FeS2FeS2FeSFeS3HC3H2CH4C6H5C3FeH2C5H2CHC2H5CNH2C2H3CH6CHC3H10C2H9NC3H3C2H3CH10CH2C2H4C2HCH2CNHCSH4C2HS2HCHCH4C2HC2H4C2HC2H5NH2CHCH5CHC2H3CH2CH2C4SFeSFeS2FeSFeS3H4CH3C2HC3H4C4H2C6HCH3NC7H3C2H8CH6CHCHC2H7CHSH3CHCHNH4SH2CH2CHCH2SH5C2H2FeH2CHCH2C3H2CH2C3H2CH2CHCHCH4SH7CHCHNH8C2HCH3CHCHCHFeSFeS2HSHFeHFeSC2HC7H4C7H6SH2CH2CSH2CH2C2H3CHC4NFeH2CHFeH4CHC2H6CH3SHSHSH2SC2H5SH2CHCH5CH2NCH5CHCH4CHFeS2FeS2FeSFeS3HC3HCH3CSH3C4HC6H5C4H3CHNHC2H3CH2NH4CHNH2C2HCH2NC7H4CHSH6CH6C2H11CHC2HC3H6C2H2CH5NCHCH2SH2C3SH6FeH3C3HCH5CH5CH2NH3CHCHC3HC2HCH3C2H7C4H6S2FeSFeCHSH5C5H2SH6FeH3C2H4SHCH6SH6FeH2FeH5CH2SCHCHCHCH2CH2C2H2SC2HNCH2C2HC2SCFeHCH2C2HCHNCH3C5HCH2CH2FeS2FeS2FeSFeSFeS2CHC6H5C4H2CH5CSH2C3HC2H2SNH2C2H2CH5SH2C2HCHC2H5C2H3FeCHSH3CH2CH3SH4C2H2CH6FeHCH7CH6FeSC2SHFeSFeSH2CHC4HC6H5C3H5CH5CHSHCHC2NH4C2HSHCH5CHCH9CH5C3H4CH3CH2C2H2NHCH2
_chemical_formula_sum              "S128 Fe64 C576 H1024 N32"
_cell_length_a       38.8146
_cell_length_b       30.5746
_cell_length_c       46.5731
_cell_angle_alpha    89.9055
_cell_angle_beta     81.9803
_cell_angle_gamma    90.2225

_space_group_name_H-M_alt    "P 1"
_space_group_IT_number       1

loop_
  _space_group_symop_operation_xyz
  'x, y, z'

loop_
  _atom_site_type_symbol
  _atom_site_label
  _atom_site_symmetry_multiplicity
  _atom_site_fract_x
  _atom_site_fract_y
  _atom_site_fract_z
  _atom_site_occupancy
  S   S1        1.0  0.39720  0.15111  0.33610  1.0000
  S   S2        1.0  0.44424  0.26482  0.34103  1.0000
  Fe  Fe1       1.0  0.40656  0.10273  0.17037  1.0000
  S   S3        1.0  0.38840  0.15764  0.20116  1.0000
  Fe  Fe2       1.0  0.41924  0.09310  0.10436  1.0000
  S   S4        1.0  0.41250  0.12762  0.06284  1.0000
  C   C1        1.0  0.39447  0.11436  0.28287  1.0000
  S   S5        1.0  0.44616  0.13056  0.13575  1.0000
  H   H1        1.0  0.39653  0.22374  0.29569  1.0000
  H   H2        1.0  0.22138  0.46485  0.24674  1.0000
  C   C2        1.0  0.35262  0.40114  0.35459  1.0000
  C   C3        1.0  0.38106  0.05334  0.04606  1.0000
  S   S6        1.0  0.43854  0.04358  0.17721  1.0000
  H   H3        1.0  0.38022  0.04213  0.06820  1.0000
  H   H4        1.0  0.39204  0.08480  0.24103  1.0000
  C   C4        1.0  0.33053  0.20061  0.15577  1.0000
  Fe  Fe3       1.0  0.47646  0.07015  0.14047  1.0000
  H   H5        1.0  0.36842  0.46516  0.33815  1.0000
  H   H6        1.0  0.27706  0.17250  0.16303  1.0000
  C   C5        1.0  0.39582  0.15346  0.29845  1.0000
  C   C6        1.0  0.39323  0.11509  0.25282  1.0000
  C   C7        1.0  0.39234  0.15507  0.23838  1.0000
  C   C8        1.0  0.39356  0.19419  0.25395  1.0000
  C   C9        1.0  0.39576  0.19343  0.28383  1.0000
  H   H7        1.0  0.39269  0.22525  0.24292  1.0000
  C   C10       1.0  0.26362  0.28342  0.08860  1.0000
  H   H8        1.0  0.31914  0.28451  0.08350  1.0000
  H   H9        1.0  0.20079  0.47828  0.28274  1.0000
  H   H10       1.0  0.34581  0.17006  0.15696  1.0000
  H   H11       1.0  0.34203  0.18576  0.08158  1.0000
  H   H12       1.0  0.33183  0.98574  0.14921  1.0000
  H   H13       1.0  0.28119  0.22560  0.17852  1.0000
  H   H14       1.0  0.29891  0.27093  0.13585  1.0000
  H   H15       1.0  0.36635  0.25219  0.09299  1.0000
  C   C11       1.0  0.30009  0.24232  0.12091  1.0000
  C   C12       1.0  0.42864  0.25489  0.11283  1.0000
  H   H16       1.0  0.49666  0.03832  0.26554  1.0000
  C   C13       1.0  0.30235  0.14529  0.10634  1.0000
  H   H17       1.0  0.29734  0.12951  0.12794  1.0000
  C   C14       1.0  0.39593  0.09385  0.03763  1.0000
  C   C15       1.0  0.31278  0.46207  0.35102  1.0000
  N   N1        1.0  0.33147  0.21480  0.12443  1.0000
  H   H18       1.0  0.36050  0.27453  0.12873  1.0000
  S   S7        1.0  0.45309  0.03428  0.10586  1.0000
  C   C16       1.0  0.29755  0.17253  0.20339  1.0000
  C   C17       1.0  0.36333  0.24322  0.11637  1.0000
  Fe  Fe4       1.0  0.41190  0.01277  0.14211  1.0000
  H   H19       1.0  0.42955  0.26566  0.08994  1.0000
  H   H20       1.0  0.27139  0.16878  0.21627  1.0000
  H   H21       1.0  0.39420  0.08339  0.29417  1.0000
  C   C18       1.0  0.29818  0.26021  0.08996  1.0000
  C   C19       1.0  0.29428  0.19356  0.17410  1.0000
  C   C20       1.0  0.39862  0.22276  0.12115  1.0000
  H   H22       1.0  0.30957  0.13962  0.20030  1.0000
  C   C21       1.0  0.47501  0.04890  0.25388  1.0000
  S   S8        1.0  0.37626  0.06998  0.13829  1.0000
  H   H23       1.0  0.34361  0.22532  0.16823  1.0000
  H   H24       1.0  0.39886  0.21312  0.14410  1.0000
  H   H25       1.0  0.35319  0.99754  0.03295  1.0000
  H   H26       1.0  0.35634  0.15432  0.10922  1.0000
  H   H27       1.0  0.27557  0.22395  0.12751  1.0000
  H   H28       1.0  0.45367  0.23861  0.11497  1.0000
  H   H29       1.0  0.31379  0.19323  0.21588  1.0000
  H   H30       1.0  0.27894  0.16338  0.10196  1.0000
  H   H31       1.0  0.46788  0.02123  0.24042  1.0000
  C   C22       1.0  0.33460  0.17557  0.10459  1.0000
  H   H32       1.0  0.26311  0.29651  0.06640  1.0000
  H   H33       1.0  0.46794  0.14004  0.26390  1.0000
  H   H34       1.0  0.31484  0.12177  0.06175  1.0000
  C   C23       1.0  0.34670  0.44478  0.34714  1.0000
  H   H35       1.0  0.49211  0.15210  0.19534  1.0000
  C   C24       1.0  0.30833  0.10847  0.08409  1.0000
  H   H36       1.0  0.26038  0.31117  0.10412  1.0000
  H   H37       1.0  0.40412  0.19353  0.10736  1.0000
  H   H38       1.0  0.46308  0.18222  0.22087  1.0000
  H   H39       1.0  0.24146  0.26027  0.09374  1.0000
  H   H40       1.0  0.30040  0.23346  0.07376  1.0000
  H   H41       1.0  0.46472  0.09561  0.22176  1.0000
  H   H42       1.0  0.42585  0.28386  0.12731  1.0000
  H   H43       1.0  0.32985  0.08720  0.08901  1.0000
  H   H44       1.0  0.48470  0.13811  0.04417  1.0000
  H   H45       1.0  0.47910  0.20572  0.15628  1.0000
  H   H46       1.0  0.48821  0.22476  0.25638  1.0000
  H   H47       1.0  0.48669  0.21172  0.06371  1.0000
  H   H48       1.0  0.48574  0.26313  0.16163  1.0000
  C   C25       1.0  0.47779  0.23183  0.17282  1.0000
  H   H49       1.0  0.28447  0.08805  0.08499  1.0000
  H   H50       1.0  0.45212  0.05709  0.26997  1.0000
  C   C26       1.0  0.49357  0.12887  0.25249  1.0000
  H   H51       1.0  0.49148  0.18610  0.29951  1.0000
  C   C27       1.0  0.49106  0.17868  0.21180  1.0000
  H   H52       1.0  0.45055  0.23491  0.18374  1.0000
  S   S9        1.0  0.39553  0.38052  0.34951  1.0000
  C   C28       1.0  0.49614  0.16410  0.02910  1.0000
  C   C29       1.0  0.48619  0.08818  0.23441  1.0000
  H   H53       1.0  0.26460  0.25580  0.57217  1.0000
  H   H54       1.0  0.17814  0.39971  0.54018  1.0000
  S   S10       1.0  0.36678  0.26127  0.38147  1.0000
  S   S11       1.0  0.16873  0.45883  0.65124  1.0000
  S   S12       1.0  0.43159  0.20330  0.40055  1.0000
  H   H55       1.0  0.35320  0.41363  0.55233  1.0000
  C   C30       1.0  0.37201  0.38757  0.43621  1.0000
  Fe  Fe5       1.0  0.39609  0.25633  0.41968  1.0000
  S   S13       1.0  0.37199  0.26408  0.46614  1.0000
  S   S14       1.0  0.43360  0.31002  0.40494  1.0000
  Fe  Fe6       1.0  0.41224  0.16418  0.60566  1.0000
  S   S15       1.0  0.44259  0.22523  0.61173  1.0000
  S   S16       1.0  0.40988  0.13395  0.56186  1.0000
  Fe  Fe7       1.0  0.39368  0.14890  0.67098  1.0000
  S   S17       1.0  0.42261  0.20881  0.68168  1.0000
  Fe  Fe8       1.0  0.39785  0.24108  0.64629  1.0000
  S   S18       1.0  0.37726  0.31002  0.65381  1.0000
  Fe  Fe9       1.0  0.46409  0.18674  0.64620  1.0000
  S   S19       1.0  0.36581  0.18241  0.63776  1.0000
  S   S20       1.0  0.43662  0.12459  0.63794  1.0000
  C   C31       1.0  0.18965  0.36738  0.54402  1.0000
  C   C32       1.0  0.27252  0.30898  0.47381  1.0000
  H   H56       1.0  0.33083  0.20384  0.55078  1.0000
  C   C33       1.0  0.33680  0.32518  0.64378  1.0000
  C   C34       1.0  0.32844  0.36970  0.64316  1.0000
  C   C35       1.0  0.29658  0.38324  0.63512  1.0000
  C   C36       1.0  0.28056  0.30768  0.62931  1.0000
  C   C37       1.0  0.31274  0.29411  0.63685  1.0000
  H   H57       1.0  0.34706  0.39390  0.64828  1.0000
  H   H58       1.0  0.29101  0.41761  0.63395  1.0000
  H   H59       1.0  0.31895  0.25974  0.63719  1.0000
  C   C38       1.0  0.28307  0.32616  0.44296  1.0000
  C   C39       1.0  0.29188  0.25471  0.56134  1.0000
  H   H60       1.0  0.36099  0.37474  0.41712  1.0000
  H   H61       1.0  0.49774  0.07840  0.41104  1.0000
  H   H62       1.0  0.34007  0.45184  0.40865  1.0000
  H   H63       1.0  0.44096  0.03818  0.41948  1.0000
  H   H64       1.0  0.39646  0.27924  0.52038  1.0000
  C   C40       1.0  0.38765  0.22807  0.49063  1.0000
  C   C41       1.0  0.38853  0.18300  0.48559  1.0000
  C   C42       1.0  0.39606  0.15428  0.50743  1.0000
  C   C43       1.0  0.40290  0.17059  0.53420  1.0000
  C   C44       1.0  0.40354  0.21574  0.53867  1.0000
  C   C45       1.0  0.39603  0.24438  0.51686  1.0000
  H   H65       1.0  0.38186  0.17024  0.46541  1.0000
  H   H66       1.0  0.39538  0.11933  0.50397  1.0000
  H   H67       1.0  0.40905  0.22863  0.55913  1.0000
  C   C46       1.0  0.27250  0.35231  0.62809  1.0000
  H   H68       1.0  0.18557  0.36092  0.56775  1.0000
  C   C47       1.0  0.47371  0.09260  0.45560  1.0000
  C   C48       1.0  0.32438  0.37501  0.36610  1.0000
  C   C49       1.0  0.27156  0.46964  0.43563  1.0000
  C   C50       1.0  0.29050  0.39212  0.36969  1.0000
  H   H69       1.0  0.26862  0.30808  0.42772  1.0000
  H   H70       1.0  0.47489  0.12939  0.41427  1.0000
  H   H71       1.0  0.24055  0.39449  0.54385  1.0000
  H   H72       1.0  0.32224  0.26824  0.51945  1.0000
  N   N2        1.0  0.28396  0.31983  0.52703  1.0000
  H   H73       1.0  0.28857  0.36911  0.49318  1.0000
  H   H74       1.0  0.38819  0.37613  0.55576  1.0000
  C   C51       1.0  0.23763  0.45479  0.45367  1.0000
  S   S21       1.0  0.23277  0.36823  0.61677  1.0000
  S   S22       1.0  0.24144  0.45540  0.36707  1.0000
  C   C52       1.0  0.35035  0.42570  0.44989  1.0000
  H   H75       1.0  0.24299  0.43177  0.47092  1.0000
  H   H76       1.0  0.26200  0.28354  0.62403  1.0000
  Fe  Fe10      1.0  0.46695  0.25743  0.38251  1.0000
  H   H77       1.0  0.46265  0.25300  0.46479  1.0000
  C   C53       1.0  0.44236  0.07310  0.41278  1.0000
  H   H78       1.0  0.34987  0.37546  0.58238  1.0000
  C   C54       1.0  0.48975  0.16932  0.46069  1.0000
  H   H79       1.0  0.27914  0.25081  0.51807  1.0000
  H   H80       1.0  0.46606  0.12248  0.50964  1.0000
  H   H81       1.0  0.47350  0.07734  0.55468  1.0000
  H   H82       1.0  0.27692  0.36145  0.44153  1.0000
  H   H83       1.0  0.25757  0.12521  0.68731  1.0000
  H   H84       1.0  0.24432  0.36979  0.68631  1.0000
  C   C55       1.0  0.29251  0.33337  0.49565  1.0000
  C   C56       1.0  0.25935  0.16030  0.68106  1.0000
  Fe  Fe11      1.0  0.21603  0.43934  0.62068  1.0000
  C   C57       1.0  0.35946  0.38001  0.55898  1.0000
  H   H85       1.0  0.32359  0.41331  0.45655  1.0000
  H   H86       1.0  0.35460  0.35068  0.51804  1.0000
  H   H87       1.0  0.29716  0.38475  0.54051  1.0000
  H   H88       1.0  0.39934  0.39799  0.42920  1.0000
  H   H89       1.0  0.29459  0.21449  0.68202  1.0000
  C   C58       1.0  0.34315  0.34594  0.54100  1.0000
  H   H90       1.0  0.22122  0.43780  0.43937  1.0000
  N   N3        1.0  0.49876  0.12272  0.46810  1.0000
  H   H91       1.0  0.47900  0.05779  0.46020  1.0000
  Fe  Fe12      1.0  0.40665  0.31245  0.36549  1.0000
  H   H92       1.0  0.35098  0.31342  0.54824  1.0000
  H   H93       1.0  0.28657  0.18601  0.54995  1.0000
  H   H94       1.0  0.30225  0.19521  0.58415  1.0000
  H   H95       1.0  0.23087  0.29717  0.52738  1.0000
  H   H96       1.0  0.24008  0.31692  0.56113  1.0000
  H   H97       1.0  0.32054  0.32800  0.48789  1.0000
  H   H98       1.0  0.41822  0.09008  0.42239  1.0000
  H   H99       1.0  0.44661  0.09896  0.46621  1.0000
  H   H100      1.0  0.23104  0.37614  0.50904  1.0000
  C   C59       1.0  0.29498  0.27293  0.52996  1.0000
  C   C60       1.0  0.47430  0.09525  0.42219  1.0000
  C   C61       1.0  0.22848  0.36793  0.53241  1.0000
  H   H101      1.0  0.17593  0.34193  0.53288  1.0000
  H   H102      1.0  0.39697  0.38786  0.69206  1.0000
  H   H103      1.0  0.44961  0.03729  0.67793  1.0000
  H   H104      1.0  0.24400  0.31311  0.47928  1.0000
  C   C62       1.0  0.24545  0.32315  0.53738  1.0000
  C   C63       1.0  0.30294  0.35006  0.54513  1.0000
  H   H105      1.0  0.47831  0.20162  0.50302  1.0000
  H   H106      1.0  0.44398  0.07481  0.38879  1.0000
  C   C64       1.0  0.30358  0.20704  0.56146  1.0000
  H   H107      1.0  0.29339  0.34550  0.56858  1.0000
  H   H108      1.0  0.30834  0.27352  0.57455  1.0000
  H   H109      1.0  0.31135  0.32112  0.43598  1.0000
  H   H110      1.0  0.27853  0.27352  0.47348  1.0000
  H   H111      1.0  0.37210  0.36067  0.45223  1.0000
  H   H112      1.0  0.46155  0.17209  0.45860  1.0000
  C   C65       1.0  0.49363  0.11569  0.50058  1.0000
  C   C66       1.0  0.26481  0.16225  0.64791  1.0000
  H   H113      1.0  0.26877  0.37146  0.37824  1.0000
  H   H114      1.0  0.49225  0.27629  0.48718  1.0000
  H   H115      1.0  0.24286  0.14555  0.63943  1.0000
  H   H116      1.0  0.29627  0.47556  0.47483  1.0000
  H   H117      1.0  0.28934  0.14547  0.63903  1.0000
  C   C67       1.0  0.05553  0.47656  0.67706  1.0000
  H   H118      1.0  0.28429  0.44022  0.42529  1.0000
  S   S23       1.0  0.20004  0.47830  0.58369  1.0000
  H   H119      1.0  0.23421  0.17630  0.68894  1.0000
  H   H120      1.0  0.26591  0.19672  0.64022  1.0000
  H   H121      1.0  0.36148  0.43568  0.46954  1.0000
  C   C68       1.0  0.48947  0.25107  0.47053  1.0000
  C   C69       1.0  0.35048  0.46424  0.42818  1.0000
  H   H122      1.0  0.32854  0.34140  0.37182  1.0000
  C   C70       1.0  0.28455  0.43564  0.36218  1.0000
  H   H123      1.0  0.37827  0.47192  0.42041  1.0000
  C   C71       1.0  0.49634  0.20579  0.48243  1.0000
  H   H124      1.0  0.48455  0.04453  0.50517  1.0000
  H   H125      1.0  0.31355  0.16255  0.68703  1.0000
  H   H126      1.0  0.04889  0.44627  0.66585  1.0000
  C   C72       1.0  0.50015  0.06847  0.54449  1.0000
  Fe  Fe13      1.0  0.40648  0.21328  0.36023  1.0000
  H   H127      1.0  0.36182  0.47246  0.72774  1.0000
  Fe  Fe14      1.0  0.37447  0.01291  0.92604  1.0000
  H   H128      1.0  0.30808  0.41761  0.77112  1.0000
  S   S24       1.0  0.34884  0.00902  0.97256  1.0000
  Fe  Fe15      1.0  0.38696  0.05215  0.86501  1.0000
  H   H129      1.0  0.23458  0.44459  0.73065  1.0000
  S   S25       1.0  0.38233  0.11250  0.83753  1.0000
  H   H130      1.0  0.38083  0.24894  0.73691  1.0000
  H   H131      1.0  0.01038  0.41936  0.02064  1.0000
  Fe  Fe16      1.0  0.44454  0.00290  0.88794  1.0000
  C   C73       1.0  0.48005  0.07501  0.81254  1.0000
  S   S26       1.0  0.34429  0.00948  0.88819  1.0000
  S   S27       1.0  0.41355  0.06134  0.90470  1.0000
  H   H132      1.0  0.40245  0.17132  0.79029  1.0000
  C   C74       1.0  0.49243  0.13355  0.96723  1.0000
  H   H133      1.0  0.39876  0.16656  0.73766  1.0000
  S   S28       1.0  0.42034  0.99603  0.84716  1.0000
  C   C75       1.0  0.36783  0.04155  0.99712  1.0000
  C   C76       1.0  0.38371  0.08148  0.98849  1.0000
  C   C77       1.0  0.39699  0.10808  0.00893  1.0000
  H   H134      1.0  0.31239  0.27237  0.71375  1.0000
  H   H135      1.0  0.38452  0.09256  0.96634  1.0000
  H   H136      1.0  0.25187  0.24321  0.71589  1.0000
  C   C78       1.0  0.49446  0.22169  0.73282  1.0000
  C   C79       1.0  0.37634  0.10194  0.74030  1.0000
  C   C80       1.0  0.36637  0.06632  0.75869  1.0000
  C   C81       1.0  0.36958  0.06837  0.78838  1.0000
  C   C82       1.0  0.38194  0.10657  0.79995  1.0000
  C   C83       1.0  0.39266  0.14180  0.78144  1.0000
  C   C84       1.0  0.39056  0.13915  0.75161  1.0000
  H   H137      1.0  0.35556  0.03729  0.75006  1.0000
  H   H138      1.0  0.36127  0.04106  0.80252  1.0000
  N   N4        1.0  0.28483  0.18968  0.72608  1.0000
  C   C85       1.0  0.31851  0.20755  0.73399  1.0000
  C   C86       1.0  0.27782  0.14527  0.74008  1.0000
  H   H139      1.0  0.46643  0.16360  0.74785  1.0000
  C   C87       1.0  0.25443  0.22022  0.73410  1.0000
  C   C88       1.0  0.25520  0.24967  0.76117  1.0000
  C   C89       1.0  0.33316  0.24878  0.71696  1.0000
  H   H140      1.0  0.48017  0.13090  0.78539  1.0000
  C   C90       1.0  0.27648  0.14259  0.77343  1.0000
  C   C91       1.0  0.27139  0.09532  0.78403  1.0000
  C   C92       1.0  0.22034  0.27258  0.76962  1.0000
  C   C93       1.0  0.44786  0.02170  0.69967  1.0000
  H   H141      1.0  0.24686  0.43240  0.77440  1.0000
  H   H142      1.0  0.33903  0.18221  0.73009  1.0000
  H   H143      1.0  0.31642  0.21479  0.75749  1.0000
  H   H144      1.0  0.40894  0.36379  0.72451  1.0000
  H   H145      1.0  0.29801  0.12159  0.73049  1.0000
  H   H146      1.0  0.20425  0.39745  0.69895  1.0000
  H   H147      1.0  0.45582  0.08445  0.77433  1.0000
  H   H148      1.0  0.47601  0.16832  0.70940  1.0000
  H   H149      1.0  0.37269  0.29859  0.71830  1.0000
  H   H150      1.0  0.27537  0.27552  0.75660  1.0000
  H   H151      1.0  0.26116  0.23109  0.78023  1.0000
  H   H152      1.0  0.44380  0.01390  0.00816  1.0000
  C   C94       1.0  0.34605  0.44480  0.72082  1.0000
  H   H153      1.0  0.48263  0.98803  0.01762  1.0000
  H   H154      1.0  0.48261  0.08812  0.87831  1.0000
  H   H155      1.0  0.30096  0.15449  0.78053  1.0000
  H   H156      1.0  0.25408  0.16137  0.78433  1.0000
  H   H157      1.0  0.29287  0.07434  0.77366  1.0000
  H   H158      1.0  0.34614  0.23893  0.69517  1.0000
  H   H159      1.0  0.45659  0.08583  0.82716  1.0000
  H   H160      1.0  0.19937  0.24818  0.77605  1.0000
  H   H161      1.0  0.42425  0.03375  0.71354  1.0000
  H   H162      1.0  0.21353  0.29249  0.75126  1.0000
  H   H163      1.0  0.41533  0.42156  0.71814  1.0000
  C   C95       1.0  0.39784  0.39342  0.71554  1.0000
  H   H164      1.0  0.22959  0.20130  0.73721  1.0000
  H   H165      1.0  0.27260  0.43367  0.82040  1.0000
  H   H166      1.0  0.05985  0.46850  0.69954  1.0000
  C   C96       1.0  0.48036  0.03171  0.71363  1.0000
  H   H167      1.0  0.47105  0.17277  0.91927  1.0000
  C   C97       1.0  0.30176  0.45059  0.76327  1.0000
  H   H168      1.0  0.22540  0.36562  0.72400  1.0000
  H   H169      1.0  0.40776  0.13985  0.00256  1.0000
  H   H170      1.0  0.35148  0.44390  0.69670  1.0000
  H   H171      1.0  0.34476  0.37322  0.72778  1.0000
  H   H172      1.0  0.44515  0.98581  0.69706  1.0000
  H   H173      1.0  0.46577  0.13609  0.97939  1.0000
  C   C98       1.0  0.28725  0.41704  0.71769  1.0000
  H   H174      1.0  0.34778  0.28653  0.75311  1.0000
  H   H175      1.0  0.47541  0.17756  0.01755  1.0000
  C   C99       1.0  0.36606  0.02788  0.02603  1.0000
  H   H176      1.0  0.45022  0.20156  0.95082  1.0000
  H   H177      1.0  0.28554  0.38728  0.73164  1.0000
  C   C100      1.0  0.36128  0.40179  0.73147  1.0000
  C   C101      1.0  0.36023  0.27206  0.73240  1.0000
  H   H178      1.0  0.22198  0.29460  0.78834  1.0000
  H   H179      1.0  0.47015  0.24058  0.73239  1.0000
  H   H180      1.0  0.23594  0.46994  0.82127  1.0000
  N   N5        1.0  0.30772  0.45250  0.73053  1.0000
  C   C102      1.0  0.22989  0.38769  0.70489  1.0000
  C   C103      1.0  0.26316  0.46411  0.81108  1.0000
  H   H181      1.0  0.48951  0.11204  0.94843  1.0000
  H   H182      1.0  0.25251  0.13191  0.73539  1.0000
  H   H183      1.0  0.27142  0.09404  0.80788  1.0000
  H   H184      1.0  0.24621  0.08200  0.77909  1.0000
  C   C104      1.0  0.49185  0.03498  0.98195  1.0000
  H   H185      1.0  0.46099  0.09532  0.72709  1.0000
  H   H186      1.0  0.47321  0.08430  0.01327  1.0000
  S   S29       1.0  0.36815  0.10010  0.70394  1.0000
  C   C105      1.0  0.46959  0.00019  0.99941  1.0000
  H   H187      1.0  0.36346  0.40388  0.75495  1.0000
  H   H188      1.0  0.47770  0.04525  0.96397  1.0000
  H   H189      1.0  0.47699  0.01590  0.73529  1.0000
  H   H190      1.0  0.31974  0.47392  0.77218  1.0000
  C   C106      1.0  0.48588  0.08175  0.71611  1.0000
  C   C107      1.0  0.48007  0.09497  0.78245  1.0000
  C   C108      1.0  0.48689  0.17294  0.72998  1.0000
  C   C109      1.0  0.24995  0.42848  0.71193  1.0000
  C   C110      1.0  0.26432  0.45995  0.77825  1.0000
  H   H191      1.0  0.47982  0.03874  0.81142  1.0000
  C   C111      1.0  0.49892  0.07430  0.00142  1.0000
  C   C112      1.0  0.47531  0.19630  0.93659  1.0000
  H   H192      1.0  0.30109  0.40613  0.69638  1.0000
  H   H193      1.0  0.48410  0.22793  0.92624  1.0000
  H   H194      1.0  0.48899  0.09537  0.69362  1.0000
  C   C113      1.0  0.28990  0.18272  0.69364  1.0000
  H   H195      1.0  0.25116  0.45096  0.69312  1.0000
  H   H196      1.0  0.10264  0.78324  0.05356  1.0000
  H   H197      1.0  0.11739  0.84485  0.09892  1.0000
  H   H198      1.0  0.11892  0.74984  0.21435  1.0000
  S   S30       1.0  0.39838  0.94061  0.14210  1.0000
  C   C114      1.0  0.14298  0.68377  0.30877  1.0000
  H   H199      1.0  0.31938  0.90906  0.20357  1.0000
  Fe  Fe17      1.0  0.23308  0.61909  0.34117  1.0000
  S   S31       1.0  0.25177  0.67001  0.30690  1.0000
  Fe  Fe18      1.0  0.23222  0.80189  0.13342  1.0000
  S   S32       1.0  0.27007  0.74816  0.11966  1.0000
  S   S33       1.0  0.24400  0.87141  0.14544  1.0000
  Fe  Fe19      1.0  0.16949  0.74670  0.12217  1.0000
  S   S34       1.0  0.20247  0.68908  0.10657  1.0000
  S   S35       1.0  0.11103  0.75131  0.12420  1.0000
  Fe  Fe20      1.0  0.23015  0.70389  0.14500  1.0000
  S   S36       1.0  0.24248  0.64658  0.17278  1.0000
  Fe  Fe21      1.0  0.23910  0.73824  0.08279  1.0000
  S   S37       1.0  0.19472  0.75870  0.16194  1.0000
  S   S38       1.0  0.20371  0.79485  0.09516  1.0000
  C   C115      1.0  0.24708  0.66191  0.27013  1.0000
  C   C116      1.0  0.25467  0.62172  0.25646  1.0000
  C   C117      1.0  0.25307  0.61730  0.22659  1.0000
  C   C118      1.0  0.24360  0.65289  0.21030  1.0000
  C   C119      1.0  0.23470  0.69249  0.22422  1.0000
  C   C120      1.0  0.23686  0.69715  0.25395  1.0000
  H   H200      1.0  0.26276  0.59445  0.26873  1.0000
  H   H201      1.0  0.25972  0.58641  0.21598  1.0000
  H   H202      1.0  0.22649  0.71951  0.21191  1.0000
  H   H203      1.0  0.23025  0.72798  0.26460  1.0000
  C   C121      1.0  0.04932  0.62545  0.11555  1.0000
  C   C122      1.0  0.08495  0.62335  0.11763  1.0000
  C   C123      1.0  0.10409  0.66172  0.12069  1.0000
  C   C124      1.0  0.08770  0.70241  0.12151  1.0000
  C   C125      1.0  0.05202  0.70450  0.11974  1.0000
  C   C126      1.0  0.03290  0.66615  0.11673  1.0000
  H   H204      1.0  0.13152  0.65970  0.12227  1.0000
  H   H205      1.0  0.03917  0.73591  0.12048  1.0000
  C   C127      1.0  0.32812  0.73967  0.17371  1.0000
  H   H206      1.0  0.03703  0.57009  0.18418  1.0000
  H   H207      1.0  0.33613  0.76089  0.15454  1.0000
  H   H208      1.0  0.06912  0.70288  0.20821  1.0000
  H   H209      1.0  0.35108  0.79463  0.21116  1.0000
  C   C128      1.0  0.35553  0.92283  0.14029  1.0000
  C   C129      1.0  0.34942  0.87835  0.13540  1.0000
  C   C130      1.0  0.31533  0.86245  0.13587  1.0000
  C   C131      1.0  0.28714  0.89085  0.14175  1.0000
  C   C132      1.0  0.29326  0.93544  0.14615  1.0000
  C   C133      1.0  0.32739  0.95150  0.14522  1.0000
  H   H210      1.0  0.37114  0.85602  0.13168  1.0000
  H   H211      1.0  0.31083  0.82808  0.13248  1.0000
  H   H212      1.0  0.27149  0.95755  0.15074  1.0000
  C   C134      1.0  0.35822  0.76091  0.06850  1.0000
  H   H213      1.0  0.27172  0.84659  0.28782  1.0000
  C   C135      1.0  0.05144  0.72934  0.20341  1.0000
  H   H214      1.0  0.21108  0.84404  0.20172  1.0000
  H   H215      1.0  0.03282  0.72877  0.29838  1.0000
  H   H216      1.0  0.36724  0.96196  0.20533  1.0000
  N   N6        1.0  0.13947  0.58139  0.25842  1.0000
  C   C136      1.0  0.12913  0.61517  0.28171  1.0000
  H   H217      1.0  0.10917  0.52347  0.27310  1.0000
  C   C137      1.0  0.16905  0.55545  0.26782  1.0000
  C   C138      1.0  0.15229  0.60182  0.22936  1.0000
  C   C139      1.0  0.12706  0.63322  0.21682  1.0000
  C   C140      1.0  0.15656  0.65114  0.28516  1.0000
  C   C141      1.0  0.21140  0.49215  0.26122  1.0000
  H   H218      1.0  0.06087  0.77091  0.24038  1.0000
  H   H219      1.0  0.02471  0.57672  0.28867  1.0000
  C   C142      1.0  0.14547  0.65769  0.19035  1.0000
  H   H220      1.0  0.22717  0.65810  0.04077  1.0000
  H   H221      1.0  0.12262  0.59868  0.30317  1.0000
  H   H222      1.0  0.10530  0.63287  0.27824  1.0000
  H   H223      1.0  0.11840  0.69912  0.30425  1.0000
  C   C143      1.0  0.07223  0.56829  0.25846  1.0000
  H   H224      1.0  0.16091  0.54173  0.28992  1.0000
  H   H225      1.0  0.19190  0.57673  0.26939  1.0000
  H   H226      1.0  0.17732  0.61928  0.23019  1.0000
  H   H227      1.0  0.15868  0.57620  0.21257  1.0000
  H   H228      1.0  0.11622  0.65800  0.23287  1.0000
  H   H229      1.0  0.10563  0.61405  0.20945  1.0000
  C   C144      1.0  0.13084  0.84518  0.05186  1.0000
  H   H230      1.0  0.16349  0.66982  0.26473  1.0000
  C   C145      1.0  0.36241  0.79809  0.04627  1.0000
  H   H231      1.0  0.01477  0.58443  0.04851  1.0000
  H   H232      1.0  0.05431  0.52058  0.03619  1.0000
  H   H233      1.0  0.05794  0.54952  0.24337  1.0000
  H   H234      1.0  0.36151  0.88330  0.19739  1.0000
  C   C146      1.0  0.41435  0.93070  0.05692  1.0000
  H   H235      1.0  0.10938  0.89585  0.08165  1.0000
  H   H236      1.0  0.12669  0.67866  0.18081  1.0000
  H   H237      1.0  0.16644  0.67886  0.19671  1.0000
  H   H238      1.0  0.15708  0.63437  0.17346  1.0000
  H   H239      1.0  0.04706  0.66571  0.04208  1.0000
  C   C147      1.0  0.06507  0.77179  0.21634  1.0000
  C   C148      1.0  0.30521  0.76488  0.19740  1.0000
  N   N7        1.0  0.30707  0.82977  0.23339  1.0000
  C   C149      1.0  0.30321  0.79940  0.25927  1.0000
  C   C150      1.0  0.32466  0.80527  0.20727  1.0000
  C   C151      1.0  0.33116  0.86662  0.23944  1.0000
  C   C152      1.0  0.29194  0.82140  0.28911  1.0000
  C   C153      1.0  0.34209  0.89889  0.21398  1.0000
  H   H240      1.0  0.32880  0.82699  0.18798  1.0000
  C   C154      1.0  0.05138  0.56367  0.28878  1.0000
  C   C155      1.0  0.27779  0.78781  0.31217  1.0000
  H   H241      1.0  0.38138  0.87855  0.07504  1.0000
  H   H242      1.0  0.32828  0.78239  0.26075  1.0000
  H   H243      1.0  0.28464  0.77252  0.25683  1.0000
  H   H244      1.0  0.26229  0.85323  0.05403  1.0000
  H   H245      1.0  0.04525  0.63483  0.21560  1.0000
  H   H246      1.0  0.35553  0.85330  0.24619  1.0000
  H   H247      1.0  0.31885  0.88674  0.25795  1.0000
  H   H248      1.0  0.31476  0.83772  0.29654  1.0000
  H   H249      1.0  0.29764  0.74157  0.21537  1.0000
  H   H250      1.0  0.34056  0.95831  0.24011  1.0000
  H   H251      1.0  0.28175  0.77548  0.18812  1.0000
  H   H252      1.0  0.25352  0.77253  0.30669  1.0000
  H   H253      1.0  0.18038  0.63683  0.29175  1.0000
  H   H254      1.0  0.29724  0.76171  0.31397  1.0000
  H   H255      1.0  0.27172  0.80408  0.33357  1.0000
  H   H256      1.0  0.08053  0.85001  0.07923  1.0000
  H   H257      1.0  0.16609  0.64593  0.05286  1.0000
  H   H258      1.0  0.27428  0.85787  0.20409  1.0000
  C   C156      1.0  0.27285  0.84912  0.22748  1.0000
  H   H259      1.0  0.26763  0.88066  0.23922  1.0000
  C   C157      1.0  0.23963  0.82084  0.23583  1.0000
  H   H260      1.0  0.11000  0.78076  0.18305  1.0000
  H   H261      1.0  0.13851  0.66697  0.33008  1.0000
  C   C158      1.0  0.33215  0.83124  0.05252  1.0000
  H   H262      1.0  0.23378  0.81682  0.25967  1.0000
  H   H263      1.0  0.24263  0.78801  0.22618  1.0000
  H   H264      1.0  0.42162  0.93982  0.07835  1.0000
  H   H265      1.0  0.33030  0.84155  0.07558  1.0000
  S   S39       1.0  0.20071  0.56006  0.33461  1.0000
  H   H266      1.0  0.35167  0.72704  0.18198  1.0000
  C   C159      1.0  0.37905  0.90749  0.06111  1.0000
  H   H267      1.0  0.31332  0.71127  0.16680  1.0000
  C   C160      1.0  0.10983  0.54969  0.25632  1.0000
  C   C161      1.0  0.10416  0.77779  0.20698  1.0000
  H   H268      1.0  0.30798  0.81222  0.05133  1.0000
  H   H269      1.0  0.06360  0.58208  0.30520  1.0000
  C   C162      1.0  0.14160  0.65192  0.04376  1.0000
  H   H270      1.0  0.11319  0.80821  0.21666  1.0000
  H   H271      1.0  0.05564  0.68765  0.25374  1.0000
  C   C163      1.0  0.20774  0.84184  0.22572  1.0000
  H   H272      1.0  0.20339  0.87513  0.23501  1.0000
  H   H273      1.0  0.00910  0.50642  0.04378  1.0000
  H   H274      1.0  0.18434  0.82149  0.23285  1.0000
  C   C164      1.0  0.01611  0.59440  0.19031  1.0000
  H   H275      1.0  0.14322  0.78258  0.06679  1.0000
  H   H276      1.0  0.38263  0.93163  0.23416  1.0000
  C   C165      1.0  0.24070  0.91742  0.05815  1.0000
  C   C166      1.0  0.13231  0.70042  0.04583  1.0000
  H   H277      1.0  0.16275  0.70984  0.30998  1.0000
  H   H278      1.0  0.09781  0.59193  0.11685  1.0000
  H   H279      1.0  0.05603  0.73246  0.17932  1.0000
  H   H280      1.0  0.07145  0.60262  0.25150  1.0000
  H   H281      1.0  0.05197  0.80104  0.20891  1.0000
  H   H282      1.0  0.35804  0.77390  0.09080  1.0000
  H   H283      1.0  0.18287  0.73073  0.03736  1.0000
  C   C167      1.0  0.36816  0.89422  0.03148  1.0000
  H   H284      1.0  0.30654  0.90868  0.06786  1.0000
  C   C168      1.0  0.35914  0.94013  0.22419  1.0000
  H   H285      1.0  0.21402  0.90544  0.05646  1.0000
  C   C169      1.0  0.03215  0.63861  0.19630  1.0000
  H   H286      1.0  0.24414  0.95022  0.04781  1.0000
  H   H287      1.0  0.16234  0.49309  0.24505  1.0000
  C   C170      1.0  0.02394  0.69498  0.29447  1.0000
  H   H288      1.0  0.35990  0.93026  0.07292  1.0000
  H   H289      1.0  0.12062  0.63240  0.05654  1.0000
  H   H290      1.0  0.24344  0.92024  0.08154  1.0000
  S   S40       1.0  0.02612  0.57672  0.11173  1.0000
  N   N8        1.0  0.01373  0.71780  0.21342  1.0000
  H   H291      1.0  0.13191  0.70998  0.06876  1.0000
  C   C171      1.0  0.10807  0.85972  0.07962  1.0000
  H   H292      1.0  0.05225  0.64685  0.17767  1.0000
  H   H293      1.0  0.03343  0.73847  0.06485  1.0000
  H   H294      1.0  0.38800  0.81376  0.04731  1.0000
  H   H295      1.0  0.38022  0.73771  0.06381  1.0000
  C   C172      1.0  0.30507  0.90153  0.04462  1.0000
  H   H296      1.0  0.33361  0.74268  0.06738  1.0000
  S   S41       1.0  0.26603  0.74023  0.03646  1.0000
  C   C173      1.0  0.26738  0.88530  0.04312  1.0000
  H   H297      1.0  0.41314  0.96105  0.04403  1.0000
  H   H298      1.0  0.43483  0.90895  0.04578  1.0000
  H   H299      1.0  0.03770  0.60226  0.35639  1.0000
  H   H300      1.0  0.23354  0.51429  0.26384  1.0000
  C   C174      1.0  0.18320  0.51686  0.24802  1.0000
  C   C175      1.0  0.02759  0.68520  0.26205  1.0000
  C   C176      1.0  0.13013  0.79467  0.04856  1.0000
  H   H301      1.0  0.04017  0.67179  0.30507  1.0000
  H   H302      1.0  0.11463  0.53172  0.23535  1.0000
  H   H303      1.0  0.01859  0.65105  0.25968  1.0000
  H   H304      1.0  0.34466  0.56598  0.35752  1.0000
  H   H305      1.0  0.00554  0.66822  0.11522  1.0000
  H   H306      1.0  0.10557  0.70422  0.04064  1.0000
  H   H307      1.0  0.19525  0.52892  0.22643  1.0000
  H   H308      1.0  0.30840  0.49550  0.34487  1.0000
  H   H309      1.0  0.15783  0.85632  0.05342  1.0000
  H   H310      1.0  0.30843  0.93387  0.03349  1.0000
  H   H311      1.0  0.12183  0.86233  0.03339  1.0000
  N   N9        1.0  0.33377  0.87060  0.03277  1.0000
  H   H312      1.0  0.04908  0.52872  0.29536  1.0000
  C   C177      1.0  0.02878  0.52351  0.02813  1.0000
  H   H313      1.0  0.00650  0.74987  0.25532  1.0000
  H   H314      1.0  0.00307  0.65204  0.03911  1.0000
  C   C178      1.0  0.00931  0.73769  0.05451  1.0000
  C   C179      1.0  0.00421  0.67491  0.20025  1.0000
  C   C180      1.0  0.02682  0.66781  0.02730  1.0000
  C   C181      1.0  0.00528  0.71643  0.24608  1.0000
  H   H315      1.0  0.12684  0.51903  0.54001  1.0000
  H   H316      1.0  0.38832  0.59327  0.48453  1.0000
  H   H317      1.0  0.38271  0.59694  0.36306  1.0000
  C   C182      1.0  0.06853  0.57034  0.44589  1.0000
  Fe  Fe22      1.0  0.22300  0.60652  0.40719  1.0000
  S   S42       1.0  0.23790  0.64038  0.44681  1.0000
  C   C183      1.0  0.29604  0.55263  0.68028  1.0000
  H   H318      1.0  0.35985  0.56723  0.51392  1.0000
  C   C184      1.0  0.02890  0.64991  0.45341  1.0000
  Fe  Fe23      1.0  0.15624  0.50365  0.61604  1.0000
  S   S43       1.0  0.18563  0.56072  0.63084  1.0000
  S   S44       1.0  0.10246  0.50957  0.60313  1.0000
  Fe  Fe24      1.0  0.23024  0.53271  0.60041  1.0000
  S   S45       1.0  0.26715  0.57491  0.57053  1.0000
  Fe  Fe25      1.0  0.20150  0.51433  0.66408  1.0000
  H   H319      1.0  0.03994  0.65667  0.43051  1.0000
  H   H320      1.0  0.30559  0.56024  0.65720  1.0000
  C   C185      1.0  0.33841  0.57128  0.47313  1.0000
  H   H321      1.0  0.05694  0.63691  0.55807  1.0000
  C   C186      1.0  0.25782  0.59046  0.53592  1.0000
  C   C187      1.0  0.23843  0.56424  0.51921  1.0000
  C   C188      1.0  0.23259  0.57832  0.49131  1.0000
  C   C189      1.0  0.24592  0.61863  0.48036  1.0000
  C   C190      1.0  0.26517  0.64441  0.49719  1.0000
  C   C191      1.0  0.27140  0.63025  0.52457  1.0000
  H   H322      1.0  0.22804  0.53325  0.52774  1.0000
  H   H323      1.0  0.21730  0.55856  0.47854  1.0000
  H   H324      1.0  0.27558  0.67559  0.48895  1.0000
  H   H325      1.0  0.28660  0.65054  0.53716  1.0000
  C   C192      1.0  0.03854  0.63248  0.62854  1.0000
  C   C193      1.0  0.07114  0.62723  0.63777  1.0000
  C   C194      1.0  0.09090  0.58949  0.63036  1.0000
  C   C195      1.0  0.07837  0.55706  0.61334  1.0000
  C   C196      1.0  0.04574  0.56227  0.60423  1.0000
  C   C197      1.0  0.02586  0.59984  0.61182  1.0000
  H   H326      1.0  0.08112  0.65241  0.65073  1.0000
  H   H327      1.0  0.11567  0.58555  0.63796  1.0000
  H   H328      1.0  0.03576  0.53693  0.59142  1.0000
  H   H329      1.0  0.33887  0.59558  0.45538  1.0000
  H   H330      1.0  0.08239  0.51780  0.41479  1.0000
  H   H331      1.0  0.31152  0.56880  0.48457  1.0000
  C   C198      1.0  0.01626  0.59071  0.50781  1.0000
  H   H332      1.0  0.04628  0.73823  0.44222  1.0000
  C   C199      1.0  0.09534  0.67043  0.38239  1.0000
  H   H333      1.0  0.03079  0.55976  0.50315  1.0000
  C   C200      1.0  0.03128  0.69816  0.55497  1.0000
  H   H334      1.0  0.03599  0.73373  0.55744  1.0000
  C   C201      1.0  0.35741  0.58403  0.37390  1.0000
  S   S46       1.0  0.19466  0.64607  0.37718  1.0000
  H   H335      1.0  0.37771  0.57264  0.41366  1.0000
  H   H336      1.0  0.05173  0.64639  0.46504  1.0000
  H   H337      1.0  0.02998  0.57038  0.41752  1.0000
  C   C202      1.0  0.02949  0.57079  0.44156  1.0000
  C   C203      1.0  0.32860  0.53535  0.41464  1.0000
  C   C204      1.0  0.04823  0.63185  0.36452  1.0000
  N   N10       1.0  0.33145  0.50492  0.43971  1.0000
  N   N11       1.0  0.12680  0.65656  0.53406  1.0000
  C   C205      1.0  0.15206  0.67107  0.50806  1.0000
  C   C206      1.0  0.11664  0.60897  0.53118  1.0000
  C   C207      1.0  0.09428  0.68373  0.53444  1.0000
  C   C208      1.0  0.14086  0.66422  0.56228  1.0000
  C   C209      1.0  0.17694  0.64457  0.56507  1.0000
  C   C210      1.0  0.16279  0.72011  0.50735  1.0000
  C   C211      1.0  0.06385  0.67203  0.55846  1.0000
  C   C212      1.0  0.14467  0.57783  0.51576  1.0000
  H   H338      1.0  0.30414  0.48306  0.67433  1.0000
  C   C213      1.0  0.19061  0.66206  0.59208  1.0000
  C   C214      1.0  0.19198  0.72973  0.48260  1.0000
  Fe  Fe26      1.0  0.16394  0.58527  0.37234  1.0000
  H   H339      1.0  0.14080  0.66434  0.48774  1.0000
  H   H340      1.0  0.17640  0.65172  0.50585  1.0000
  H   H341      1.0  0.10715  0.59460  0.55291  1.0000
  H   H342      1.0  0.09444  0.60603  0.51851  1.0000
  H   H343      1.0  0.08455  0.68143  0.51308  1.0000
  H   H344      1.0  0.09982  0.71893  0.53779  1.0000
  H   H345      1.0  0.14175  0.69986  0.56700  1.0000
  H   H346      1.0  0.12283  0.65029  0.58075  1.0000
  H   H347      1.0  0.19671  0.65282  0.54635  1.0000
  H   H348      1.0  0.17483  0.60852  0.56744  1.0000
  H   H349      1.0  0.14054  0.74113  0.50374  1.0000
  H   H350      1.0  0.17216  0.73005  0.52781  1.0000
  H   H351      1.0  0.07091  0.67999  0.58013  1.0000
  H   H352      1.0  0.08298  0.59572  0.43187  1.0000
  H   H353      1.0  0.15108  0.58668  0.49245  1.0000
  H   H354      1.0  0.16862  0.57942  0.52588  1.0000
  H   H355      1.0  0.01457  0.57651  0.55339  1.0000
  S   S47       1.0  0.24955  0.49220  0.63521  1.0000
  H   H356      1.0  0.17187  0.65498  0.61185  1.0000
  H   H357      1.0  0.21575  0.64610  0.59437  1.0000
  H   H358      1.0  0.19514  0.69791  0.59024  1.0000
  H   H359      1.0  0.19710  0.76548  0.48111  1.0000
  H   H360      1.0  0.21629  0.71333  0.48664  1.0000
  H   H361      1.0  0.18485  0.71835  0.46154  1.0000
  H   H362      1.0  0.34087  0.61213  0.38216  1.0000
  S   S48       1.0  0.10653  0.58338  0.36791  1.0000
  C   C215      1.0  0.31149  0.50933  0.68873  1.0000
  S   S49       1.0  0.18874  0.54775  0.40563  1.0000
  C   C216      1.0  0.13210  0.53036  0.51715  1.0000
  S   S50       1.0  0.01440  0.75481  0.38578  1.0000
  S   S51       1.0  0.01482  0.68068  0.63743  1.0000
  H   H363      1.0  0.28111  0.52475  0.46131  1.0000
  C   C217      1.0  0.29528  0.49425  0.45443  1.0000
  C   C218      1.0  0.08207  0.63201  0.37179  1.0000
  C   C219      1.0  0.08525  0.52616  0.43756  1.0000
  H   H364      1.0  0.08522  0.73797  0.39396  1.0000
  H   H365      1.0  0.31583  0.51830  0.39786  1.0000
  H   H366      1.0  0.31111  0.56334  0.42163  1.0000
  C   C220      1.0  0.36351  0.55364  0.39875  1.0000
  H   H367      1.0  0.26723  0.55056  0.68292  1.0000
  H   H368      1.0  0.35092  0.62185  0.50262  1.0000
  C   C221      1.0  0.07483  0.70840  0.38568  1.0000
  C   C222      1.0  0.35153  0.52583  0.46163  1.0000
  C   C223      1.0  0.02776  0.66977  0.36781  1.0000
  H   H369      1.0  0.07257  0.57728  0.46844  1.0000
  C   C224      1.0  0.04074  0.70803  0.37882  1.0000
  H   H370      1.0  0.03473  0.61832  0.50795  1.0000
  C   C225      1.0  0.00983  0.69179  0.46559  1.0000
  H   H371      1.0  0.10808  0.52683  0.50687  1.0000
  H   H372      1.0  0.02280  0.69194  0.53357  1.0000
  N   N12       1.0  0.00745  0.60839  0.45483  1.0000
  C   C226      1.0  0.36091  0.58933  0.49485  1.0000
  H   H373      1.0  0.35083  0.50447  0.48105  1.0000
  H   H374      1.0  0.11345  0.52765  0.43939  1.0000
  Fe  Fe27      1.0  0.22851  0.52757  0.36810  1.0000
  H   H375      1.0  0.01764  0.53896  0.44945  1.0000
  H   H376      1.0  0.12131  0.67092  0.38822  1.0000
  H   H377      1.0  0.15258  0.50915  0.50544  1.0000
  H   H378      1.0  0.34023  0.51324  0.68478  1.0000
  H   H379      1.0  0.37960  0.52892  0.45278  1.0000
  H   H380      1.0  0.38048  0.52673  0.38923  1.0000
  H   H381      1.0  0.07312  0.49998  0.45221  1.0000
  H   H382      1.0  0.05592  0.72402  0.47797  1.0000
  S   S52       1.0  0.26446  0.58456  0.37163  1.0000
  C   C227      1.0  0.02667  0.51044  0.67710  1.0000
  C   C228      1.0  0.03476  0.73071  0.46485  1.0000
  H   H383      1.0  0.01000  0.68788  0.57207  1.0000
  H   H384      1.0  0.02026  0.76001  0.47384  1.0000
  H   H385      1.0  0.02316  0.51683  0.65440  1.0000
  H   H386      1.0  0.26463  0.49170  0.41840  1.0000
  H   H387      1.0  0.08022  0.48988  0.66531  1.0000
  H   H388      1.0  0.22294  0.48329  0.46363  1.0000
  H   H389      1.0  0.03611  0.54117  0.68595  1.0000
  H   H390      1.0  0.00187  0.66917  0.36194  1.0000
  Fe  Fe28      1.0  0.13780  0.69061  0.88026  1.0000
  S   S53       1.0  0.17346  0.63424  0.86777  1.0000
  S   S54       1.0  0.07947  0.68944  0.88142  1.0000
  Fe  Fe29      1.0  0.19811  0.75404  0.88634  1.0000
  S   S55       1.0  0.23846  0.70260  0.87409  1.0000
  S   S56       1.0  0.20821  0.82454  0.89708  1.0000
  Fe  Fe30      1.0  0.20606  0.68306  0.83955  1.0000
  S   S57       1.0  0.22748  0.68019  0.79162  1.0000
  Fe  Fe31      1.0  0.20208  0.65939  0.90351  1.0000
  S   S58       1.0  0.21616  0.61819  0.94024  1.0000
  S   S59       1.0  0.16833  0.73797  0.84992  1.0000
  S   S60       1.0  0.16376  0.71224  0.91791  1.0000
  H   H391      1.0  0.01429  0.63689  0.79587  1.0000
  C   C229      1.0  0.23202  0.65012  0.96709  1.0000
  C   C230      1.0  0.25302  0.68669  0.95933  1.0000
  C   C231      1.0  0.26497  0.71251  0.98085  1.0000
  H   H392      1.0  0.35022  0.91838  0.79339  1.0000
  H   H393      1.0  0.21883  0.60911  0.69840  1.0000
  C   C232      1.0  0.22337  0.63928  0.99652  1.0000
  H   H394      1.0  0.26032  0.69493  0.93670  1.0000
  H   H395      1.0  0.28145  0.74051  0.97461  1.0000
  H   H396      1.0  0.33453  0.80350  0.87578  1.0000
  H   H397      1.0  0.20774  0.61050  0.00261  1.0000
  C   C233      1.0  0.20538  0.56469  0.73415  1.0000
  C   C234      1.0  0.21589  0.60506  0.72170  1.0000
  C   C235      1.0  0.22268  0.64032  0.73955  1.0000
  C   C236      1.0  0.21862  0.63551  0.76985  1.0000
  C   C237      1.0  0.20831  0.59508  0.78220  1.0000
  C   C238      1.0  0.20162  0.55987  0.76439  1.0000
  H   H398      1.0  0.23089  0.67150  0.72985  1.0000
  H   H399      1.0  0.20574  0.59097  0.80547  1.0000
  H   H400      1.0  0.19361  0.52863  0.77406  1.0000
  H   H401      1.0  0.11070  0.60740  0.83312  1.0000
  H   H402      1.0  0.05543  0.57796  0.98732  1.0000
  C   C239      1.0  0.05705  0.63910  0.88364  1.0000
  C   C240      1.0  0.07338  0.59996  0.88932  1.0000
  C   C241      1.0  0.05455  0.56042  0.89103  1.0000
  Fe  Fe32      1.0  0.38009  0.95392  0.87362  1.0000
  H   H403      1.0  0.10040  0.60018  0.89262  1.0000
  H   H404      1.0  0.06728  0.53019  0.89542  1.0000
  C   C242      1.0  0.31354  0.82691  0.87886  1.0000
  C   C243      1.0  0.27921  0.81247  0.88723  1.0000
  C   C244      1.0  0.25181  0.84239  0.89022  1.0000
  C   C245      1.0  0.25916  0.88714  0.88665  1.0000
  C   C246      1.0  0.29356  0.90169  0.87861  1.0000
  H   H405      1.0  0.27396  0.77812  0.89097  1.0000
  H   H406      1.0  0.23812  0.91053  0.88925  1.0000
  C   C247      1.0  0.29338  0.76788  0.81204  1.0000
  H   H407      1.0  0.02742  0.60289  0.76464  1.0000
  C   C248      1.0  0.32075  0.87147  0.87405  1.0000
  C   C249      1.0  0.33009  0.71453  0.83635  1.0000
  H   H408      1.0  0.31842  0.72562  0.85825  1.0000
  H   H409      1.0  0.06659  0.78336  0.96721  1.0000
  H   H410      1.0  0.26814  0.74596  0.74703  1.0000
  H   H411      1.0  0.13111  0.67926  0.77368  1.0000
  H   H412      1.0  0.35288  0.91066  0.97614  1.0000
  C   C250      1.0  0.01953  0.55971  0.88657  1.0000
  N   N13       1.0  0.03883  0.64390  0.99934  1.0000
  H   H413      1.0  0.09130  0.66712  0.00021  1.0000
  H   H414      1.0  0.07071  0.59780  0.01921  1.0000
  C   C251      1.0  0.08961  0.64138  0.95668  1.0000
  C   C252      1.0  0.01032  0.64280  0.98023  1.0000
  H   H415      1.0  0.16497  0.53140  0.82452  1.0000
  H   H416      1.0  0.09567  0.73734  0.82278  1.0000
  H   H417      1.0  0.35705  0.70346  0.83761  1.0000
  C   C253      1.0  0.12322  0.61779  0.96087  1.0000
  H   H418      1.0  0.24894  0.83371  0.77040  1.0000
  H   H419      1.0  0.03170  0.67574  0.93964  1.0000
  H   H420      1.0  0.06810  0.69891  0.97849  1.0000
  H   H421      1.0  0.32183  0.90088  0.93468  1.0000
  H   H422      1.0  0.08317  0.62120  0.74880  1.0000
  H   H423      1.0  0.00622  0.65400  0.72871  1.0000
  C   C254      1.0  0.07211  0.66456  0.98468  1.0000
  H   H424      1.0  0.02283  0.63425  0.69310  1.0000
  C   C255      1.0  0.29929  0.49809  0.72104  1.0000
  C   C256      1.0  0.02092  0.60303  0.78852  1.0000
  C   C257      1.0  0.04774  0.59772  0.00720  1.0000
  H   H425      1.0  0.07183  0.61810  0.94791  1.0000
  H   H426      1.0  0.09644  0.66642  0.93950  1.0000
  H   H427      1.0  0.27099  0.50473  0.72540  1.0000
  H   H428      1.0  0.13633  0.49157  0.84393  1.0000
  H   H429      1.0  0.13269  0.57385  0.70898  1.0000
  H   H430      1.0  0.13395  0.67281  0.81163  1.0000
  H   H431      1.0  0.13310  0.75053  0.79665  1.0000
  H   H432      1.0  0.03013  0.50736  0.00666  1.0000
  H   H433      1.0  0.31131  0.52297  0.73410  1.0000
  H   H434      1.0  0.19380  0.86750  0.79586  1.0000
  C   C258      1.0  0.08859  0.80657  0.96158  1.0000
  C   C259      1.0  0.32797  0.89227  0.97980  1.0000
  H   H435      1.0  0.12280  0.53632  0.75716  1.0000
  H   H436      1.0  0.30669  0.91571  0.98665  1.0000
  H   H437      1.0  0.13473  0.60269  0.94005  1.0000
  H   H438      1.0  0.27722  0.73914  0.80792  1.0000
  H   H439      1.0  0.31482  0.68637  0.82973  1.0000
  H   H440      1.0  0.29680  0.85617  0.95213  1.0000
  H   H441      1.0  0.01149  0.61209  0.96731  1.0000
  H   H442      1.0  0.17299  0.83657  0.00577  1.0000
  H   H443      1.0  0.13966  0.59551  0.80136  1.0000
  N   N14       1.0  0.14721  0.77526  0.02022  1.0000
  C   C260      1.0  0.12174  0.77137  0.99866  1.0000
  C   C261      1.0  0.10769  0.81464  0.98770  1.0000
  C   C262      1.0  0.19736  0.78736  0.97797  1.0000
  H   H444      1.0  0.31067  0.93182  0.81691  1.0000
  H   H445      1.0  0.06931  0.66073  0.82223  1.0000
  H   H446      1.0  0.06534  0.67012  0.78518  1.0000
  C   C263      1.0  0.23120  0.81289  0.96970  1.0000
  C   C264      1.0  0.08250  0.65514  0.79970  1.0000
  H   H447      1.0  0.34338  0.85092  0.94200  1.0000
  H   H448      1.0  0.34433  0.73456  0.71957  1.0000
  H   H449      1.0  0.12613  0.61439  0.75647  1.0000
  C   C265      1.0  0.10100  0.55424  0.74953  1.0000
  H   H450      1.0  0.19845  0.80062  0.02376  1.0000
  H   H451      1.0  0.16712  0.71138  0.00574  1.0000
  H   H452      1.0  0.13333  0.75202  0.97948  1.0000
  H   H453      1.0  0.09853  0.75236  0.00803  1.0000
  H   H454      1.0  0.12876  0.83856  0.98085  1.0000
  H   H455      1.0  0.08872  0.82924  0.00505  1.0000
  H   H456      1.0  0.20356  0.75217  0.97745  1.0000
  H   H457      1.0  0.18055  0.79382  0.96101  1.0000
  H   H458      1.0  0.08516  0.53387  0.83564  1.0000
  H   H459      1.0  0.10672  0.79320  0.94310  1.0000
  C   C266      1.0  0.11279  0.58925  0.81221  1.0000
  H   H460      1.0  0.27561  0.89532  0.78317  1.0000
  H   H461      1.0  0.35174  0.83432  0.99374  1.0000
  C   C267      1.0  0.02195  0.63847  0.87964  1.0000
  C   C268      1.0  0.05164  0.58534  0.80297  1.0000
  H   H462      1.0  0.24513  0.79981  0.94908  1.0000
  H   H463      1.0  0.22571  0.84806  0.96649  1.0000
  H   H464      1.0  0.24844  0.80952  0.98669  1.0000
  H   H465      1.0  0.11041  0.51836  0.80218  1.0000
  C   C269      1.0  0.11657  0.68273  0.79578  1.0000
  C   C270      1.0  0.25451  0.70335  0.01028  1.0000
  H   H466      1.0  0.23917  0.78045  0.78404  1.0000
  C   C271      1.0  0.09924  0.60122  0.76187  1.0000
  H   H467      1.0  0.22915  0.80496  0.83437  1.0000
  H   H468      1.0  0.18081  0.81132  0.80392  1.0000
  C   C272      1.0  0.33077  0.75187  0.81440  1.0000
  N   N15       1.0  0.29038  0.80360  0.79017  1.0000
  H   H469      1.0  0.34674  0.77866  0.82182  1.0000
  C   C273      1.0  0.25230  0.81153  0.78877  1.0000
  S   S61       1.0  0.36302  0.88781  0.85916  1.0000
  H   H470      1.0  0.34395  0.73958  0.79334  1.0000
  H   H471      1.0  0.24235  0.86001  0.82446  1.0000
  H   H472      1.0  0.29916  0.85110  0.82278  1.0000
  H   H473      1.0  0.17850  0.85105  0.83267  1.0000
  C   C274      1.0  0.19372  0.84051  0.81185  1.0000
  C   C275      1.0  0.23085  0.82971  0.81679  1.0000
  H   H474      1.0  0.28227  0.77891  0.83401  1.0000
  S   S62       1.0  0.19691  0.51895  0.71318  1.0000
  S   S63       1.0  0.40785  0.95496  0.91261  1.0000
  H   H475      1.0  0.36780  0.92502  0.01879  1.0000
  C   C276      1.0  0.29631  0.74605  0.74890  1.0000
  H   H476      1.0  0.30705  0.70436  0.71113  1.0000
  C   C277      1.0  0.10853  0.73134  0.80029  1.0000
  H   H477      1.0  0.11839  0.59158  0.97743  1.0000
  H   H478      1.0  0.33657  0.79054  0.75957  1.0000
  H   H479      1.0  0.30153  0.71869  0.76333  1.0000
  H   H480      1.0  0.31464  0.88243  0.75900  1.0000
  C   C278      1.0  0.30776  0.79073  0.76040  1.0000
  C   C279      1.0  0.30804  0.84416  0.79956  1.0000
  H   H481      1.0  0.30611  0.83420  0.00309  1.0000
  C   C280      1.0  0.17904  0.80149  0.00819  1.0000
  C   C281      1.0  0.32200  0.92516  0.79410  1.0000
  H   H482      1.0  0.05273  0.54953  0.79930  1.0000
  H   H483      1.0  0.07807  0.83792  0.95450  1.0000
  H   H484      1.0  0.00915  0.66864  0.87522  1.0000
  H   H485      1.0  0.31066  0.76201  0.70309  1.0000
  C   C282      1.0  0.32209  0.87363  0.95046  1.0000
  C   C283      1.0  0.13927  0.52667  0.83788  1.0000
  H   H486      1.0  0.33657  0.83892  0.79826  1.0000
  C   C284      1.0  0.10987  0.54017  0.82110  1.0000
  C   C285      1.0  0.30344  0.88647  0.78207  1.0000
  H   H487      1.0  0.13831  0.54606  0.85812  1.0000
  H   H488      1.0  0.29881  0.93609  0.87481  1.0000
  H   H489      1.0  0.08656  0.57051  0.70706  1.0000
  H   H490      1.0  0.07639  0.53590  0.75549  1.0000
  H   H491      1.0  0.01433  0.71306  0.96729  1.0000
  N   N16       1.0  0.08660  0.60666  0.79386  1.0000
  H   H492      1.0  0.14251  0.64135  0.96746  1.0000
  H   H493      1.0  0.04423  0.58908  0.82680  1.0000
  C   C286      1.0  0.31589  0.73634  0.71881  1.0000
  H   H494      1.0  0.09135  0.74303  0.78473  1.0000
  C   C287      1.0  0.32956  0.85546  0.00261  1.0000
  H   H495      1.0  0.30259  0.81569  0.74415  1.0000
  H   H496      1.0  0.11201  0.52132  0.70795  1.0000
  H   H497      1.0  0.36276  0.78317  0.02454  1.0000
  H   H498      1.0  0.25386  0.49079  0.77055  1.0000
  H   H499      1.0  0.38949  0.87458  0.01936  1.0000
  C   C288      1.0  0.01042  0.68060  0.95781  1.0000
  H   H500      1.0  0.00357  0.57190  0.72512  1.0000
  C   C289      1.0  0.01634  0.71628  0.02465  1.0000
  C   C290      1.0  0.00329  0.59893  0.88100  1.0000
  H   H501      1.0  0.27935  0.49222  0.81642  1.0000
  H   H502      1.0  0.26253  0.88200  0.02030  1.0000
  H   H503      1.0  0.03682  0.73585  0.01156  1.0000
  C   C291      1.0  0.23425  0.66617  0.01811  1.0000
  H   H504      1.0  0.14462  0.64050  0.02095  1.0000
  H   H505      1.0  0.31903  0.95495  0.78100  1.0000
  C   C292      1.0  0.10843  0.55520  0.71638  1.0000
  H   H506      1.0  0.46530  0.97223  0.98511  1.0000
  H   H507      1.0  0.30374  0.57975  0.69394  1.0000
  C   C293      1.0  0.01868  0.57155  0.02603  1.0000
  C   C294      1.0  0.15915  0.72945  0.02632  1.0000
  C   C295      1.0  0.72302  0.11581  0.27453  1.0000
  C   C296      1.0  0.65856  0.08442  0.12781  1.0000
  S   S64       1.0  0.76393  0.13963  0.31575  1.0000
  Fe  Fe33      1.0  0.73749  0.23504  0.10221  1.0000
  S   S65       1.0  0.70623  0.29594  0.09929  1.0000
  Fe  Fe34      1.0  0.70897  0.21905  0.16597  1.0000
  S   S66       1.0  0.67657  0.27992  0.16832  1.0000
  S   S67       1.0  0.69759  0.16597  0.19999  1.0000
  Fe  Fe35      1.0  0.66262  0.25881  0.12551  1.0000
  S   S68       1.0  0.60677  0.25917  0.11717  1.0000
  Fe  Fe36      1.0  0.72336  0.31178  0.14225  1.0000
  S   S69       1.0  0.73792  0.38225  0.15001  1.0000
  S   S70       1.0  0.69250  0.19647  0.12406  1.0000
  S   S71       1.0  0.75741  0.25256  0.14385  1.0000
  H   H508      1.0  0.71534  0.08775  0.28808  1.0000
  H   H509      1.0  0.81732  0.42302  0.05604  1.0000
  H   H510      1.0  0.66695  0.14743  0.06932  1.0000
  H   H511      1.0  0.75567  0.23867  0.31934  1.0000
  C   C297      1.0  0.79699  0.32080  0.02997  1.0000
  H   H512      1.0  0.60465  0.20201  0.02846  1.0000
  H   H513      1.0  0.70861  0.42688  0.20488  1.0000
  H   H514      1.0  0.68282  0.03888  0.09710  1.0000
  C   C298      1.0  0.77973  0.40039  0.13492  1.0000
  C   C299      1.0  0.78546  0.44507  0.12901  1.0000
  H   H515      1.0  0.89053  0.43741  0.20685  1.0000
  C   C300      1.0  0.84733  0.43222  0.11585  1.0000
  C   C301      1.0  0.84143  0.38735  0.12069  1.0000
  C   C302      1.0  0.80773  0.37145  0.13025  1.0000
  H   H516      1.0  0.76374  0.46744  0.13184  1.0000
  H   H517      1.0  0.81597  0.44772  0.18381  1.0000
  H   H518      1.0  0.86310  0.36489  0.11772  1.0000
  H   H519      1.0  0.80360  0.33695  0.13470  1.0000
  C   C303      1.0  0.74691  0.14595  0.28280  1.0000
  C   C304      1.0  0.75706  0.18194  0.26472  1.0000
  C   C305      1.0  0.74247  0.18855  0.23900  1.0000
  C   C306      1.0  0.71818  0.15862  0.23104  1.0000
  H   H520      1.0  0.77598  0.20498  0.27076  1.0000
  H   H521      1.0  0.74999  0.21664  0.22537  1.0000
  C   C307      1.0  0.58429  0.21038  0.12768  1.0000
  C   C308      1.0  0.59828  0.17966  0.14500  1.0000
  C   C309      1.0  0.58222  0.13867  0.15023  1.0000
  C   C310      1.0  0.55183  0.12835  0.13864  1.0000
  C   C311      1.0  0.53723  0.15961  0.12205  1.0000
  C   C312      1.0  0.55312  0.20079  0.11699  1.0000
  H   H522      1.0  0.62180  0.18719  0.15403  1.0000
  C   C313      1.0  0.73858  0.24592  0.33993  1.0000
  H   H523      1.0  0.54204  0.22472  0.10385  1.0000
  H   H524      1.0  0.59936  0.20385  0.06725  1.0000
  H   H525      1.0  0.56361  0.11299  0.25683  1.0000
  N   N17       1.0  0.64977  0.26138  0.31063  1.0000
  C   C314      1.0  0.63350  0.21683  0.31658  1.0000
  C   C315      1.0  0.63390  0.29235  0.33398  1.0000
  C   C316      1.0  0.64340  0.27628  0.28094  1.0000
  C   C317      1.0  0.68859  0.26020  0.31119  1.0000
  C   C318      1.0  0.68416  0.07474  0.14912  1.0000
  C   C319      1.0  0.64715  0.18062  0.29477  1.0000
  C   C320      1.0  0.65385  0.32429  0.27296  1.0000
  H   H526      1.0  0.78241  0.30329  0.07547  1.0000
  H   H527      1.0  0.62388  0.02263  0.09343  1.0000
  H   H528      1.0  0.65556  0.06944  0.02661  1.0000
  C   C321      1.0  0.63430  0.13557  0.30579  1.0000
  C   C322      1.0  0.64626  0.33551  0.24251  1.0000
  H   H529      1.0  0.60495  0.21803  0.31631  1.0000
  H   H530      1.0  0.63651  0.20567  0.33884  1.0000
  H   H531      1.0  0.66873  0.99566  0.05451  1.0000
  H   H532      1.0  0.59708  0.36843  0.35260  1.0000
  H   H533      1.0  0.61563  0.27146  0.27816  1.0000
  H   H534      1.0  0.65820  0.25543  0.26388  1.0000
  H   H535      1.0  0.70246  0.24526  0.29102  1.0000
  H   H536      1.0  0.69922  0.29405  0.31123  1.0000
  C   C323      1.0  0.75538  0.44347  0.22374  1.0000
  H   H537      1.0  0.82729  0.45270  0.21940  1.0000
  H   H538      1.0  0.63800  0.18623  0.27353  1.0000
  H   H539      1.0  0.67583  0.18002  0.29122  1.0000
  H   H540      1.0  0.68208  0.32954  0.27337  1.0000
  H   H541      1.0  0.63924  0.34777  0.28812  1.0000
  H   H542      1.0  0.77066  0.41632  0.21246  1.0000
  C   C324      1.0  0.67448  0.07352  0.09624  1.0000
  H   H543      1.0  0.60341  0.09402  0.21266  1.0000
  C   C325      1.0  0.57404  0.14005  0.24228  1.0000
  H   H544      1.0  0.71345  0.39796  0.23776  1.0000
  C   C326      1.0  0.88704  0.44707  0.18445  1.0000
  C   C327      1.0  0.75357  0.18201  0.03771  1.0000
  H   H545      1.0  0.76245  0.44616  0.24589  1.0000
  H   H546      1.0  0.64317  0.11028  0.28940  1.0000
  H   H547      1.0  0.64521  0.12738  0.32594  1.0000
  H   H548      1.0  0.60543  0.13456  0.31016  1.0000
  H   H549      1.0  0.61843  0.32956  0.24053  1.0000
  H   H550      1.0  0.65218  0.37052  0.23769  1.0000
  H   H551      1.0  0.66278  0.31545  0.22625  1.0000
  C   C328      1.0  0.59480  0.30295  0.33425  1.0000
  H   H552      1.0  0.67198  0.08296  0.17148  1.0000
  S   S72       1.0  0.77374  0.20720  0.06483  1.0000
  H   H553      1.0  0.79265  0.45722  0.03477  1.0000
  H   H554      1.0  0.50221  0.25006  0.20926  1.0000
  H   H555      1.0  0.75097  0.28073  0.03160  1.0000
  C   C329      1.0  0.67135  0.06657  0.04457  1.0000
  H   H556      1.0  0.58071  0.16833  0.25536  1.0000
  C   C330      1.0  0.82472  0.47167  0.19937  1.0000
  H   H557      1.0  0.69128  0.03959  0.14857  1.0000
  N   N18       1.0  0.65091  0.07961  0.07325  1.0000
  H   H558      1.0  0.64857  0.32381  0.33286  1.0000
  H   H559      1.0  0.70651  0.21974  0.04555  1.0000
  H   H560      1.0  0.53400  0.22879  0.24596  1.0000
  H   H561      1.0  0.87740  0.41851  0.17311  1.0000
  S   S73       1.0  0.89022  0.45129  0.10586  1.0000
  H   H562      1.0  0.50803  0.11757  0.26999  1.0000
  H   H563      1.0  0.69042  0.09851  0.24245  1.0000
  C   C331      1.0  0.71707  0.43011  0.22661  1.0000
  H   H564      1.0  0.88621  0.45332  0.03982  1.0000
  H   H565      1.0  0.57876  0.27327  0.33948  1.0000
  C   C332      1.0  0.60801  0.12408  0.22496  1.0000
  H   H566      1.0  0.77532  0.36018  0.06738  1.0000
  C   C333      1.0  0.51294  0.20588  0.25529  1.0000
  H   H567      1.0  0.50929  0.26606  0.29912  1.0000
  H   H568      1.0  0.75711  0.47975  0.18390  1.0000
  S   S74       1.0  0.69994  0.03971  0.34443  1.0000
  H   H569      1.0  0.63465  0.06490  0.13462  1.0000
  H   H570      1.0  0.50925  0.07810  0.21917  1.0000
  H   H571      1.0  0.93607  0.42488  0.05347  1.0000
  H   H572      1.0  0.70046  0.45461  0.23948  1.0000
  H   H573      1.0  0.52885  0.21810  0.18244  1.0000
  C   C334      1.0  0.70892  0.12200  0.24866  1.0000
  C   C335      1.0  0.81883  0.45136  0.04100  1.0000
  H   H574      1.0  0.62705  0.11624  0.23988  1.0000
  H   H575      1.0  0.59351  0.11474  0.16319  1.0000
  Fe  Fe37      1.0  0.73249  0.09899  0.35080  1.0000
  H   H576      1.0  0.64205  0.20906  0.04702  1.0000
  H   H577      1.0  0.52731  0.23323  0.32540  1.0000
  C   C336      1.0  0.62023  0.14258  0.04875  1.0000
  H   H578      1.0  0.70808  0.09498  0.14396  1.0000
  C   C337      1.0  0.72045  0.19470  0.03233  1.0000
  H   H579      1.0  0.71112  0.01987  0.05385  1.0000
  H   H580      1.0  0.69878  0.09331  0.09080  1.0000
  C   C338      1.0  0.79293  0.33183  0.06226  1.0000
  C   C339      1.0  0.52758  0.23904  0.30190  1.0000
  C   C340      1.0  0.61821  0.05270  0.08138  1.0000
  H   H581      1.0  0.58925  0.31583  0.31314  1.0000
  H   H582      1.0  0.54683  0.12844  0.20538  1.0000
  C   C341      1.0  0.64243  0.12782  0.07224  1.0000
  H   H583      1.0  0.65207  0.11939  0.13007  1.0000
  H   H584      1.0  0.61288  0.00809  0.04530  1.0000
  C   C342      1.0  0.59899  0.03643  0.05629  1.0000
  C   C343      1.0  0.81917  0.46095  0.11944  1.0000
  C   C344      1.0  0.56183  0.02182  0.06758  1.0000
  H   H585      1.0  0.91275  0.45678  0.17257  1.0000
  H   H586      1.0  0.59932  0.07128  0.09701  1.0000
  C   C345      1.0  0.70065  0.23553  0.33715  1.0000
  H   H587      1.0  0.51845  0.22886  0.03371  1.0000
  H   H588      1.0  0.59351  0.12910  0.05377  1.0000
  C   C346      1.0  0.58262  0.33722  0.35724  1.0000
  H   H589      1.0  0.55420  0.24903  0.29229  1.0000
  C   C347      1.0  0.54806  0.15444  0.22180  1.0000
  H   H590      1.0  0.52971  0.18852  0.05930  1.0000
  C   C348      1.0  0.61653  0.19232  0.04786  1.0000
  H   H591      1.0  0.56073  0.18261  0.20936  1.0000
  H   H592      1.0  0.62771  0.13870  0.09311  1.0000
  H   H593      1.0  0.55443  0.34360  0.35731  1.0000
  H   H594      1.0  0.51437  0.15172  0.11231  1.0000
  S   S75       1.0  0.53358  0.07572  0.14444  1.0000
  H   H595      1.0  0.53631  0.17187  0.29042  1.0000
  H   H596      1.0  0.81874  0.34011  0.06850  1.0000
  H   H597      1.0  0.61961  0.14973  0.20959  1.0000
  H   H598      1.0  0.54620  0.04999  0.07711  1.0000
  H   H599      1.0  0.69851  0.19973  0.33390  1.0000
  H   H600      1.0  0.69346  0.08971  0.03874  1.0000
  H   H601      1.0  0.59747  0.06163  0.03963  1.0000
  C   C349      1.0  0.68718  0.01996  0.04324  1.0000
  H   H602      1.0  0.63617  0.27880  0.35582  1.0000
  C   C350      1.0  0.51685  0.19724  0.28756  1.0000
  H   H603      1.0  0.54921  0.00835  0.04951  1.0000
  N   N19       1.0  0.51193  0.16657  0.23575  1.0000
  H   H604      1.0  0.74162  0.28084  0.34560  1.0000
  H   H605      1.0  0.74709  0.22531  0.35730  1.0000
  H   H606      1.0  0.56188  0.99606  0.08445  1.0000
  H   H607      1.0  0.53487  0.10145  0.35914  1.0000
  H   H608      1.0  0.74334  0.33729  0.02851  1.0000
  H   H609      1.0  0.87935  0.39791  0.03174  1.0000
  H   H610      1.0  0.99778  0.42555  0.05918  1.0000
  H   H611      1.0  0.68478  0.24398  0.35803  1.0000
  C   C351      1.0  0.95516  0.43176  0.03394  1.0000
  C   C352      1.0  0.98980  0.41175  0.03905  1.0000
  H   H612      1.0  0.98724  0.37571  0.04171  1.0000
  C   C353      1.0  0.50865  0.20058  0.04753  1.0000
  H   H613      1.0  0.95862  0.46765  0.03209  1.0000
  H   H614      1.0  0.63196  0.13240  0.02677  1.0000
  H   H615      1.0  0.81434  0.29193  0.02680  1.0000
  C   C354      1.0  0.50238  0.22137  0.19472  1.0000
  H   H616      1.0  0.82669  0.48080  0.05252  1.0000
  C   C355      1.0  0.64626  0.16154  0.52401  1.0000
  H   H617      1.0  0.67468  0.15585  0.51929  1.0000
  C   C356      1.0  0.63848  0.01775  0.54117  1.0000
  H   H618      1.0  0.81030  0.99061  0.50521  1.0000
  Fe  Fe38      1.0  0.71157  0.09807  0.41668  1.0000
  S   S76       1.0  0.71458  0.13595  0.45783  1.0000
  Fe  Fe39      1.0  0.66513  0.01659  0.63351  1.0000
  S   S77       1.0  0.69844  0.07575  0.62315  1.0000
  S   S78       1.0  0.60911  0.01601  0.62578  1.0000
  H   H619      1.0  0.58248  0.13826  0.53827  1.0000
  S   S79       1.0  0.76239  0.02002  0.64523  1.0000
  H   H620      1.0  0.60212  0.08383  0.46863  1.0000
  Fe  Fe40      1.0  0.71766  0.06157  0.66558  1.0000
  H   H621      1.0  0.63742  0.15448  0.59885  1.0000
  Fe  Fe41      1.0  0.73915  0.02866  0.60388  1.0000
  S   S80       1.0  0.77179  0.03673  0.56024  1.0000
  C   C357      1.0  0.64374  0.09739  0.55558  1.0000
  C   C358      1.0  0.64703  0.16942  0.57740  1.0000
  H   H622      1.0  0.72734  0.19897  0.59794  1.0000
  C   C359      1.0  0.56518  0.13668  0.46552  1.0000
  C   C360      1.0  0.72778  0.10771  0.48733  1.0000
  C   C361      1.0  0.74326  0.13134  0.50793  1.0000
  C   C362      1.0  0.75536  0.10973  0.53112  1.0000
  C   C363      1.0  0.75144  0.06445  0.53419  1.0000
  C   C364      1.0  0.73509  0.04091  0.51408  1.0000
  C   C365      1.0  0.72335  0.06244  0.49056  1.0000
  H   H623      1.0  0.83925  0.14055  0.44778  1.0000
  H   H624      1.0  0.76853  0.12796  0.54629  1.0000
  H   H625      1.0  0.63641  0.08465  0.57809  1.0000
  H   H626      1.0  0.71122  0.04402  0.47484  1.0000
  C   C366      1.0  0.54582  0.14137  0.64319  1.0000
  C   C367      1.0  0.53128  0.10416  0.63220  1.0000
  C   C368      1.0  0.55108  0.06610  0.62661  1.0000
  C   C369      1.0  0.58574  0.06505  0.63169  1.0000
  C   C370      1.0  0.60077  0.10268  0.64180  1.0000
  C   C371      1.0  0.58078  0.14067  0.64770  1.0000
  C   C372      1.0  0.57517  0.18769  0.57198  1.0000
  H   H627      1.0  0.53940  0.03725  0.61851  1.0000
  H   H628      1.0  0.62756  0.10235  0.64567  1.0000
  H   H629      1.0  0.59236  0.16943  0.65600  1.0000
  H   H630      1.0  0.63514  0.14272  0.50714  1.0000
  H   H631      1.0  0.69809  0.19030  0.55453  1.0000
  H   H632      1.0  0.59126  0.22982  0.39814  1.0000
  S   S81       1.0  0.75702  0.06989  0.38749  1.0000
  H   H633      1.0  0.79317  0.15061  0.45178  1.0000
  H   H634      1.0  0.62224  0.15933  0.39216  1.0000
  C   C373      1.0  0.57894  0.20190  0.38951  1.0000
  H   H635      1.0  0.67250  0.09452  0.55087  1.0000
  H   H636      1.0  0.58264  0.11878  0.57418  1.0000
  C   C374      1.0  0.69848  0.19758  0.60024  1.0000
  S   S82       1.0  0.60231  0.07462  0.37107  1.0000
  H   H637      1.0  0.63762  0.20360  0.57894  1.0000
  H   H638      1.0  0.60076  0.06677  0.53566  1.0000
  C   C375      1.0  0.59667  0.16198  0.38591  1.0000
  H   H639      1.0  0.60314  0.10566  0.43263  1.0000
  H   H640      1.0  0.68885  0.18072  0.62101  1.0000
  C   C376      1.0  0.54522  0.20567  0.38240  1.0000
  C   C377      1.0  0.83560  0.05106  0.43502  1.0000
  H   H641      1.0  0.64134  0.07175  0.51174  1.0000
  H   H642      1.0  0.81544  0.13335  0.41721  1.0000
  H   H643      1.0  0.52404  0.21697  0.58136  1.0000
  C   C378      1.0  0.81431  0.12942  0.44105  1.0000
  H   H644      1.0  0.56194  0.13889  0.48944  1.0000
  C   C379      1.0  0.80682  0.08179  0.44993  1.0000
  C   C380      1.0  0.85835  0.99572  0.52256  1.0000
  C   C381      1.0  0.68728  0.17265  0.57464  1.0000
  C   C382      1.0  0.59296  0.14536  0.55884  1.0000
  N   N20       1.0  0.63240  0.14452  0.55379  1.0000
  Fe  Fe42      1.0  0.65936  0.07207  0.37681  1.0000
  H   H645      1.0  0.52976  0.06031  0.50263  1.0000
  H   H646      1.0  0.86118  0.06548  0.43818  1.0000
  C   C383      1.0  0.53511  0.11139  0.45435  1.0000
  H   H647      1.0  0.92260  0.46790  0.62151  1.0000
  Fe  Fe43      1.0  0.72142  0.01290  0.38337  1.0000
  H   H648      1.0  0.63039  0.99552  0.52448  1.0000
  H   H649      1.0  0.62464  0.00769  0.56265  1.0000
  H   H650      1.0  0.52346  0.20520  0.48729  1.0000
  H   H651      1.0  0.83153  0.04336  0.50110  1.0000
  C   C384      1.0  0.53608  0.18734  0.57048  1.0000
  H   H652      1.0  0.84480  0.00466  0.54436  1.0000
  C   C385      1.0  0.52933  0.16940  0.37142  1.0000
  C   C386      1.0  0.58096  0.12556  0.37495  1.0000
  H   H653      1.0  0.78133  0.07299  0.44333  1.0000
  H   H654      1.0  0.80406  0.08004  0.47376  1.0000
  H   H655      1.0  0.58630  0.32521  0.37915  1.0000
  H   H656      1.0  0.61119  0.21438  0.51575  1.0000
  H   H657      1.0  0.53826  0.11789  0.43062  1.0000
  H   H658      1.0  0.83402  0.05463  0.41137  1.0000
  C   C387      1.0  0.62945  0.06493  0.53440  1.0000
  H   H659      1.0  0.74681  0.16634  0.50547  1.0000
  H   H660      1.0  0.56657  0.17033  0.45635  1.0000
  H   H661      1.0  0.69948  0.14000  0.57447  1.0000
  S   S83       1.0  0.67739  0.03938  0.41525  1.0000
  H   H662      1.0  0.57870  0.19042  0.59516  1.0000
  S   S84       1.0  0.68176  0.00462  0.67701  1.0000
  H   H663      1.0  0.65351  0.20483  0.47094  1.0000
  S   S85       1.0  0.52108  0.18900  0.65164  1.0000
  H   H664      1.0  0.64622  0.23188  0.53511  1.0000
  H   H665      1.0  0.58615  0.21767  0.56097  1.0000
  S   S86       1.0  0.52393  0.25630  0.38730  1.0000
  C   C388      1.0  0.63910  0.21011  0.51787  1.0000
  C   C389      1.0  0.65999  0.22511  0.48925  1.0000
  H   H666      1.0  0.93137  0.47375  0.67458  1.0000
  H   H667      1.0  0.89265  0.02475  0.40135  1.0000
  H   H668      1.0  0.65382  0.25973  0.48495  1.0000
  H   H669      1.0  0.68837  0.22262  0.49024  1.0000
  H   H670      1.0  0.87899  0.01229  0.46559  1.0000
  S   S87       1.0  0.69064  0.13288  0.38047  1.0000
  H   H671      1.0  0.68835  0.23155  0.60097  1.0000
  H   H672      1.0  0.53104  0.18748  0.54761  1.0000
  C   C390      1.0  0.60011  0.11430  0.45596  1.0000
  H   H673      1.0  0.88344  0.01386  0.51886  1.0000
  C   C391      1.0  0.88981  0.98965  0.40733  1.0000
  H   H674      1.0  0.52348  0.15826  0.58183  1.0000
  H   H675      1.0  0.62188  0.13646  0.45929  1.0000
  H   H676      1.0  0.73208  0.00593  0.51646  1.0000
  H   H677      1.0  0.53974  0.07560  0.45589  1.0000
  H   H678      1.0  0.50370  0.17896  0.43902  1.0000
  C   C392      1.0  0.54724  0.12946  0.36763  1.0000
  H   H679      1.0  0.66691  0.01409  0.54128  1.0000
  H   H680      1.0  0.78215  0.00649  0.46811  1.0000
  N   N21       1.0  0.83382  0.00313  0.44362  1.0000
  C   C393      1.0  0.83559  0.00770  0.49947  1.0000
  H   H681      1.0  0.50842  0.25845  0.45098  1.0000
  H   H682      1.0  0.61608  0.05709  0.68856  1.0000
  H   H683      1.0  0.98722  0.46062  0.68832  1.0000
  H   H684      1.0  0.90629  0.98272  0.42443  1.0000
  H   H685      1.0  0.50333  0.17212  0.36571  1.0000
  C   C394      1.0  0.85355  0.99477  0.46888  1.0000
  H   H686      1.0  0.78271  0.99568  0.43077  1.0000
  C   C395      1.0  0.79643  0.98810  0.44971  1.0000
  H   H687      1.0  0.50485  0.10447  0.62785  1.0000
  H   H688      1.0  0.51918  0.09139  0.55209  1.0000
  H   H689      1.0  0.50910  0.13923  0.51154  1.0000
  H   H690      1.0  0.54916  0.07871  0.69116  1.0000
  C   C396      1.0  0.50278  0.06966  0.51141  1.0000
  H   H691      1.0  0.50589  0.03498  0.55173  1.0000
  Fe  Fe44      1.0  0.71339  0.14155  0.86138  1.0000
  S   S88       1.0  0.68275  0.20206  0.85497  1.0000
  S   S89       1.0  0.73600  0.09337  0.82718  1.0000
  Fe  Fe45      1.0  0.69809  0.14737  0.92719  1.0000
  S   S90       1.0  0.66612  0.20774  0.92608  1.0000
  S   S91       1.0  0.70220  0.11165  0.96868  1.0000
  Fe  Fe46      1.0  0.64327  0.17445  0.89023  1.0000
  S   S92       1.0  0.58571  0.17694  0.88731  1.0000
  Fe  Fe47      1.0  0.70878  0.22995  0.89133  1.0000
  S   S93       1.0  0.72398  0.30121  0.89455  1.0000
  S   S94       1.0  0.67216  0.11224  0.89403  1.0000
  S   S95       1.0  0.74275  0.17138  0.89512  1.0000
  H   H692      1.0  0.50442  0.22842  0.75361  1.0000
  C   C397      1.0  0.76566  0.32310  0.88276  1.0000
  C   C398      1.0  0.79398  0.29649  0.87276  1.0000
  C   C399      1.0  0.82655  0.31552  0.86265  1.0000
  H   H693      1.0  0.64675  0.11244  0.82518  1.0000
  C   C400      1.0  0.77037  0.36856  0.88356  1.0000
  H   H694      1.0  0.79071  0.26135  0.87288  1.0000
  H   H695      1.0  0.84838  0.29494  0.85462  1.0000
  H   H696      1.0  0.75946  0.39673  0.00297  1.0000
  C   C401      1.0  0.72323  0.14190  0.99309  1.0000
  S   S96       1.0  0.71655  0.12000  0.69551  1.0000
  H   H697      1.0  0.56663  0.04724  0.99402  1.0000
  H   H698      1.0  0.66584  0.03907  0.78077  1.0000
  H   H699      1.0  0.60964  0.03086  0.72331  1.0000
  C   C402      1.0  0.75618  0.12909  0.99864  1.0000
  C   C403      1.0  0.50928  0.08778  0.88250  1.0000
  C   C404      1.0  0.85728  0.34873  0.76437  1.0000
  C   C405      1.0  0.52049  0.14530  0.72919  1.0000
  H   H700      1.0  0.76969  0.10293  0.98619  1.0000
  C   C406      1.0  0.72074  0.11139  0.73222  1.0000
  C   C407      1.0  0.73389  0.07220  0.74161  1.0000
  C   C408      1.0  0.73840  0.06700  0.77085  1.0000
  C   C409      1.0  0.72934  0.10069  0.79087  1.0000
  C   C410      1.0  0.71565  0.13959  0.78157  1.0000
  C   C411      1.0  0.71154  0.14501  0.75229  1.0000
  H   H701      1.0  0.74137  0.04634  0.72618  1.0000
  H   H702      1.0  0.74914  0.03687  0.77792  1.0000
  H   H703      1.0  0.70828  0.16545  0.79690  1.0000
  H   H704      1.0  0.70113  0.17529  0.74513  1.0000
  H   H705      1.0  0.59067  0.07015  0.79319  1.0000
  C   C412      1.0  0.52825  0.12709  0.88187  1.0000
  C   C413      1.0  0.56287  0.12711  0.88722  1.0000
  C   C414      1.0  0.57849  0.08755  0.89285  1.0000
  C   C415      1.0  0.55976  0.04822  0.89315  1.0000
  H   H706      1.0  0.74406  0.33466  0.81281  1.0000
  H   H707      1.0  0.60475  0.08720  0.89756  1.0000
  H   H708      1.0  0.57199  0.01776  0.89778  1.0000
  C   C416      1.0  0.52507  0.04823  0.88810  1.0000
  H   H709      1.0  0.80606  0.42267  0.87411  1.0000
  N   N22       1.0  0.62245  0.02522  0.81412  1.0000
  H   H710      1.0  0.79729  0.13999  0.02453  1.0000
  C   C417      1.0  0.64527  0.02769  0.83794  1.0000
  C   C418      1.0  0.60575  0.06946  0.81175  1.0000
  H   H711      1.0  0.80985  0.22888  0.74781  1.0000
  H   H712      1.0  0.69637  0.98675  0.74276  1.0000
  H   H713      1.0  0.83478  0.41554  0.00181  1.0000
  C   C419      1.0  0.75682  0.38889  0.98014  1.0000
  H   H714      1.0  0.75692  0.20379  0.71183  1.0000
  H   H715      1.0  0.51604  0.15757  0.87723  1.0000
  N   N23       1.0  0.51624  0.09606  0.73096  1.0000
  H   H716      1.0  0.67139  0.04119  0.82927  1.0000
  H   H717      1.0  0.63432  0.05118  0.85498  1.0000
  H   H718      1.0  0.84443  0.28704  0.74667  1.0000
  H   H719      1.0  0.84612  0.47184  0.99979  1.0000
  C   C420      1.0  0.89207  0.36274  0.97328  1.0000
  H   H720      1.0  0.63715  0.30859  0.00672  1.0000
  N   N24       1.0  0.78668  0.25868  0.78809  1.0000
  H   H721      1.0  0.62937  0.17990  0.80344  1.0000
  H   H722      1.0  0.95691  0.47209  0.95078  1.0000
  C   C421      1.0  0.77162  0.14976  0.02049  1.0000
  C   C422      1.0  0.51270  0.08038  0.76197  1.0000
  H   H723      1.0  0.62062  0.08972  0.94763  1.0000
  C   C423      1.0  0.90215  0.41185  0.97032  1.0000
  H   H724      1.0  0.58669  0.07596  0.83149  1.0000
  H   H725      1.0  0.62837  0.02007  0.76743  1.0000
  N   N25       1.0  0.76143  0.30493  0.98767  1.0000
  C   C424      1.0  0.70558  0.17518  0.00962  1.0000
  C   C425      1.0  0.72543  0.29234  0.98115  1.0000
  C   C426      1.0  0.78572  0.26761  0.97802  1.0000
  C   C427      1.0  0.77466  0.34511  0.97065  1.0000
  C   C428      1.0  0.76593  0.23830  0.70924  1.0000
  C   C429      1.0  0.76285  0.26127  0.73864  1.0000
  C   C430      1.0  0.78841  0.25489  0.94551  1.0000
  H   H726      1.0  0.78927  0.16327  0.79660  1.0000
  H   H727      1.0  0.73392  0.23627  0.80196  1.0000
  H   H728      1.0  0.68012  0.18498  0.00524  1.0000
  H   H729      1.0  0.53510  0.09174  0.77242  1.0000
  C   C431      1.0  0.80942  0.21299  0.93927  1.0000
  H   H730      1.0  0.76628  0.18883  0.82834  1.0000
  S   S97       1.0  0.90118  0.46562  0.90250  1.0000
  H   H731      1.0  0.72184  0.30286  0.95884  1.0000
  H   H732      1.0  0.72229  0.25609  0.98101  1.0000
  H   H733      1.0  0.77792  0.23793  0.99131  1.0000
  H   H734      1.0  0.81277  0.27535  0.98161  1.0000
  H   H735      1.0  0.80304  0.34932  0.97097  1.0000
  H   H736      1.0  0.77183  0.34101  0.94733  1.0000
  C   C432      1.0  0.75123  0.26403  0.80600  1.0000
  H   H737      1.0  0.71720  0.02803  0.00037  1.0000
  H   H738      1.0  0.70355  0.00120  0.86206  1.0000
  H   H739      1.0  0.59669  0.15183  0.78640  1.0000
  H   H740      1.0  0.80196  0.28116  0.93179  1.0000
  H   H741      1.0  0.76249  0.24944  0.93867  1.0000
  H   H742      1.0  0.56263  0.12876  0.95525  1.0000
  C   C433      1.0  0.69771  0.00507  0.01194  1.0000
  C   C434      1.0  0.54958  0.09972  0.96646  1.0000
  H   H743      1.0  0.84151  0.15495  0.82168  1.0000
  H   H744      1.0  0.81565  0.24706  0.82372  1.0000
  H   H745      1.0  0.89517  0.43197  0.76608  1.0000
  H   H746      1.0  0.77227  0.29526  0.73462  1.0000
  H   H747      1.0  0.64857  0.10621  0.78650  1.0000
  H   H748      1.0  0.54294  0.07832  0.94879  1.0000
  H   H749      1.0  0.57850  0.00064  0.84330  1.0000
  H   H750      1.0  0.77053  0.20439  0.76336  1.0000
  H   H751      1.0  0.83578  0.21669  0.94569  1.0000
  H   H752      1.0  0.79584  0.18497  0.95124  1.0000
  H   H753      1.0  0.81229  0.20573  0.91570  1.0000
  C   C435      1.0  0.63090  0.10925  0.80720  1.0000
  H   H754      1.0  0.52795  0.17790  0.93977  1.0000
  C   C436      1.0  0.58402  0.09408  0.72207  1.0000
  C   C437      1.0  0.87945  0.34609  0.94554  1.0000
  H   H755      1.0  0.51380  0.04406  0.76283  1.0000
  C   C438      1.0  0.56658  0.98833  0.80016  1.0000
  C   C439      1.0  0.84493  0.44273  0.01389  1.0000
  C   C440      1.0  0.80492  0.30249  0.78410  1.0000
  H   H756      1.0  0.85693  0.36546  0.94039  1.0000
  H   H757      1.0  0.58391  0.09992  0.74547  1.0000
  H   H758      1.0  0.59196  0.15661  0.82544  1.0000
  H   H759      1.0  0.79042  0.32567  0.77199  1.0000
  H   H760      1.0  0.55111  0.01871  0.80005  1.0000
  H   H761      1.0  0.65828  0.31280  0.96976  1.0000
  C   C441      1.0  0.94221  0.41189  0.00673  1.0000
  C   C442      1.0  0.54876  0.07544  0.71501  1.0000
  H   H762      1.0  0.54879  0.03958  0.71921  1.0000
  H   H763      1.0  0.94033  0.44439  0.72323  1.0000
  C   C443      1.0  0.77317  0.42672  0.96132  1.0000
  H   H764      1.0  0.76925  0.42205  0.93835  1.0000
  H   H765      1.0  0.67468  0.00355  0.00024  1.0000
  H   H766      1.0  0.53527  0.15731  0.74650  1.0000
  H   H767      1.0  0.68043  0.33630  0.81364  1.0000
  H   H768      1.0  0.50268  0.01648  0.69977  1.0000
  N   N26       1.0  0.51697  0.11318  0.98586  1.0000
  C   C444      1.0  0.57752  0.07635  0.98169  1.0000
  H   H769      1.0  0.80544  0.31803  0.80571  1.0000
  C   C445      1.0  0.83102  0.36114  0.86279  1.0000
  H   H770      1.0  0.51366  0.06210  0.01864  1.0000
  H   H771      1.0  0.67953  0.27833  0.80670  1.0000
  S   S98       1.0  0.50249  0.99829  0.88862  1.0000
  H   H772      1.0  0.59000  0.12576  0.71070  1.0000
  H   H773      1.0  0.87137  0.31127  0.94827  1.0000
  C   C446      1.0  0.65949  0.29700  0.99110  1.0000
  C   C447      1.0  0.81544  0.16119  0.83411  1.0000
  C   C448      1.0  0.80294  0.38753  0.87378  1.0000
  S   S99       1.0  0.87136  0.38428  0.84790  1.0000
  H   H774      1.0  0.65709  0.26099  0.98878  1.0000
  H   H775      1.0  0.81837  0.18080  0.85369  1.0000
  H   H776      1.0  0.51658  0.01931  0.97246  1.0000
  H   H777      1.0  0.96412  0.41082  0.98856  1.0000
  H   H778      1.0  0.74859  0.38933  0.89145  1.0000
  H   H779      1.0  0.91495  0.34279  0.97677  1.0000
  Fe  Fe48      1.0  0.88238  0.45445  0.85980  1.0000
  H   H780      1.0  0.75337  0.26258  0.82962  1.0000
  H   H781      1.0  0.69290  0.29282  0.02383  1.0000
  H   H782      1.0  0.67002  0.01535  0.89161  1.0000
  C   C449      1.0  0.61086  0.15189  0.80552  1.0000
  C   C450      1.0  0.64401  0.01531  0.78535  1.0000
  C   C451      1.0  0.60821  0.06128  0.95991  1.0000
  H   H783      1.0  0.92455  0.41370  0.95267  1.0000
  C   C452      1.0  0.84288  0.30219  0.76842  1.0000
  H   H784      1.0  0.69228  0.29866  0.84022  1.0000
  H   H785      1.0  0.80149  0.42946  0.96238  1.0000
  H   H786      1.0  0.63885  0.07719  0.71705  1.0000
  H   H787      1.0  0.86022  0.28428  0.78137  1.0000
  H   H788      1.0  0.88470  0.34773  0.75370  1.0000
  C   C453      1.0  0.78365  0.23669  0.75956  1.0000
  H   H789      1.0  0.80353  0.12923  0.84131  1.0000
  H   H790      1.0  0.72894  0.38763  0.97745  1.0000
  H   H791      1.0  0.62806  0.04566  0.97154  1.0000
  H   H792      1.0  0.85669  0.36511  0.78574  1.0000
  H   H793      1.0  0.73139  0.31619  0.77927  1.0000
  C   C454      1.0  0.79218  0.18490  0.81522  1.0000
  H   H794      1.0  0.87120  0.35672  0.99163  1.0000
  H   H795      1.0  0.59958  0.03710  0.94461  1.0000
  N   N27       1.0  0.91103  0.43402  0.99729  1.0000
  H   H796      1.0  0.90064  0.34856  0.92689  1.0000
  H   H797      1.0  0.58833  0.09917  0.99662  1.0000
  H   H798      1.0  0.83355  0.22131  0.79095  1.0000
  C   C455      1.0  0.90855  0.46403  0.76244  1.0000
  H   H799      1.0  0.50338  0.08581  0.82200  1.0000
  C   C456      1.0  0.69364  0.30478  0.81659  1.0000
  H   H800      1.0  0.73483  0.26151  0.74766  1.0000
  C   C457      1.0  0.67841  0.99066  0.87464  1.0000
  C   C458      1.0  0.69358  0.30869  0.00227  1.0000
  C   C459      1.0  0.80852  0.22950  0.80453  1.0000
  H   H801      1.0  0.93616  0.37707  0.01235  1.0000
  C   C460      1.0  0.76132  0.31081  0.01991  1.0000
  C   C461      1.0  0.73148  0.30741  0.80229  1.0000
  H   H802      1.0  0.84187  0.36824  0.75060  1.0000
  C   C462      1.0  0.61392  0.06291  0.71219  1.0000
  H   H803      1.0  0.53638  0.15482  0.70829  1.0000
  H   H804      1.0  0.88070  0.42958  0.96175  1.0000
  H   H805      1.0  0.69422  0.34452  0.00538  1.0000
  C   C463      1.0  0.88125  0.43117  0.02182  1.0000
  C   C464      1.0  0.59341  0.99236  0.82182  1.0000
  H   H806      1.0  0.89843  0.46630  0.71838  1.0000
  H   H807      1.0  0.51389  0.23291  0.71444  1.0000
  H   H808      1.0  0.79331  0.23879  0.69842  1.0000
  H   H809      1.0  0.74952  0.25528  0.69501  1.0000
  H   H810      1.0  0.50512  0.20370  0.97151  1.0000
  H   H811      1.0  0.54350  0.12868  0.02243  1.0000
  H   H812      1.0  0.54304  0.17210  0.99744  1.0000
  C   C465      1.0  0.65062  0.98485  0.85470  1.0000
  C   C466      1.0  0.52680  0.14494  0.00811  1.0000
  C   C467      1.0  0.92124  0.47052  0.73016  1.0000
  C   C468      1.0  0.50281  0.17929  0.95430  1.0000
  H   H813      1.0  0.80991  0.34891  0.01795  1.0000
  H   H814      1.0  0.93097  0.46436  0.77485  1.0000
  H   H815      1.0  0.76077  0.45805  0.96904  1.0000
  H   H816      1.0  0.57956  0.98159  0.77787  1.0000
  H   H817      1.0  0.74920  0.56950  0.18969  1.0000
  H   H818      1.0  0.86618  0.78191  0.25265  1.0000
  S   S100      1.0  0.92916  0.65172  0.29977  1.0000
  S   S101      1.0  0.94894  0.76710  0.32910  1.0000
  Fe  Fe49      1.0  0.89732  0.60929  0.14307  1.0000
  S   S102      1.0  0.86948  0.64924  0.18014  1.0000
  Fe  Fe50      1.0  0.91180  0.60866  0.07735  1.0000
  C   C469      1.0  0.77058  0.75180  0.35368  1.0000
  H   H819      1.0  0.82876  0.55642  0.17959  1.0000
  S   S103      1.0  0.93774  0.64255  0.11118  1.0000
  H   H820      1.0  0.85415  0.52742  0.24142  1.0000
  H   H821      1.0  0.90441  0.77498  0.19701  1.0000
  H   H822      1.0  0.80007  0.52602  0.16115  1.0000
  H   H823      1.0  0.74599  0.79852  0.32916  1.0000
  H   H824      1.0  0.82025  0.76520  0.30792  1.0000
  C   C470      1.0  0.91290  0.65256  0.26646  1.0000
  C   C471      1.0  0.91176  0.61999  0.21890  1.0000
  C   C472      1.0  0.88722  0.65077  0.21289  1.0000
  C   C473      1.0  0.87582  0.68270  0.23365  1.0000
  C   C474      1.0  0.88877  0.68380  0.26036  1.0000
  H   H825      1.0  0.85711  0.70671  0.22895  1.0000
  H   H826      1.0  0.87983  0.70830  0.27637  1.0000
  S   S104      1.0  0.92954  0.54924  0.14727  1.0000
  H   H827      1.0  0.74506  0.82729  0.28404  1.0000
  H   H828      1.0  0.76283  0.63798  0.16280  1.0000
  H   H829      1.0  0.73640  0.93548  0.32096  1.0000
  H   H830      1.0  0.90187  0.86461  0.27227  1.0000
  H   H831      1.0  0.94287  0.59631  0.25049  1.0000
  H   H832      1.0  0.80793  0.62304  0.15490  1.0000
  Fe  Fe51      1.0  0.91738  0.70529  0.33308  1.0000
  H   H833      1.0  0.75623  0.74736  0.31094  1.0000
  H   H834      1.0  0.79164  0.90467  0.29803  1.0000
  H   H835      1.0  0.92058  0.59515  0.20315  1.0000
  C   C475      1.0  0.80103  0.79230  0.30959  1.0000
  C   C476      1.0  0.79041  0.75299  0.20731  1.0000
  H   H836      1.0  0.80548  0.72289  0.21020  1.0000
  H   H837      1.0  0.79574  0.76280  0.18413  1.0000
  H   H838      1.0  0.85508  0.57858  0.04568  1.0000
  H   H839      1.0  0.76851  0.76312  0.26369  1.0000
  S   S105      1.0  0.86805  0.58072  0.10881  1.0000
  H   H840      1.0  0.86079  0.49533  0.16215  1.0000
  C   C477      1.0  0.89940  0.83680  0.25736  1.0000
  H   H841      1.0  0.78160  0.60100  0.20498  1.0000
  H   H842      1.0  0.92321  0.81658  0.25648  1.0000
  H   H843      1.0  0.71285  0.88804  0.31153  1.0000
  H   H844      1.0  0.89755  0.84990  0.23539  1.0000
  H   H845      1.0  0.82858  0.79806  0.21895  1.0000
  H   H846      1.0  0.81067  0.81607  0.32466  1.0000
  S   S106      1.0  0.88333  0.86518  0.33567  1.0000
  H   H847      1.0  0.76220  0.74557  0.21263  1.0000
  H   H848      1.0  0.85016  0.94717  0.32703  1.0000
  H   H849      1.0  0.81279  0.74886  0.26147  1.0000
  H   H850      1.0  0.77028  0.86885  0.32567  1.0000
  H   H851      1.0  0.83767  0.86235  0.28809  1.0000
  H   H852      1.0  0.83315  0.85591  0.25112  1.0000
  Fe  Fe52      1.0  0.96785  0.58054  0.11261  1.0000
  H   H853      1.0  0.81937  0.55557  0.28696  1.0000
  H   H854      1.0  0.85350  0.59218  0.27177  1.0000
  Fe  Fe53      1.0  0.90330  0.52294  0.11060  1.0000
  H   H855      1.0  0.77520  0.59136  0.14006  1.0000
  H   H856      1.0  0.73421  0.92386  0.28334  1.0000
  H   H857      1.0  0.87254  0.51304  0.19595  1.0000
  H   H858      1.0  0.78506  0.81904  0.22230  1.0000
  H   H859      1.0  0.94182  0.74737  0.23086  1.0000
  C   C478      1.0  0.92432  0.62068  0.24573  1.0000
  H   H860      1.0  0.99908  0.58242  0.20993  1.0000
  H   H861      1.0  0.82340  0.49536  0.11483  1.0000
  S   S107      1.0  0.94466  0.54886  0.07648  1.0000
  C   C479      1.0  0.76939  0.88189  0.30362  1.0000
  H   H862      1.0  0.77704  0.54983  0.24124  1.0000
  C   C480      1.0  0.77053  0.84478  0.28081  1.0000
  H   H863      1.0  0.94004  0.77635  0.16777  1.0000
  C   C481      1.0  0.80083  0.79015  0.22636  1.0000
  H   H864      1.0  0.93980  0.81327  0.19813  1.0000
  C   C482      1.0  0.76612  0.77285  0.32464  1.0000
  H   H865      1.0  0.84143  0.57481  0.22213  1.0000
  H   H866      1.0  0.87151  0.79483  0.28943  1.0000
  C   C483      1.0  0.77665  0.58063  0.18624  1.0000
  H   H867      1.0  0.98049  0.66086  0.21318  1.0000
  H   H868      1.0  0.99632  0.78516  0.21242  1.0000
  C   C484      1.0  0.93298  0.77977  0.19162  1.0000
  C   C485      1.0  0.78100  0.60993  0.15933  1.0000
  H   H869      1.0  0.98869  0.71951  0.06876  1.0000
  H   H870      1.0  0.97783  0.70597  0.25274  1.0000
  S   S108      1.0  0.91127  0.64224  0.03457  1.0000
  C   C486      1.0  0.82831  0.57730  0.26824  1.0000
  C   C487      1.0  0.95186  0.74542  0.20740  1.0000
  H   H871      1.0  0.77149  0.86153  0.25952  1.0000
  N   N28       1.0  0.80021  0.81284  0.28021  1.0000
  C   C488      1.0  0.79527  0.77693  0.25891  1.0000
  H   H872      1.0  0.94455  0.71311  0.19930  1.0000
  H   H873      1.0  0.79342  0.97873  0.34852  1.0000
  C   C489      1.0  0.83393  0.83719  0.27155  1.0000
  C   C490      1.0  0.86740  0.80901  0.26822  1.0000
  H   H874      1.0  0.99653  0.69104  0.30468  1.0000
  C   C491      1.0  0.83310  0.55142  0.23991  1.0000
  C   C492      1.0  0.79924  0.52707  0.23551  1.0000
  S   S109      1.0  0.86759  0.73876  0.35128  1.0000
  C   C493      1.0  0.73613  0.90881  0.30478  1.0000
  Fe  Fe54      1.0  0.90034  0.79953  0.35130  1.0000
  H   H875      1.0  0.78902  0.72397  0.35043  1.0000
  C   C494      1.0  0.80234  0.54167  0.18235  1.0000
  H   H876      1.0  0.80922  0.60405  0.26726  1.0000
  H   H877      1.0  0.00038  0.59711  0.17222  1.0000
  C   C495      1.0  0.83324  0.92887  0.34322  1.0000
  C   C496      1.0  0.84341  0.88737  0.35181  1.0000
  H   H878      1.0  0.79561  0.50138  0.25256  1.0000
  C   C497      1.0  0.99188  0.75313  0.20224  1.0000
  H   H879      1.0  0.99718  0.68021  0.17806  1.0000
  N   N29       1.0  0.79789  0.50738  0.20600  1.0000
  C   C498      1.0  0.80111  0.94677  0.35531  1.0000
  H   H880      1.0  0.74147  0.51007  0.21547  1.0000
  H   H881      1.0  0.99981  0.75773  0.17844  1.0000
  H   H882      1.0  0.00036  0.77182  0.05225  1.0000
  C   C499      1.0  0.76219  0.48693  0.20638  1.0000
  C   C500      1.0  0.86168  0.48530  0.18496  1.0000
  C   C501      1.0  0.81751  0.81937  0.44401  1.0000
  C   C502      1.0  0.90440  0.96311  0.38065  1.0000
  C   C503      1.0  0.83286  0.80248  0.47039  1.0000
  H   H883      1.0  0.75947  0.80703  0.66029  1.0000
  C   C504      1.0  0.81249  0.77673  0.56872  1.0000
  H   H884      1.0  0.84230  0.86681  0.48709  1.0000
  H   H885      1.0  0.94172  0.76690  0.51863  1.0000
  C   C505      1.0  0.82121  0.86371  0.37242  1.0000
  H   H886      1.0  0.94207  0.59331  0.39057  1.0000
  H   H887      1.0  0.73490  0.94265  0.45489  1.0000
  Fe  Fe55      1.0  0.88456  0.72698  0.39492  1.0000
  S   S110      1.0  0.84582  0.70431  0.43258  1.0000
  S   S111      1.0  0.91439  0.78975  0.39604  1.0000
  Fe  Fe56      1.0  0.89669  0.74324  0.62471  1.0000
  S   S112      1.0  0.86183  0.68748  0.61565  1.0000
  S   S113      1.0  0.88461  0.81554  0.62356  1.0000
  Fe  Fe57      1.0  0.95921  0.68307  0.62825  1.0000
  S   S114      1.0  0.92920  0.62339  0.61926  1.0000
  Fe  Fe58      1.0  0.90843  0.66434  0.58552  1.0000
  S   S115      1.0  0.91167  0.63722  0.54028  1.0000
  Fe  Fe59      1.0  0.88607  0.65196  0.65043  1.0000
  S   S116      1.0  0.94178  0.72207  0.59227  1.0000
  S   S117      1.0  0.91747  0.70974  0.66169  1.0000
  C   C506      1.0  0.95830  0.51138  0.64015  1.0000
  H   H888      1.0  0.79693  0.91946  0.43629  1.0000
  C   C507      1.0  0.86328  0.69185  0.46447  1.0000
  C   C508      1.0  0.84200  0.67248  0.48790  1.0000
  C   C509      1.0  0.85615  0.65891  0.51261  1.0000
  C   C510      1.0  0.89153  0.66531  0.51416  1.0000
  C   C511      1.0  0.91224  0.68697  0.49144  1.0000
  C   C512      1.0  0.89829  0.70011  0.46657  1.0000
  H   H889      1.0  0.81488  0.66609  0.48636  1.0000
  H   H890      1.0  0.84012  0.64128  0.52973  1.0000
  H   H891      1.0  0.93939  0.69218  0.49268  1.0000
  H   H892      1.0  0.91479  0.71547  0.44870  1.0000
  H   H893      1.0  0.89076  0.97161  0.36200  1.0000
  C   C513      1.0  0.83910  0.88255  0.63818  1.0000
  C   C514      1.0  0.84319  0.83705  0.63622  1.0000
  C   C515      1.0  0.81437  0.80990  0.64400  1.0000
  C   C516      1.0  0.78174  0.82816  0.65429  1.0000
  H   H894      1.0  0.86129  0.90378  0.63207  1.0000
  H   H895      1.0  0.81726  0.77495  0.64168  1.0000
  C   C517      1.0  0.96875  0.57071  0.69147  1.0000
  H   H896      1.0  0.85115  0.94177  0.42287  1.0000
  H   H897      1.0  0.82062  0.79423  0.42669  1.0000
  H   H898      1.0  0.80004  0.84461  0.49858  1.0000
  H   H899      1.0  0.79854  0.90528  0.52782  1.0000
  H   H900      1.0  0.84152  0.85200  0.56584  1.0000
  C   C518      1.0  0.77763  0.87375  0.65617  1.0000
  S   S118      1.0  0.93094  0.68768  0.37693  1.0000
  H   H901      1.0  0.86077  0.79575  0.46305  1.0000
  H   H902      1.0  0.81144  0.70541  0.56790  1.0000
  C   C519      1.0  0.92853  0.58535  0.41258  1.0000
  C   C520      1.0  0.77870  0.92277  0.37564  1.0000
  C   C521      1.0  0.82824  0.83643  0.49528  1.0000
  H   H903      1.0  0.79083  0.89263  0.59355  1.0000
  C   C522      1.0  0.93685  0.79665  0.53222  1.0000
  C   C523      1.0  0.81817  0.78329  0.53532  1.0000
  H   H904      1.0  0.85608  0.88621  0.53632  1.0000
  H   H905      1.0  0.90159  0.92744  0.38509  1.0000
  S   S119      1.0  0.70421  0.97011  0.61059  1.0000
  N   N30       1.0  0.83988  0.82224  0.52354  1.0000
  H   H906      1.0  0.77137  0.86223  0.39951  1.0000
  H   H907      1.0  0.81950  0.77133  0.47747  1.0000
  C   C524      1.0  0.85123  0.97738  0.41794  1.0000
  C   C525      1.0  0.80011  0.88407  0.54700  1.0000
  H   H908      1.0  0.83717  0.77769  0.57802  1.0000
  H   H909      1.0  0.77039  0.93287  0.57351  1.0000
  C   C526      1.0  0.95492  0.57516  0.43308  1.0000
  H   H910      1.0  0.79543  0.80280  0.57937  1.0000
  H   H911      1.0  0.80365  0.93599  0.64963  1.0000
  H   H912      1.0  0.83132  0.84950  0.43537  1.0000
  H   H913      1.0  0.78930  0.82621  0.44966  1.0000
  H   H914      1.0  0.96029  0.64141  0.44660  1.0000
  S   S120      1.0  0.85681  0.60533  0.68318  1.0000
  H   H915      1.0  0.78600  0.70956  0.65790  1.0000
  H   H916      1.0  0.96940  0.54426  0.63503  1.0000
  C   C527      1.0  0.83605  0.86101  0.54381  1.0000
  C   C528      1.0  0.79435  0.91322  0.57376  1.0000
  H   H917      1.0  0.81658  0.93600  0.57442  1.0000
  C   C529      1.0  0.99111  0.59753  0.48533  1.0000
  H   H918      1.0  0.89219  0.83633  0.50322  1.0000
  C   C530      1.0  0.79080  0.93868  0.45647  1.0000
  C   C531      1.0  0.79474  0.73291  0.57699  1.0000
  H   H919      1.0  0.78036  0.77613  0.36833  1.0000
  H   H920      1.0  0.88880  0.77088  0.55388  1.0000
  H   H921      1.0  0.95114  0.79366  0.55116  1.0000
  H   H922      1.0  0.86356  0.96011  0.52238  1.0000
  H   H923      1.0  0.93978  0.56540  0.45411  1.0000
  C   C532      1.0  0.89790  0.80171  0.54269  1.0000
  C   C533      1.0  0.80646  0.90087  0.64814  1.0000
  H   H924      1.0  0.82942  0.75252  0.52527  1.0000
  H   H925      1.0  0.82874  0.83154  0.37887  1.0000
  H   H926      1.0  0.91517  0.52801  0.67321  1.0000
  Fe  Fe60      1.0  0.95989  0.75112  0.37395  1.0000
  C   C534      1.0  0.87786  0.81013  0.51675  1.0000
  H   H927      1.0  0.98726  0.57713  0.67152  1.0000
  S   S121      1.0  0.73762  0.94294  0.39056  1.0000
  H   H928      1.0  0.74695  0.94194  0.49106  1.0000
  H   H929      1.0  0.91171  0.61319  0.42095  1.0000
  H   H930      1.0  0.88105  0.77976  0.50351  1.0000
  C   C535      1.0  0.75307  0.92854  0.46884  1.0000
  H   H931      1.0  0.89514  0.82907  0.55839  1.0000
  H   H932      1.0  0.76921  0.73090  0.56884  1.0000
  C   C536      1.0  0.78878  0.88111  0.38401  1.0000
  H   H933      1.0  0.79022  0.72956  0.60097  1.0000
  H   H934      1.0  0.74511  0.73917  0.36438  1.0000
  H   H935      1.0  0.80749  0.92712  0.47231  1.0000
  S   S122      1.0  0.73642  0.89593  0.66894  1.0000
  H   H936      1.0  0.79157  0.78503  0.52896  1.0000
  H   H937      1.0  0.74897  0.89259  0.46995  1.0000
  H   H938      1.0  0.91159  0.55639  0.41084  1.0000
  H   H939      1.0  0.77854  0.85984  0.54862  1.0000
  C   C537      1.0  0.97832  0.61557  0.43690  1.0000
  C   C538      1.0  0.93966  0.50849  0.67170  1.0000
  H   H940      1.0  0.94731  0.82576  0.51955  1.0000
  H   H941      1.0  0.98915  0.70115  0.45256  1.0000
  C   C539      1.0  0.78028  0.70586  0.68180  1.0000
  H   H942      1.0  0.98457  0.61821  0.54577  1.0000
  H   H943      1.0  0.97589  0.56664  0.48568  1.0000
  H   H944      1.0  0.86041  0.95951  0.46987  1.0000
  H   H945      1.0  0.97163  0.62267  0.49364  1.0000
  H   H946      1.0  0.97044  0.54678  0.42398  1.0000
  H   H947      1.0  0.83383  0.69399  0.68523  1.0000
  Fe  Fe61      1.0  0.72467  0.96379  0.65315  1.0000
  H   H948      1.0  0.97551  0.56125  0.53921  1.0000
  C   C540      1.0  0.93312  0.50168  0.61846  1.0000
  H   H949      1.0  0.98907  0.62767  0.41487  1.0000
  H   H950      1.0  0.91115  0.52521  0.62108  1.0000
  H   H951      1.0  0.94492  0.58925  0.68812  1.0000
  H   H952      1.0  0.94699  0.50483  0.59601  1.0000
  H   H953      1.0  0.93248  0.97065  0.37454  1.0000
  H   H954      1.0  0.97932  0.48668  0.63655  1.0000
  H   H955      1.0  0.99838  0.68694  0.48850  1.0000
  C   C541      1.0  0.99636  0.58644  0.53835  1.0000
  H   H956      1.0  0.75878  0.72835  0.68992  1.0000
  H   H957      1.0  0.82240  0.74949  0.68953  1.0000
  H   H958      1.0  0.77182  0.67152  0.68651  1.0000
  H   H959      1.0  0.00106  0.60395  0.60425  1.0000
  H   H960      1.0  0.83634  0.98094  0.39925  1.0000
  H   H961      1.0  0.83815  0.80048  0.72485  1.0000
  Fe  Fe62      1.0  0.94109  0.51064  0.87864  1.0000
  S   S123      1.0  0.90698  0.56940  0.88552  1.0000
  C   C542      1.0  0.93730  0.51676  0.72395  1.0000
  C   C543      1.0  0.98343  0.59257  0.71727  1.0000
  S   S124      1.0  0.84404  0.50993  0.86448  1.0000
  H   H962      1.0  0.64242  0.94293  0.78848  1.0000
  Fe  Fe63      1.0  0.88908  0.55084  0.84326  1.0000
  S   S125      1.0  0.89196  0.60807  0.81203  1.0000
  Fe  Fe64      1.0  0.86561  0.52344  0.90607  1.0000
  S   S126      1.0  0.83236  0.53151  0.94960  1.0000
  H   H963      1.0  0.97940  0.70517  0.92608  1.0000
  H   H964      1.0  0.92949  0.76271  0.72627  1.0000
  C   C544      1.0  0.67670  0.96134  0.75049  1.0000
  H   H965      1.0  0.96220  0.59734  0.73551  1.0000
  C   C545      1.0  0.85097  0.56614  0.97343  1.0000
  C   C546      1.0  0.84239  0.56095  0.00351  1.0000
  C   C547      1.0  0.87577  0.59739  0.96268  1.0000
  C   C548      1.0  0.76768  0.81789  0.75856  1.0000
  H   H966      1.0  0.88147  0.60311  0.93969  1.0000
  C   C549      1.0  0.86682  0.60557  0.71895  1.0000
  C   C550      1.0  0.85007  0.57597  0.73947  1.0000
  C   C551      1.0  0.85815  0.57535  0.76803  1.0000
  C   C552      1.0  0.88254  0.60493  0.77624  1.0000
  C   C553      1.0  0.89881  0.63482  0.75584  1.0000
  C   C554      1.0  0.89141  0.63470  0.72722  1.0000
  H   H967      1.0  0.83091  0.55338  0.73324  1.0000
  H   H968      1.0  0.84499  0.55275  0.78384  1.0000
  H   H969      1.0  0.91748  0.65802  0.76217  1.0000
  H   H970      1.0  0.90464  0.65738  0.71169  1.0000
  H   H971      1.0  0.75213  0.75643  0.74114  1.0000
  C   C555      1.0  0.89311  0.62173  0.98174  1.0000
  C   C556      1.0  0.87384  0.75100  0.73417  1.0000
  C   C557      1.0  0.95356  0.49189  0.97087  1.0000
  H   H972      1.0  0.83050  0.67663  0.77850  1.0000
  H   H973      1.0  0.79464  0.76511  0.79307  1.0000
  H   H974      1.0  0.96941  0.64952  0.93719  1.0000
  H   H975      1.0  0.87717  0.72436  0.74954  1.0000
  H   H976      1.0  0.90664  0.79638  0.75442  1.0000
  C   C558      1.0  0.80783  0.70833  0.72888  1.0000
  H   H977      1.0  0.82932  0.68671  0.73323  1.0000
  H   H978      1.0  0.99194  0.71828  0.01475  1.0000
  H   H979      1.0  0.77170  0.71874  0.78231  1.0000
  H   H980      1.0  0.78421  0.68767  0.73511  1.0000
  H   H981      1.0  0.70952  0.97203  0.01172  1.0000
  C   C559      1.0  0.97647  0.68235  0.94486  1.0000
  H   H982      1.0  0.98423  0.64173  0.99380  1.0000
  S   S127      1.0  0.99708  0.50937  0.88734  1.0000
  H   H983      1.0  0.99370  0.57341  0.01704  1.0000
  C   C560      1.0  0.74476  0.84940  0.74423  1.0000
  H   H984      1.0  0.98226  0.54675  0.94970  1.0000
  C   C561      1.0  0.77641  0.77642  0.73976  1.0000
  C   C562      1.0  0.90525  0.78155  0.73285  1.0000
  N   N31       1.0  0.80619  0.74898  0.74739  1.0000
  H   H985      1.0  0.91215  0.64576  0.97323  1.0000
  H   H986      1.0  0.95178  0.56162  0.98104  1.0000
  H   H987      1.0  0.84189  0.79587  0.76216  1.0000
  H   H988      1.0  0.96621  0.58943  0.78717  1.0000
  C   C563      1.0  0.83925  0.77605  0.74253  1.0000
  C   C564      1.0  0.88660  0.61411  0.01160  1.0000
  H   H989      1.0  0.98088  0.57442  0.82073  1.0000
  S   S128      1.0  0.92592  0.49429  0.83519  1.0000
  H   H990      1.0  0.89757  0.49563  0.97872  1.0000
  C   C565      1.0  0.80984  0.69105  0.82223  1.0000
  H   H991      1.0  0.73763  0.87764  0.75877  1.0000
  H   H992      1.0  0.80351  0.71941  0.83687  1.0000
  H   H993      1.0  0.95535  0.69481  0.96128  1.0000
  H   H994      1.0  0.60364  0.95910  0.82467  1.0000
  H   H995      1.0  0.82977  0.67093  0.83102  1.0000
  C   C566      1.0  0.79743  0.73578  0.77887  1.0000
  H   H996      1.0  0.84821  0.72517  0.79327  1.0000
  C   C567      1.0  0.82406  0.70640  0.79160  1.0000
  H   H997      1.0  0.82187  0.53862  0.01207  1.0000
  H   H998      1.0  0.91537  0.54027  0.72572  1.0000
  H   H999      1.0  0.87451  0.73631  0.71246  1.0000
  H   H1000     1.0  0.72053  0.83290  0.73973  1.0000
  H   H1001     1.0  0.55436  0.91928  0.80848  1.0000
  H   H1002     1.0  0.90374  0.80789  0.71659  1.0000
  H   H1003     1.0  0.78620  0.67052  0.82197  1.0000
  H   H1004     1.0  0.75318  0.80858  0.77999  1.0000
  H   H1005     1.0  0.95186  0.52474  0.74226  1.0000
  C   C568      1.0  0.95607  0.53993  0.96178  1.0000
  H   H1006     1.0  0.75907  0.86211  0.72355  1.0000
  H   H1007     1.0  0.79154  0.83596  0.76215  1.0000
  H   H1008     1.0  0.97647  0.59890  0.87736  1.0000
  H   H1009     1.0  0.78181  0.78781  0.71685  1.0000
  H   H1010     1.0  0.93655  0.54730  0.94717  1.0000
  C   C569      1.0  0.54073  0.95119  0.80884  1.0000
  C   C570      1.0  0.86094  0.58388  0.02257  1.0000
  C   C571      1.0  0.81303  0.71601  0.69550  1.0000
  H   H1011     1.0  0.52137  0.94962  0.79340  1.0000
  H   H1012     1.0  0.52648  0.95682  0.83092  1.0000
  H   H1013     1.0  0.68968  0.92898  0.74861  1.0000
  H   H1014     1.0  0.65849  0.95724  0.83999  1.0000
  C   C572      1.0  0.99903  0.63755  0.70916  1.0000
  H   H1015     1.0  0.97575  0.48510  0.98282  1.0000
  H   H1016     1.0  0.88999  0.49012  0.77076  1.0000
  H   H1017     1.0  0.97991  0.65846  0.69993  1.0000
  C   C573      1.0  0.98824  0.57516  0.79678  1.0000
  H   H1018     1.0  0.68252  0.95917  0.88556  1.0000
  H   H1019     1.0  0.65597  0.96124  0.73628  1.0000
  C   C574      1.0  0.99244  0.49447  0.69546  1.0000
  C   C575      1.0  0.91840  0.48175  0.99014  1.0000
  H   H1020     1.0  0.68292  0.96808  0.79513  1.0000
  H   H1021     1.0  0.99879  0.49069  0.71796  1.0000
  N   N32       1.0  0.96043  0.52255  0.69524  1.0000
  H   H1022     1.0  0.99244  0.54117  0.78871  1.0000
  C   C576      1.0  0.66119  0.96970  0.78200  1.0000
  H   H1023     1.0  0.91745  0.50182  0.01019  1.0000
  H   H1024     1.0  0.62601  0.97550  0.86857  1.0000
