data_image0
_chemical_formula_structural       FeSHFeS2FeCFeS4HFeSCHFeS4H2CH4C6H4C6H3C3H4CFeNC9H5CH13CHCHNCH7SH2CH5CHNH3CHCH2CHC2H2C2HCH4C2SH5CHCHCHCSH2CHC2H15CH3C2HC2H4CHCH2CHNC2H2CHCSH2CHC2H3CH11C2HC2H4CH3CHCHC2H2CHCH2SFeSHFeSFeS3CSC2HFeH2C3HCHNCH2CHC3HFeC2SHSHC3SH4C3H10FeSHFe2H2SC2SCH4C2HFeH2CHSHCH7CH4NCHCH7CH2CH3C2HCH3CHCHC2H4FeS2FeSHFeSFeS3FeS2H2FeH3SCHC3H5CH2CSCHC6H4C2H6CHCH4CH6CH5SH9CHCH2CH2CHNHCH9CHNC9H2CH8CH2C2HCHCHC2SHCH4SH3CFeH2C2H4C4H2CHC3SC3H2C2H3CH2CH4CFeS2FeS2FeSFeCS2CHC2SHCHCNHC2H10C5H2C6H4C2H2CH4C3H5C2HCH3C2HC3H3CH3C2HC2H3SHCHNHCH3CH4C2H4CH3CHCH10CHCHC2HC3HCH2CH2CH2C3H4CH2CH3C2HNCH3SCHCH2NH8C2H3NCHCH3C2H8CH5CH3CH2CH2FeS2Fe2SFeS3FeSFeSFeSFeCS2HFeSHSHC2H5C2H2C6H2CHC6H4CS2CHFeHCH4C2HC2HCHSHC3NC12H16CH12C2HSH2C3H2CHCHCH3SFeNCHSCH3SCH2CSHSH3FeHCH3CH2CFeS2FeSHFeSFeS3HSH2C2SC2H3C7H5C4H6C2H4NC7HCH13C2H4C2H2C3HC3H3CH2CH3C3HCHCH3CHC2HCH4CHCH3CH4CNCH3CH3C2H2SH3CH3CNCFeH2CHCH2SHC2H2CHCHNCH4CHCH3CH2CNHC2H5C2H6NH4CH5CH2SH7NS2HCFeSC3HC2H2CSHC3H2CH2CHSH3CHCHCHC3H4CH3CHCH2NH7CFeNH2CH2CH2CHCHC2HCHC2H3CFeH2CH2CH4CNCH2CHFeH2SH2CH4C2H5CH4SC2HCHC4H2CSCH2C2H4FeSCFeS2FeS2Fe2S2H2C4HCH3C3SC2H6CH2C4H2S2HSH2C2SC2HSH2NHC4HCHC2HC2H9SH3CH3C2HFeCH4FeH2FeH2C2H3NC4H2C2SC4H6CHC2HCH7CH3SFeH2FeHSH2S2CSHC8H3C5H4C2H4NC3H2CH2CH2CH13CHCH3CH9CH3CH3CHC2H2CHNC5HC3H11CH4C3HNSC3H3SFeC2H6CH2FeH5SH6SFeC2HCH4CH3CH6CHC2H6FeSFeHNH3C2SC2H2S2CH6CH3CH5C2H5CHC2H7C2NC2HCH7CH3FeSCH2C3HCHCH3SH4CHCH4CH3SH2CH6CHCHCH
_chemical_formula_sum              "Fe64 S128 H1024 C576 N32"
_cell_length_a       27.272
_cell_length_b       38.6962
_cell_length_c       49.6222
_cell_angle_alpha    92.0584
_cell_angle_beta     80.792
_cell_angle_gamma    81.0097

_space_group_name_H-M_alt    "P 1"
_space_group_IT_number       1

loop_
  _space_group_symop_operation_xyz
  'x, y, z'

loop_
  _atom_site_type_symbol
  _atom_site_label
  _atom_site_symmetry_multiplicity
  _atom_site_fract_x
  _atom_site_fract_y
  _atom_site_fract_z
  _atom_site_occupancy
  Fe  Fe1       1.0  0.25398  0.05038  0.12403  1.0000
  S   S1        1.0  0.33025  0.05948  0.13167  1.0000
  H   H1        1.0  0.20633  0.47207  0.27837  1.0000
  Fe  Fe2       1.0  0.21438  0.12835  0.12264  1.0000
  S   S2        1.0  0.28732  0.14323  0.13019  1.0000
  S   S3        1.0  0.14701  0.16635  0.11503  1.0000
  Fe  Fe3       1.0  0.32257  0.09873  0.09940  1.0000
  C   C1        1.0  0.43042  0.39234  0.28777  1.0000
  Fe  Fe4       1.0  0.28688  0.10281  0.16178  1.0000
  S   S4        1.0  0.29015  0.11950  0.20595  1.0000
  S   S5        1.0  0.24979  0.08655  0.08995  1.0000
  S   S6        1.0  0.21083  0.09095  0.15605  1.0000
  S   S7        1.0  0.42114  0.06268  0.29550  1.0000
  H   H2        1.0  0.45241  0.47413  0.06981  1.0000
  Fe  Fe5       1.0  0.05642  0.40979  0.09350  1.0000
  S   S8        1.0  0.03507  0.35843  0.10646  1.0000
  C   C2        1.0  0.05821  0.28617  0.01804  1.0000
  H   H3        1.0  0.43698  0.43242  0.24790  1.0000
  Fe  Fe6       1.0  0.07777  0.36443  0.14076  1.0000
  S   S9        1.0  0.13761  0.32446  0.15343  1.0000
  S   S10       1.0  0.10358  0.41386  0.12665  1.0000
  S   S11       1.0  0.02482  0.48410  0.18688  1.0000
  S   S12       1.0  0.38397  0.10534  0.06461  1.0000
  H   H4        1.0  0.17446  0.17056  0.17660  1.0000
  H   H5        1.0  0.27751  0.42723  0.31069  1.0000
  C   C3        1.0  0.06435  0.42267  0.02026  1.0000
  H   H6        1.0  0.37663  0.02231  0.07421  1.0000
  H   H7        1.0  0.10042  0.14223  0.18179  1.0000
  H   H8        1.0  0.39660  0.45969  0.12760  1.0000
  H   H9        1.0  0.43989  0.46306  0.30545  1.0000
  C   C4        1.0  0.14580  0.21092  0.12339  1.0000
  C   C5        1.0  0.18770  0.22258  0.13113  1.0000
  C   C6        1.0  0.18545  0.25794  0.13916  1.0000
  C   C7        1.0  0.14097  0.28168  0.13984  1.0000
  C   C8        1.0  0.09947  0.27045  0.13112  1.0000
  C   C9        1.0  0.10199  0.23504  0.12281  1.0000
  H   H10       1.0  0.22161  0.20433  0.13131  1.0000
  H   H11       1.0  0.21785  0.26685  0.14538  1.0000
  H   H12       1.0  0.06493  0.28871  0.13169  1.0000
  H   H13       1.0  0.06944  0.22612  0.11674  1.0000
  C   C10       1.0  0.32670  0.10105  0.22991  1.0000
  C   C11       1.0  0.30940  0.11105  0.25765  1.0000
  C   C12       1.0  0.33755  0.09895  0.27774  1.0000
  C   C13       1.0  0.38402  0.07708  0.27044  1.0000
  C   C14       1.0  0.40151  0.06685  0.24261  1.0000
  C   C15       1.0  0.37282  0.07859  0.22238  1.0000
  H   H14       1.0  0.27365  0.12813  0.26369  1.0000
  H   H15       1.0  0.32305  0.10672  0.29885  1.0000
  H   H16       1.0  0.43734  0.04977  0.23668  1.0000
  C   C16       1.0  0.06194  0.44014  0.22472  1.0000
  C   C17       1.0  0.36997  0.11779  0.03234  1.0000
  C   C18       1.0  0.32894  0.10852  0.02143  1.0000
  H   H17       1.0  0.11150  0.27179  0.04570  1.0000
  H   H18       1.0  0.30404  0.09324  0.03302  1.0000
  H   H19       1.0  0.14272  0.33795  0.22124  1.0000
  H   H20       1.0  0.29843  0.46899  0.25934  1.0000
  C   C19       1.0  0.34363  0.01067  0.03867  1.0000
  Fe  Fe7       1.0  0.03258  0.44065  0.15373  1.0000
  N   N1        1.0  0.26704  0.23071  0.05412  1.0000
  C   C20       1.0  0.22266  0.26011  0.06092  1.0000
  C   C21       1.0  0.24881  0.19566  0.05394  1.0000
  C   C22       1.0  0.29871  0.23185  0.07641  1.0000
  C   C23       1.0  0.30001  0.23489  0.02733  1.0000
  C   C24       1.0  0.23485  0.29759  0.06493  1.0000
  C   C25       1.0  0.19802  0.19431  0.04380  1.0000
  C   C26       1.0  0.19003  0.15660  0.03861  1.0000
  C   C27       1.0  0.18688  0.32498  0.06883  1.0000
  C   C28       1.0  0.37013  0.20412  0.09985  1.0000
  H   H21       1.0  0.19814  0.25495  0.08005  1.0000
  H   H22       1.0  0.19833  0.26112  0.04509  1.0000
  H   H23       1.0  0.24291  0.18625  0.07503  1.0000
  H   H24       1.0  0.27445  0.23354  0.09684  1.0000
  H   H25       1.0  0.31667  0.25580  0.07565  1.0000
  C   C29       1.0  0.42441  0.48172  0.29129  1.0000
  H   H26       1.0  0.34884  0.47972  0.31007  1.0000
  H   H27       1.0  0.25219  0.30003  0.08355  1.0000
  H   H28       1.0  0.26073  0.30425  0.04700  1.0000
  H   H29       1.0  0.16629  0.20730  0.05963  1.0000
  H   H30       1.0  0.46442  0.45768  0.20402  1.0000
  H   H31       1.0  0.19286  0.14168  0.05715  1.0000
  H   H32       1.0  0.35172  0.46271  0.00639  1.0000
  H   H33       1.0  0.42086  0.42778  0.09901  1.0000
  H   H34       1.0  0.16941  0.20277  0.30088  1.0000
  H   H35       1.0  0.16920  0.32553  0.05015  1.0000
  H   H36       1.0  0.34392  0.20554  0.11956  1.0000
  H   H37       1.0  0.39991  0.18081  0.09930  1.0000
  H   H38       1.0  0.23376  0.18348  0.28706  1.0000
  C   C30       1.0  0.38734  0.46492  0.22607  1.0000
  H   H39       1.0  0.42475  0.45680  0.03174  1.0000
  C   C31       1.0  0.21097  0.06829  0.31616  1.0000
  H   H40       1.0  0.37017  0.19881  0.05687  1.0000
  N   N2        1.0  0.47598  0.16284  0.28029  1.0000
  C   C32       1.0  0.18453  0.21072  0.24471  1.0000
  H   H41       1.0  0.27816  0.17535  0.04174  1.0000
  H   H42       1.0  0.47247  0.17425  0.22396  1.0000
  H   H43       1.0  0.15788  0.32691  0.25450  1.0000
  H   H44       1.0  0.99655  0.39193  0.26189  1.0000
  H   H45       1.0  0.35545  0.43350  0.11460  1.0000
  H   H46       1.0  0.04661  0.27726  0.06145  1.0000
  H   H47       1.0  0.36277  0.00551  0.30585  1.0000
  S   S13       1.0  0.00986  0.39129  0.16964  1.0000
  H   H48       1.0  0.29815  0.03396  0.28528  1.0000
  H   H49       1.0  0.36513  0.20927  0.19393  1.0000
  C   C33       1.0  0.26988  0.44929  0.29747  1.0000
  H   H50       1.0  0.29039  0.20069  0.22570  1.0000
  H   H51       1.0  0.42456  0.43099  0.19006  1.0000
  H   H52       1.0  0.06712  0.17439  0.20833  1.0000
  H   H53       1.0  0.11437  0.27405  0.25210  1.0000
  H   H54       1.0  0.18455  0.99714  0.18727  1.0000
  C   C34       1.0  0.02562  0.45160  0.02372  1.0000
  H   H55       1.0  0.32750  0.17537  0.07735  1.0000
  N   N3        1.0  0.36402  0.44289  0.27467  1.0000
  H   H56       1.0  0.13958  0.23210  0.18563  1.0000
  H   H57       1.0  0.28420  0.24525  0.21506  1.0000
  H   H58       1.0  0.35242  0.39166  0.28865  1.0000
  C   C35       1.0  0.24264  0.03350  0.32082  1.0000
  H   H59       1.0  0.36312  0.46199  0.07134  1.0000
  C   C36       1.0  0.33006  0.20687  0.18583  1.0000
  H   H60       1.0  0.01891  0.30031  0.02022  1.0000
  H   H61       1.0  0.18905  0.45271  0.31020  1.0000
  C   C37       1.0  0.41922  0.17272  0.28512  1.0000
  H   H62       1.0  0.25189  0.02633  0.01966  1.0000
  C   C38       1.0  0.33643  0.19860  0.31527  1.0000
  C   C39       1.0  0.13099  0.32467  0.24016  1.0000
  H   H63       1.0  0.21884  0.00281  0.21519  1.0000
  H   H64       1.0  0.43899  0.37651  0.26794  1.0000
  C   C40       1.0  0.16515  0.01930  0.00191  1.0000
  C   C41       1.0  0.07193  0.43271  0.25113  1.0000
  H   H65       1.0  0.38817  0.22796  0.09855  1.0000
  C   C42       1.0  0.34211  0.20048  0.07586  1.0000
  H   H66       1.0  0.30606  0.02414  0.04900  1.0000
  H   H67       1.0  0.19612  0.35144  0.07292  1.0000
  H   H68       1.0  0.47450  0.12052  0.30739  1.0000
  H   H69       1.0  0.47766  0.35237  0.30597  1.0000
  C   C43       1.0  0.39239  0.18509  0.31461  1.0000
  C   C44       1.0  0.14654  0.17786  0.19563  1.0000
  S   S14       1.0  0.09037  0.40438  0.04808  1.0000
  H   H70       1.0  0.18811  0.27623  0.19832  1.0000
  H   H71       1.0  0.30460  0.42246  0.25824  1.0000
  H   H72       1.0  0.07578  0.42088  0.20779  1.0000
  H   H73       1.0  0.40190  0.14958  0.28003  1.0000
  H   H74       1.0  0.40752  0.19317  0.27114  1.0000
  C   C45       1.0  0.18099  0.26626  0.21919  1.0000
  H   H75       1.0  0.43406  0.14432  0.02506  1.0000
  C   C46       1.0  0.27485  0.23596  0.00155  1.0000
  H   H76       1.0  0.09319  0.40761  0.25431  1.0000
  C   C47       1.0  0.12871  0.28620  0.23314  1.0000
  H   H77       1.0  0.16361  0.04539  0.01242  1.0000
  C   C48       1.0  0.20515  0.23016  0.26735  1.0000
  S   S15       1.0  0.06845  0.44707  0.30622  1.0000
  H   H78       1.0  0.44929  0.47826  0.27113  1.0000
  H   H79       1.0  0.31790  0.17784  0.30708  1.0000
  C   C49       1.0  0.37546  0.41229  0.29220  1.0000
  H   H80       1.0  0.15935  0.31937  0.08653  1.0000
  C   C50       1.0  0.23512  0.21227  0.19844  1.0000
  C   C51       1.0  0.03563  0.47291  0.22011  1.0000
  H   H81       1.0  0.08306  0.18691  0.17356  1.0000
  H   H82       1.0  0.00318  0.34201  0.30687  1.0000
  H   H83       1.0  0.32749  0.22417  0.16857  1.0000
  H   H84       1.0  0.24611  0.01408  0.27886  1.0000
  H   H85       1.0  0.47048  0.12904  0.18765  1.0000
  H   H86       1.0  0.22084  0.22338  0.30857  1.0000
  H   H87       1.0  0.33132  0.22201  0.30308  1.0000
  H   H88       1.0  0.02312  0.38347  0.30419  1.0000
  H   H89       1.0  0.14512  0.20844  0.25374  1.0000
  H   H90       1.0  0.33832  0.01254  0.24474  1.0000
  H   H91       1.0  0.10106  0.28573  0.21896  1.0000
  H   H92       1.0  0.18326  0.06401  0.30275  1.0000
  H   H93       1.0  0.15198  0.15653  0.03334  1.0000
  H   H94       1.0  0.23522  0.22334  0.17810  1.0000
  H   H95       1.0  0.39059  0.41097  0.23695  1.0000
  C   C52       1.0  0.00752  0.46584  0.00071  1.0000
  H   H96       1.0  0.21001  0.27515  0.22980  1.0000
  H   H97       1.0  0.33184  0.21263  0.02283  1.0000
  H   H98       1.0  0.18028  0.25546  0.27424  1.0000
  C   C53       1.0  0.07395  0.28785  0.04620  1.0000
  C   C54       1.0  0.05490  0.45759  0.27332  1.0000
  H   H99       1.0  0.33244  0.17920  0.17821  1.0000
  C   C55       1.0  0.40211  0.13729  0.01698  1.0000
  C   C56       1.0  0.38792  0.44735  0.10872  1.0000
  H   H100      1.0  0.24337  0.23592  0.26025  1.0000
  H   H101      1.0  0.05830  0.25832  0.01184  1.0000
  H   H102      1.0  0.15785  0.16082  0.21184  1.0000
  H   H103      1.0  0.20493  0.18314  0.24199  1.0000
  C   C57       1.0  0.20733  0.20853  0.29244  1.0000
  H   H104      1.0  0.48044  0.16048  0.32364  1.0000
  C   C58       1.0  0.09606  0.17003  0.18953  1.0000
  H   H105      1.0  0.10701  0.22537  0.21824  1.0000
  H   H106      1.0  0.24815  0.00559  0.18026  1.0000
  C   C59       1.0  0.28449  0.21758  0.20848  1.0000
  H   H107      1.0  0.23873  0.18355  0.19451  1.0000
  N   N4        1.0  0.18642  0.22675  0.21725  1.0000
  C   C60       1.0  0.14345  0.21726  0.20416  1.0000
  C   C61       1.0  0.37432  0.99912  0.06091  1.0000
  H   H108      1.0  0.31806  0.25862  0.02867  1.0000
  H   H109      1.0  0.38675  0.07080  0.20102  1.0000
  C   C62       1.0  0.39627  0.43618  0.24663  1.0000
  H   H110      1.0  0.23540  0.08657  0.30678  1.0000
  C   C63       1.0  0.22196  0.99190  0.19386  1.0000
  S   S16       1.0  0.22864  0.99848  0.11797  1.0000
  H   H111      1.0  0.40879  0.20602  0.32380  1.0000
  H   H112      1.0  0.41191  0.34836  0.31168  1.0000
  C   C64       1.0  0.42584  0.45712  0.19973  1.0000
  H   H113      1.0  0.02634  0.35124  0.21959  1.0000
  C   C65       1.0  0.43873  0.36732  0.31039  1.0000
  C   C66       1.0  0.30962  0.44572  0.27085  1.0000
  H   H114      1.0  0.21840  0.14331  0.02134  1.0000
  H   H115      1.0  0.07506  0.31540  0.05288  1.0000
  H   H116      1.0  0.09334  0.33844  0.25010  1.0000
  C   C67       1.0  0.21684  0.44973  0.29091  1.0000
  H   H117      1.0  0.36302  0.02991  0.02693  1.0000
  H   H118      1.0  0.42590  0.14687  0.23374  1.0000
  H   H119      1.0  0.19550  0.20770  0.02470  1.0000
  H   H120      1.0  0.21425  0.42485  0.27974  1.0000
  H   H121      1.0  0.34955  0.46618  0.22021  1.0000
  H   H122      1.0  0.45458  0.23889  0.29949  1.0000
  H   H123      1.0  0.01056  0.46349  0.04402  1.0000
  H   H124      1.0  0.45803  0.41035  0.28734  1.0000
  H   H125      1.0  0.39526  0.16274  0.32797  1.0000
  H   H126      1.0  0.48826  0.20768  0.25670  1.0000
  H   H127      1.0  0.36430  0.42085  0.31433  1.0000
  C   C68       1.0  0.37006  0.47683  0.28880  1.0000
  C   C69       1.0  0.27298  0.01542  0.29347  1.0000
  H   H128      1.0  0.26943  0.47417  0.30943  1.0000
  C   C70       1.0  0.46698  0.14760  0.22984  1.0000
  C   C71       1.0  0.37461  0.47529  0.08892  1.0000
  H   H129      1.0  0.00849  0.32544  0.26477  1.0000
  H   H130      1.0  0.48147  0.11103  0.26058  1.0000
  H   H131      1.0  0.39008  0.99398  0.26114  1.0000
  H   H132      1.0  0.24021  0.25573  0.00425  1.0000
  C   C72       1.0  0.49294  0.14416  0.30425  1.0000
  H   H133      1.0  0.00329  0.31026  0.21723  1.0000
  H   H134      1.0  0.08233  0.33246  0.00105  1.0000
  H   H135      1.0  0.13181  0.29734  0.00104  1.0000
  C   C73       1.0  0.49001  0.12210  0.20520  1.0000
  H   H136      1.0  0.48569  0.09482  0.21003  1.0000
  C   C74       1.0  0.25563  0.00030  0.00854  1.0000
  H   H137      1.0  0.15158  0.00103  0.01708  1.0000
  C   C75       1.0  0.49296  0.22344  0.29774  1.0000
  C   C76       1.0  0.41752  0.47970  0.01932  1.0000
  H   H138      1.0  0.45418  0.48551  0.00892  1.0000
  H   H139      1.0  0.41758  0.47732  0.18500  1.0000
  C   C77       1.0  0.49112  0.13728  0.25541  1.0000
  H   H140      1.0  0.32668  0.98824  0.13479  1.0000
  C   C78       1.0  0.38883  0.46909  0.99714  1.0000
  H   H141      1.0  0.47669  0.29630  0.37700  1.0000
  H   H142      1.0  0.19002  0.08062  0.33613  1.0000
  S   S17       1.0  0.32510  0.11993  0.35259  1.0000
  Fe  Fe8       1.0  0.40567  0.07232  0.40166  1.0000
  S   S18       1.0  0.33754  0.11292  0.41555  1.0000
  H   H143      1.0  0.45972  0.18578  0.43431  1.0000
  Fe  Fe9       1.0  0.30305  0.08386  0.38531  1.0000
  S   S19       1.0  0.22457  0.06988  0.39260  1.0000
  Fe  Fe10      1.0  0.36967  0.14315  0.38110  1.0000
  S   S20       1.0  0.37485  0.20143  0.38622  1.0000
  S   S21       1.0  0.36983  0.04196  0.37268  1.0000
  S   S22       1.0  0.43939  0.10363  0.36810  1.0000
  C   C79       1.0  0.24332  0.44891  0.57352  1.0000
  S   S23       1.0  0.47388  0.17580  0.62554  1.0000
  C   C80       1.0  0.20626  0.47074  0.53314  1.0000
  C   C81       1.0  0.37005  0.07967  0.52427  1.0000
  H   H144      1.0  0.24677  0.01639  0.61041  1.0000
  Fe  Fe11      1.0  0.44988  0.12128  0.62548  1.0000
  H   H145      1.0  0.35492  0.29287  0.47771  1.0000
  H   H146      1.0  0.45043  0.12493  0.43744  1.0000
  C   C82       1.0  0.46454  0.17472  0.45427  1.0000
  C   C83       1.0  0.19893  0.41796  0.61226  1.0000
  C   C84       1.0  0.42185  0.16999  0.50210  1.0000
  H   H147      1.0  0.14146  0.42906  0.51379  1.0000
  C   C85       1.0  0.41096  0.22575  0.48000  1.0000
  H   H148      1.0  0.43526  0.17139  0.55678  1.0000
  N   N5        1.0  0.41776  0.18644  0.47522  1.0000
  C   C86       1.0  0.46803  0.15735  0.54210  1.0000
  H   H149      1.0  0.25278  0.43715  0.49920  1.0000
  H   H150      1.0  0.44481  0.23356  0.48674  1.0000
  C   C87       1.0  0.19272  0.44721  0.59258  1.0000
  H   H151      1.0  0.43695  0.24285  0.43907  1.0000
  C   C88       1.0  0.43278  0.21793  0.38052  1.0000
  C   C89       1.0  0.47043  0.17280  0.51405  1.0000
  C   C90       1.0  0.47768  0.26824  0.37662  1.0000
  H   H152      1.0  0.31862  0.00802  0.53992  1.0000
  Fe  Fe12      1.0  0.03437  0.48327  0.34420  1.0000
  C   C91       1.0  0.43232  0.25436  0.38121  1.0000
  C   C92       1.0  0.42237  0.06947  0.51804  1.0000
  S   S24       1.0  0.46146  0.07837  0.59168  1.0000
  H   H153      1.0  0.39669  0.27198  0.38525  1.0000
  S   S25       1.0  0.36567  0.13202  0.62716  1.0000
  H   H154      1.0  0.02285  0.36989  0.37762  1.0000
  C   C93       1.0  0.40242  0.24722  0.45481  1.0000
  C   C94       1.0  0.20743  0.02752  0.38936  1.0000
  C   C95       1.0  0.15733  0.02617  0.38704  1.0000
  S   S26       1.0  0.02601  0.46331  0.44745  1.0000
  H   H155      1.0  0.26845  0.03934  0.33491  1.0000
  H   H156      1.0  0.25684  0.42224  0.56364  1.0000
  H   H157      1.0  0.13101  0.05029  0.38747  1.0000
  H   H158      1.0  0.22531  0.41304  0.52681  1.0000
  C   C96       1.0  0.34183  0.08117  0.50296  1.0000
  C   C97       1.0  0.36540  0.07244  0.47573  1.0000
  C   C98       1.0  0.41767  0.06252  0.46934  1.0000
  H   H159      1.0  0.30128  0.08850  0.50758  1.0000
  H   H160      1.0  0.34266  0.07210  0.45988  1.0000
  H   H161      1.0  0.42166  0.29533  0.47160  1.0000
  H   H162      1.0  0.47585  0.31996  0.57061  1.0000
  H   H163      1.0  0.40484  0.00414  0.53715  1.0000
  H   H164      1.0  0.48226  0.24842  0.62858  1.0000
  H   H165      1.0  0.05074  0.34033  0.34829  1.0000
  H   H166      1.0  0.33430  0.99863  0.58796  1.0000
  H   H167      1.0  0.38968  0.18199  0.51808  1.0000
  H   H168      1.0  0.27980  0.99640  0.39077  1.0000
  Fe  Fe13      1.0  0.39370  0.07898  0.34085  1.0000
  S   S27       1.0  0.33797  0.09006  0.55821  1.0000
  H   H169      1.0  0.37949  0.23513  0.49716  1.0000
  Fe  Fe14      1.0  0.36144  0.09205  0.65877  1.0000
  Fe  Fe15      1.0  0.37760  0.08766  0.59515  1.0000
  H   H170      1.0  0.31784  0.20613  0.33673  1.0000
  H   H171      1.0  0.22712  0.42238  0.62535  1.0000
  S   S28       1.0  0.44459  0.08290  0.65886  1.0000
  C   C99       1.0  0.39045  0.28652  0.46272  1.0000
  C   C100      1.0  0.03067  0.36727  0.35490  1.0000
  S   S29       1.0  0.36319  0.04882  0.62686  1.0000
  C   C101      1.0  0.44605  0.06082  0.49069  1.0000
  H   H172      1.0  0.02061  0.44463  0.50306  1.0000
  H   H173      1.0  0.37090  0.24009  0.44537  1.0000
  H   H174      1.0  0.48644  0.05273  0.48605  1.0000
  H   H175      1.0  0.44452  0.06790  0.53428  1.0000
  C   C102      1.0  0.37340  0.17527  0.46460  1.0000
  C   C103      1.0  0.32071  0.19047  0.48119  1.0000
  H   H176      1.0  0.16701  0.45499  0.48704  1.0000
  Fe  Fe16      1.0  0.44632  0.04128  0.62524  1.0000
  H   H177      1.0  0.47564  0.20046  0.51675  1.0000
  H   H178      1.0  0.21657  0.01689  0.33108  1.0000
  C   C104      1.0  0.27908  0.17552  0.46976  1.0000
  H   H179      1.0  0.41826  0.14173  0.50053  1.0000
  S   S30       1.0  0.44802  0.05124  0.43508  1.0000
  H   H180      1.0  0.32488  0.99155  0.33418  1.0000
  C   C105      1.0  0.33114  0.44138  0.53152  1.0000
  H   H181      1.0  0.22413  0.00148  0.58051  1.0000
  H   H182      1.0  0.18666  0.40815  0.48513  1.0000
  H   H183      1.0  0.34300  0.43248  0.55090  1.0000
  H   H184      1.0  0.37360  0.18172  0.44291  1.0000
  H   H185      1.0  0.37646  0.14621  0.46418  1.0000
  H   H186      1.0  0.31264  0.21937  0.48036  1.0000
  H   H187      1.0  0.31801  0.18398  0.50290  1.0000
  C   C106      1.0  0.37877  0.44496  0.51159  1.0000
  H   H188      1.0  0.39886  0.46473  0.51988  1.0000
  H   H189      1.0  0.46483  0.12913  0.54041  1.0000
  H   H190      1.0  0.25831  0.03817  0.57916  1.0000
  H   H191      1.0  0.38572  0.30113  0.44418  1.0000
  N   N6        1.0  0.24201  0.47633  0.55257  1.0000
  C   C107      1.0  0.21891  0.43638  0.51476  1.0000
  H   H192      1.0  0.10178  0.99381  0.38197  1.0000
  C   C108      1.0  0.47916  0.13466  0.44784  1.0000
  H   H193      1.0  0.24181  0.18732  0.48165  1.0000
  H   H194      1.0  0.27956  0.18157  0.44800  1.0000
  H   H195      1.0  0.28378  0.14666  0.47142  1.0000
  H   H196      1.0  0.31390  0.42042  0.52290  1.0000
  H   H197      1.0  0.27115  0.45337  0.58694  1.0000
  H   H198      1.0  0.05530  0.38656  0.34765  1.0000
  H   H199      1.0  0.21082  0.39201  0.60083  1.0000
  C   C109      1.0  0.17584  0.43200  0.49927  1.0000
  H   H200      1.0  0.16238  0.41772  0.62586  1.0000
  H   H201      1.0  0.16327  0.44197  0.58067  1.0000
  C   C110      1.0  0.25546  0.01228  0.58778  1.0000
  H   H202      1.0  0.36931  0.45280  0.49147  1.0000
  H   H203      1.0  0.40462  0.41940  0.50826  1.0000
  H   H204      1.0  0.49132  0.35093  0.64706  1.0000
  C   C111      1.0  0.04312  0.48391  0.47618  1.0000
  C   C112      1.0  0.29452  0.47691  0.53720  1.0000
  H   H205      1.0  0.04693  0.47102  0.54378  1.0000
  C   C113      1.0  0.03648  0.46856  0.50148  1.0000
  H   H206      1.0  0.48019  0.16759  0.37529  1.0000
  H   H207      1.0  0.16742  0.47237  0.54450  1.0000
  H   H208      1.0  0.48228  0.12040  0.46659  1.0000
  C   C114      1.0  0.47918  0.19556  0.37547  1.0000
  H   H209      1.0  0.17896  0.47196  0.60538  1.0000
  C   C115      1.0  0.14070  0.99402  0.38392  1.0000
  H   H210      1.0  0.34160  0.00398  0.49516  1.0000
  C   C116      1.0  0.05115  0.48355  0.52460  1.0000
  C   C117      1.0  0.24103  0.99579  0.38880  1.0000
  H   H211      1.0  0.40927  0.99493  0.49100  1.0000
  H   H212      1.0  0.37906  0.99687  0.44665  1.0000
  H   H213      1.0  0.49119  0.36255  0.57821  1.0000
  H   H214      1.0  0.43410  0.38225  0.33044  1.0000
  Fe  Fe17      1.0  0.30389  0.13095  0.91727  1.0000
  S   S31       1.0  0.22473  0.12059  0.92691  1.0000
  S   S32       1.0  0.34347  0.15489  0.94816  1.0000
  Fe  Fe18      1.0  0.31280  0.11044  0.85580  1.0000
  S   S33       1.0  0.23404  0.09879  0.86118  1.0000
  H   H215      1.0  0.37249  0.22522  0.80483  1.0000
  Fe  Fe19      1.0  0.21352  0.14810  0.88873  1.0000
  S   S34       1.0  0.14162  0.18558  0.88721  1.0000
  Fe  Fe20      1.0  0.25312  0.07258  0.89870  1.0000
  S   S35       1.0  0.22743  0.02142  0.90893  1.0000
  S   S36       1.0  0.29112  0.16189  0.88070  1.0000
  S   S37       1.0  0.33361  0.08081  0.89162  1.0000
  Fe  Fe21      1.0  0.08178  0.38099  0.86490  1.0000
  S   S38       1.0  0.08807  0.43776  0.87186  1.0000
  S   S39       1.0  0.15433  0.34297  0.86113  1.0000
  H   H216      1.0  0.22898  0.05091  0.80886  1.0000
  H   H217      1.0  0.42155  0.01871  0.88364  1.0000
  Fe  Fe22      1.0  0.03515  0.44736  0.84132  1.0000
  H   H218      1.0  0.43163  0.27658  0.71099  1.0000
  H   H219      1.0  0.28949  0.11131  0.98661  1.0000
  H   H220      1.0  0.41563  0.99388  0.68139  1.0000
  S   S40       1.0  0.03394  0.39031  0.83203  1.0000
  C   C118      1.0  0.15487  0.23797  0.97232  1.0000
  H   H221      1.0  0.38833  0.18320  0.81859  1.0000
  C   C119      1.0  0.17597  0.31611  0.95040  1.0000
  C   C120      1.0  0.06975  0.44923  0.76292  1.0000
  C   C121      1.0  0.08402  0.44438  0.73425  1.0000
  H   H222      1.0  0.23802  0.34327  0.93570  1.0000
  H   H223      1.0  0.24010  0.16708  0.71513  1.0000
  H   H224      1.0  0.32804  0.18027  0.78664  1.0000
  H   H225      1.0  0.07090  0.42681  0.77535  1.0000
  H   H226      1.0  0.09603  0.41815  0.72479  1.0000
  C   C122      1.0  0.24817  0.02341  0.80412  1.0000
  H   H227      1.0  0.45931  0.31251  0.74122  1.0000
  H   H228      1.0  0.08164  0.41045  0.95044  1.0000
  C   C123      1.0  0.21101  0.21318  0.74292  1.0000
  S   S41       1.0  0.36786  0.10228  0.81566  1.0000
  C   C124      1.0  0.38527  0.10089  0.75961  1.0000
  H   H229      1.0  0.04310  0.31275  0.91956  1.0000
  C   C125      1.0  0.14554  0.22934  0.88017  1.0000
  C   C126      1.0  0.10291  0.25128  0.87447  1.0000
  C   C127      1.0  0.10498  0.28642  0.86890  1.0000
  C   C128      1.0  0.14992  0.29955  0.86876  1.0000
  C   C129      1.0  0.19248  0.27765  0.87449  1.0000
  C   C130      1.0  0.19017  0.24272  0.88044  1.0000
  H   H230      1.0  0.06824  0.24103  0.87426  1.0000
  H   H231      1.0  0.07205  0.30318  0.86435  1.0000
  H   H232      1.0  0.22729  0.28780  0.87449  1.0000
  H   H233      1.0  0.22294  0.22625  0.88526  1.0000
  C   C131      1.0  0.29897  0.10070  0.78029  1.0000
  C   C132      1.0  0.28537  0.09967  0.75409  1.0000
  H   H234      1.0  0.27096  0.10055  0.79828  1.0000
  H   H235      1.0  0.24659  0.09907  0.75206  1.0000
  H   H236      1.0  0.26619  0.20962  0.99657  1.0000
  H   H237      1.0  0.33480  0.01251  0.90988  1.0000
  H   H238      1.0  0.08079  0.23968  0.96277  1.0000
  H   H239      1.0  0.19243  0.34357  0.91319  1.0000
  C   C133      1.0  0.32076  0.11865  0.99514  1.0000
  H   H240      1.0  0.40811  0.21732  0.70940  1.0000
  C   C134      1.0  0.31017  0.24538  0.97676  1.0000
  H   H241      1.0  0.32254  0.03595  0.80246  1.0000
  H   H242      1.0  0.41807  0.16373  0.98000  1.0000
  H   H243      1.0  0.47163  0.98957  0.82564  1.0000
  H   H244      1.0  0.42940  0.37038  0.66428  1.0000
  C   C135      1.0  0.46876  0.36118  0.66718  1.0000
  H   H245      1.0  0.20754  0.18903  0.96895  1.0000
  H   H246      1.0  0.29249  0.24367  0.95818  1.0000
  H   H247      1.0  0.16729  0.33444  0.78565  1.0000
  H   H248      1.0  0.15381  0.24137  0.78751  1.0000
  H   H249      1.0  0.13123  0.19071  0.79577  1.0000
  H   H250      1.0  0.40561  0.02620  0.70970  1.0000
  C   C136      1.0  0.38781  0.00777  0.96867  1.0000
  H   H251      1.0  0.31790  0.27248  0.97974  1.0000
  H   H252      1.0  0.18524  0.25375  0.97202  1.0000
  H   H253      1.0  0.29250  0.02713  0.83580  1.0000
  H   H254      1.0  0.22769  0.27879  0.77184  1.0000
  H   H255      1.0  0.17744  0.15807  0.77433  1.0000
  S   S42       1.0  0.30309  0.09826  0.69791  1.0000
  H   H256      1.0  0.17794  0.37157  0.94434  1.0000
  H   H257      1.0  0.25315  0.01763  0.78168  1.0000
  H   H258      1.0  0.42411  0.10135  0.76160  1.0000
  H   H259      1.0  0.20831  0.20362  0.69979  1.0000
  H   H260      1.0  0.14075  0.23370  0.99397  1.0000
  H   H261      1.0  0.13029  0.15058  0.83391  1.0000
  H   H262      1.0  0.40004  0.09992  0.71553  1.0000
  H   H263      1.0  0.18315  0.31898  0.97163  1.0000
  H   H264      1.0  0.36760  0.03211  0.68350  1.0000
  C   C137      1.0  0.46235  0.00572  0.75217  1.0000
  H   H265      1.0  0.01354  0.28558  0.97630  1.0000
  C   C138      1.0  0.45893  0.25400  0.71522  1.0000
  H   H266      1.0  0.12363  0.25258  0.93600  1.0000
  H   H267      1.0  0.12711  0.31134  0.80822  1.0000
  C   C139      1.0  0.02709  0.45075  0.97421  1.0000
  H   H268      1.0  0.28833  0.00231  0.68926  1.0000
  H   H269      1.0  0.19751  0.29095  0.94037  1.0000
  C   C140      1.0  0.38667  0.01228  0.69555  1.0000
  H   H270      1.0  0.11838  0.31156  0.92709  1.0000
  N   N7        1.0  0.09103  0.29412  0.96700  1.0000
  H   H271      1.0  0.31145  0.01899  0.96184  1.0000
  C   C141      1.0  0.32170  0.09931  0.73050  1.0000
  H   H272      1.0  0.22965  0.02360  0.97221  1.0000
  H   H273      1.0  0.14891  0.18522  0.95760  1.0000
  H   H274      1.0  0.38142  0.02375  0.83096  1.0000
  H   H275      1.0  0.13708  0.30134  0.77161  1.0000
  H   H276      1.0  0.17478  0.20391  0.74916  1.0000
  H   H277      1.0  0.41051  0.00184  0.98506  1.0000
  H   H278      1.0  0.17597  0.11811  0.81217  1.0000
  H   H279      1.0  0.44511  0.34393  0.70685  1.0000
  H   H280      1.0  0.44516  0.03304  0.94540  1.0000
  C   C142      1.0  0.37173  0.09995  0.73342  1.0000
  H   H281      1.0  0.34517  0.21753  0.83947  1.0000
  N   N8        1.0  0.22678  0.21400  0.79363  1.0000
  C   C143      1.0  0.18496  0.24524  0.79855  1.0000
  C   C144      1.0  0.20734  0.18322  0.80698  1.0000
  C   C145      1.0  0.26875  0.22249  0.80798  1.0000
  C   C146      1.0  0.24775  0.20500  0.76363  1.0000
  C   C147      1.0  0.46967  0.33256  0.68760  1.0000
  C   C148      1.0  0.20075  0.28107  0.79135  1.0000
  C   C149      1.0  0.31385  0.19242  0.80759  1.0000
  C   C150      1.0  0.16389  0.16964  0.79551  1.0000
  C   C151      1.0  0.14512  0.14061  0.81241  1.0000
  H   H282      1.0  0.43886  0.36228  0.77612  1.0000
  H   H283      1.0  0.11427  0.13113  0.80366  1.0000
  C   C152      1.0  0.35753  0.20562  0.81828  1.0000
  H   H284      1.0  0.16723  0.24811  0.82051  1.0000
  H   H285      1.0  0.30256  0.17184  0.82110  1.0000
  H   H286      1.0  0.23763  0.16022  0.80502  1.0000
  H   H287      1.0  0.19518  0.18950  0.82940  1.0000
  H   H288      1.0  0.25384  0.23122  0.82978  1.0000
  H   H289      1.0  0.28498  0.24480  0.79866  1.0000
  H   H290      1.0  0.27970  0.21917  0.75680  1.0000
  H   H291      1.0  0.26463  0.17669  0.76037  1.0000
  C   C153      1.0  0.34897  0.10140  0.78316  1.0000
  H   H292      1.0  0.40051  0.06199  0.97011  1.0000
  H   H293      1.0  0.21926  0.29090  0.80783  1.0000
  C   C154      1.0  0.29924  0.01855  0.81370  1.0000
  C   C155      1.0  0.19717  0.34547  0.93496  1.0000
  H   H294      1.0  0.11568  0.38658  0.99082  1.0000
  C   C156      1.0  0.44229  0.98966  0.84390  1.0000
  H   H295      1.0  0.19596  0.20531  0.93665  1.0000
  C   C157      1.0  0.23413  0.19608  0.71455  1.0000
  H   H296      1.0  0.20251  0.24187  0.74092  1.0000
  C   C158      1.0  0.11932  0.31774  0.94901  1.0000
  C   C159      1.0  0.06559  0.42174  0.97080  1.0000
  S   S43       1.0  0.09909  0.46605  0.68161  1.0000
  H   H297      1.0  0.46251  0.03169  0.74333  1.0000
  C   C160      1.0  0.35286  0.13877  0.98015  1.0000
  H   H298      1.0  0.42357  0.02805  0.79107  1.0000
  H   H299      1.0  0.22364  0.00606  0.81487  1.0000
  H   H300      1.0  0.13962  0.02232  0.98649  1.0000
  H   H301      1.0  0.32441  0.01096  0.72790  1.0000
  S   S44       1.0  0.01719  0.38171  0.89939  1.0000
  H   H302      1.0  0.13129  0.46981  0.93363  1.0000
  H   H303      1.0  0.10042  0.34548  0.95345  1.0000
  H   H304      1.0  0.27079  0.20454  0.70714  1.0000
  C   C161      1.0  0.44715  0.22111  0.70125  1.0000
  Fe  Fe23      1.0  0.01996  0.43911  0.90424  1.0000
  H   H305      1.0  0.48737  0.01347  0.86928  1.0000
  H   H306      1.0  0.00195  0.43182  0.70613  1.0000
  C   C162      1.0  0.08226  0.47318  0.71771  1.0000
  C   C163      1.0  0.11116  0.25595  0.95857  1.0000
  H   H307      1.0  0.34635  0.22679  0.97329  1.0000
  H   H308      1.0  0.45369  0.31089  0.67887  1.0000
  H   H309      1.0  0.45022  0.22370  0.67884  1.0000
  H   H310      1.0  0.48961  0.38033  0.78753  1.0000
  C   C164      1.0  0.15513  0.30862  0.78905  1.0000
  C   C165      1.0  0.41809  0.00814  0.77573  1.0000
  C   C166      1.0  0.03651  0.30195  0.96326  1.0000
  C   C167      1.0  0.17809  0.20224  0.95799  1.0000
  H   H311      1.0  0.38316  0.01748  0.76753  1.0000
  H   H312      1.0  0.48096  0.33636  0.79535  1.0000
  C   C168      1.0  0.47842  0.35598  0.77962  1.0000
  H   H313      1.0  0.04105  0.26749  0.92622  1.0000
  C   C169      1.0  0.21874  0.00492  0.98761  1.0000
  C   C170      1.0  0.33046  0.01498  0.97996  1.0000
  C   C171      1.0  0.05433  0.48305  0.77538  1.0000
  S   S45       1.0  0.00357  0.46923  0.94577  1.0000
  C   C172      1.0  0.40482  0.03956  0.95484  1.0000
  C   C173      1.0  0.39311  0.14822  0.99138  1.0000
  C   C174      1.0  0.34854  0.99248  0.71161  1.0000
  H   H314      1.0  0.38252  0.04749  0.93857  1.0000
  H   H315      1.0  0.44272  0.04454  0.85566  1.0000
  C   C175      1.0  0.08461  0.40817  0.99369  1.0000
  C   C176      1.0  0.02602  0.29500  0.93387  1.0000
  H   H316      1.0  0.45241  0.25094  0.73764  1.0000
  H   H317      1.0  0.48399  0.38397  0.67483  1.0000
  H   H318      1.0  0.02038  0.32982  0.96999  1.0000
  C   C177      1.0  0.44866  0.01843  0.86437  1.0000
  H   H319      1.0  0.32127  0.04082  0.99176  1.0000
  H   H320      1.0  0.41084  0.44546  0.98496  1.0000
  C   C178      1.0  0.38876  0.99601  0.83621  1.0000
  H   H321      1.0  0.47345  0.19746  0.70497  1.0000
  H   H322      1.0  0.36128  0.99480  0.85510  1.0000
  H   H323      1.0  0.13980  0.48090  0.82403  1.0000
  H   H324      1.0  0.49008  0.39541  0.99531  1.0000
  C   C179      1.0  0.09299  0.30356  0.99659  1.0000
  Fe  Fe24      1.0  0.31001  0.75791  0.09491  1.0000
  S   S46       1.0  0.39035  0.76676  0.08990  1.0000
  S   S47       1.0  0.27388  0.73429  0.06212  1.0000
  Fe  Fe25      1.0  0.29297  0.77224  0.15753  1.0000
  S   S48       1.0  0.37217  0.78119  0.15684  1.0000
  S   S49       1.0  0.23480  0.77740  0.19633  1.0000
  Fe  Fe26      1.0  0.36010  0.81219  0.12054  1.0000
  S   S50       1.0  0.39006  0.86302  0.12010  1.0000
  Fe  Fe27      1.0  0.39458  0.73483  0.12663  1.0000
  C   C180      1.0  0.37514  0.69291  0.28073  1.0000
  S   S51       1.0  0.27893  0.80621  0.12288  1.0000
  S   S52       1.0  0.31607  0.72306  0.13006  1.0000
  C   C181      1.0  0.47818  0.71953  0.20571  1.0000
  H   H325      1.0  0.10562  0.88863  0.27476  1.0000
  C   C182      1.0  0.27460  0.96123  0.11761  1.0000
  C   C183      1.0  0.07617  0.62752  0.30247  1.0000
  S   S53       1.0  0.44475  0.53794  0.14817  1.0000
  H   H326      1.0  0.34309  0.69755  0.18424  1.0000
  C   C184      1.0  0.20795  0.93250  0.21083  1.0000
  H   H327      1.0  0.32052  0.64037  0.06907  1.0000
  C   C185      1.0  0.16285  0.87384  0.14156  1.0000
  N   N9        1.0  0.40506  0.68826  0.22744  1.0000
  H   H328      1.0  0.41270  0.65381  0.06454  1.0000
  C   C186      1.0  0.14124  0.87112  0.27644  1.0000
  C   C187      1.0  0.42570  0.51851  0.30315  1.0000
  H   H329      1.0  0.25388  0.86780  0.31195  1.0000
  H   H330      1.0  0.45690  0.55214  0.03271  1.0000
  H   H331      1.0  0.37688  0.96382  0.01238  1.0000
  H   H332      1.0  0.17695  0.70833  0.24850  1.0000
  H   H333      1.0  0.49477  0.58811  0.22169  1.0000
  H   H334      1.0  0.06076  0.57451  0.30670  1.0000
  H   H335      1.0  0.47937  0.74988  0.16942  1.0000
  H   H336      1.0  0.38387  0.53364  0.02260  1.0000
  H   H337      1.0  0.27969  0.89600  0.23059  1.0000
  H   H338      1.0  0.36885  0.66451  0.02196  1.0000
  C   C188      1.0  0.00210  0.71096  0.30763  1.0000
  C   C189      1.0  0.41164  0.64130  0.13737  1.0000
  C   C190      1.0  0.40771  0.60622  0.14197  1.0000
  C   C191      1.0  0.46046  0.53469  0.04989  1.0000
  C   C192      1.0  0.36307  0.58750  0.06164  1.0000
  H   H339      1.0  0.37819  0.66004  0.13693  1.0000
  H   H340      1.0  0.37108  0.59816  0.14510  1.0000
  C   C193      1.0  0.25350  0.78226  0.22850  1.0000
  C   C194      1.0  0.21774  0.78383  0.25238  1.0000
  C   C195      1.0  0.23187  0.78721  0.27827  1.0000
  C   C196      1.0  0.28209  0.78822  0.28043  1.0000
  C   C197      1.0  0.31763  0.78742  0.25654  1.0000
  C   C198      1.0  0.30323  0.78481  0.23069  1.0000
  H   H341      1.0  0.17898  0.78248  0.25093  1.0000
  H   H342      1.0  0.20409  0.78843  0.29656  1.0000
  H   H343      1.0  0.35639  0.78888  0.25807  1.0000
  H   H344      1.0  0.33057  0.78475  0.21247  1.0000
  C   C199      1.0  0.26472  0.74955  0.02980  1.0000
  C   C200      1.0  0.29562  0.77056  0.01490  1.0000
  H   H345      1.0  0.46759  0.66561  0.02430  1.0000
  H   H346      1.0  0.25648  0.70286  0.21096  1.0000
  C   C201      1.0  0.45096  0.58159  0.14245  1.0000
  H   H347      1.0  0.31388  0.91325  0.00819  1.0000
  H   H348      1.0  0.32509  0.77991  0.02389  1.0000
  H   H349      1.0  0.38190  0.61891  0.23452  1.0000
  H   H350      1.0  0.99846  0.52320  0.23898  1.0000
  C   C202      1.0  0.30063  0.89827  0.10900  1.0000
  C   C203      1.0  0.34562  0.90054  0.11853  1.0000
  C   C204      1.0  0.35517  0.93318  0.12746  1.0000
  H   H351      1.0  0.29350  0.87327  0.10156  1.0000
  H   H352      1.0  0.38993  0.93499  0.13491  1.0000
  H   H353      1.0  0.20286  0.72135  0.02918  1.0000
  H   H354      1.0  0.48833  0.51136  0.04080  1.0000
  H   H355      1.0  0.36590  0.70933  0.01705  1.0000
  C   C205      1.0  0.16429  0.89202  0.16922  1.0000
  C   C206      1.0  0.14133  0.70341  0.24212  1.0000
  H   H356      1.0  0.16515  0.84510  0.14331  1.0000
  C   C207      1.0  0.22017  0.70865  0.31351  1.0000
  H   H357      1.0  0.19456  0.87879  0.12596  1.0000
  H   H358      1.0  0.18207  0.85019  0.22236  1.0000
  H   H359      1.0  0.14679  0.87254  0.29812  1.0000
  C   C208      1.0  0.06705  0.59275  0.29017  1.0000
  C   C209      1.0  0.38678  0.96852  0.22255  1.0000
  H   H360      1.0  0.45182  0.68884  0.25908  1.0000
  C   C210      1.0  0.14717  0.68342  0.29908  1.0000
  C   C211      1.0  0.42175  0.62164  0.23452  1.0000
  C   C212      1.0  0.42237  0.71434  0.20758  1.0000
  H   H361      1.0  0.32812  0.71490  0.23415  1.0000
  H   H362      1.0  0.39808  0.74033  0.21276  1.0000
  H   H363      1.0  0.41838  0.70655  0.18638  1.0000
  C   C213      1.0  0.41335  0.70018  0.25564  1.0000
  H   H364      1.0  0.47651  0.65330  0.21931  1.0000
  H   H365      1.0  0.44771  0.58173  0.20095  1.0000
  H   H366      1.0  0.12701  0.88407  0.13449  1.0000
  C   C214      1.0  0.32541  0.96534  0.26643  1.0000
  C   C215      1.0  0.34967  0.68841  0.22721  1.0000
  H   H367      1.0  0.36804  0.84215  0.21168  1.0000
  C   C216      1.0  0.09656  0.71267  0.26619  1.0000
  C   C217      1.0  0.26517  0.92861  0.10852  1.0000
  H   H368      1.0  0.23047  0.92687  0.10100  1.0000
  H   H369      1.0  0.29465  0.96239  0.25461  1.0000
  H   H370      1.0  0.10021  0.58033  0.27504  1.0000
  S   S54       1.0  0.30217  0.78892  0.31245  1.0000
  H   H371      1.0  0.14632  0.67555  0.23467  1.0000
  C   C218      1.0  0.33489  0.67811  0.19950  1.0000
  H   H372      1.0  0.06431  0.73188  0.31951  1.0000
  N   N10       1.0  0.21947  0.89300  0.20733  1.0000
  H   H373      1.0  0.24625  0.69846  0.29437  1.0000
  C   C219      1.0  0.27118  0.87934  0.21375  1.0000
  H   H374      1.0  0.18703  0.90993  0.26479  1.0000
  H   H375      1.0  0.41042  0.98566  0.21083  1.0000
  H   H376      1.0  0.44282  0.68946  0.07350  1.0000
  C   C220      1.0  0.36654  0.86644  0.20037  1.0000
  H   H377      1.0  0.39800  0.59721  0.05299  1.0000
  H   H378      1.0  0.31425  0.85254  0.17557  1.0000
  H   H379      1.0  0.31764  0.89823  0.17796  1.0000
  H   H380      1.0  0.43156  0.50420  0.09832  1.0000
  C   C221      1.0  0.37458  0.55371  0.07703  1.0000
  C   C222      1.0  0.43619  0.65287  0.21816  1.0000
  H   H381      1.0  0.41194  0.72917  0.25732  1.0000
  H   H382      1.0  0.31915  0.90524  0.30118  1.0000
  H   H383      1.0  0.33784  0.70930  0.28068  1.0000
  H   H384      1.0  0.13783  0.84371  0.27073  1.0000
  C   C223      1.0  0.27850  0.67704  0.20266  1.0000
  H   H385      1.0  0.33421  0.67058  0.24210  1.0000
  H   H386      1.0  0.26852  0.67103  0.18235  1.0000
  H   H387      1.0  0.21107  0.94169  0.23183  1.0000
  C   C224      1.0  0.31654  0.87475  0.18988  1.0000
  H   H388      1.0  0.39803  0.86233  0.18273  1.0000
  C   C225      1.0  0.31954  0.96342  0.12722  1.0000
  H   H389      1.0  0.35880  0.96201  0.21003  1.0000
  H   H390      1.0  0.35508  0.65178  0.19142  1.0000
  H   H391      1.0  0.20552  0.90606  0.31883  1.0000
  H   H392      1.0  0.22224  0.85036  0.17757  1.0000
  H   H393      1.0  0.24438  0.88717  0.16314  1.0000
  H   H394      1.0  0.15909  0.92071  0.16675  1.0000
  H   H395      1.0  0.37172  0.88851  0.21397  1.0000
  H   H396      1.0  0.44657  0.71192  0.02924  1.0000
  H   H397      1.0  0.34257  0.58255  0.04467  1.0000
  H   H398      1.0  0.35620  0.98021  0.07375  1.0000
  C   C226      1.0  0.32954  0.61682  0.08068  1.0000
  H   H399      1.0  0.46454  0.77607  0.20149  1.0000
  C   C227      1.0  0.45414  0.58714  0.22212  1.0000
  H   H400      1.0  0.27200  0.85267  0.22144  1.0000
  C   C228      1.0  0.34269  0.98360  0.31261  1.0000
  C   C229      1.0  0.45871  0.65201  0.13375  1.0000
  H   H401      1.0  0.44399  0.56518  0.23451  1.0000
  C   C230      1.0  0.39195  0.70246  0.30759  1.0000
  C   C231      1.0  0.21507  0.87960  0.17896  1.0000
  C   C232      1.0  0.38758  0.51236  0.03698  1.0000
  H   H402      1.0  0.26807  0.65650  0.21653  1.0000
  C   C233      1.0  0.39218  0.68397  0.01333  1.0000
  H   H403      1.0  0.34726  0.93861  0.26616  1.0000
  H   H404      1.0  0.12808  0.75403  0.22406  1.0000
  C   C234      1.0  0.27964  0.91643  0.30034  1.0000
  H   H405      1.0  0.04237  0.63804  0.31781  1.0000
  H   H406      1.0  0.34168  0.49387  0.09973  1.0000
  C   C235      1.0  0.43407  0.68597  0.03093  1.0000
  H   H407      1.0  0.16606  0.71932  0.20128  1.0000
  H   H408      1.0  0.44144  0.98101  0.32079  1.0000
  C   C236      1.0  0.26710  0.95635  0.30858  1.0000
  C   C237      1.0  0.24203  0.95256  0.19144  1.0000
  C   C238      1.0  0.48797  0.75208  0.19048  1.0000
  H   H409      1.0  0.42827  0.62504  0.25586  1.0000
  H   H410      1.0  0.38810  0.56069  0.09624  1.0000
  H   H411      1.0  0.40215  0.94027  0.29337  1.0000
  H   H412      1.0  0.16810  0.94199  0.20878  1.0000
  C   C239      1.0  0.18583  0.88249  0.25816  1.0000
  H   H413      1.0  0.22051  0.86576  0.26222  1.0000
  H   H414      1.0  0.37018  0.66507  0.28075  1.0000
  C   C240      1.0  0.05711  0.70549  0.31316  1.0000
  H   H415      1.0  0.13187  0.88597  0.18369  1.0000
  H   H416      1.0  0.14210  0.89163  0.22589  1.0000
  H   H417      1.0  0.29358  0.60846  0.08967  1.0000
  C   C241      1.0  0.18085  0.87869  0.22742  1.0000
  C   C242      1.0  0.41994  0.49429  0.07943  1.0000
  H   H418      1.0  0.16533  0.73656  0.29232  1.0000
  N   N11       1.0  0.41061  0.52378  0.06080  1.0000
  C   C243      1.0  0.16610  0.71712  0.30809  1.0000
  H   H419      1.0  0.03317  0.59681  0.28014  1.0000
  H   H420      1.0  0.24442  0.94333  0.16988  1.0000
  H   H421      1.0  0.42808  0.68579  0.30955  1.0000
  S   S55       1.0  0.46450  0.69607  0.12925  1.0000
  C   C244      1.0  0.33853  0.97872  0.02007  1.0000
  H   H422      1.0  0.48906  0.72264  0.22613  1.0000
  C   C245      1.0  0.41550  0.68157  0.06110  1.0000
  H   H423      1.0  0.14237  0.72963  0.32728  1.0000
  H   H424      1.0  0.41319  0.98673  0.05168  1.0000
  N   N12       1.0  0.30294  0.97948  0.29529  1.0000
  H   H425      1.0  0.34906  0.62431  0.09744  1.0000
  H   H426      1.0  0.33750  0.54566  0.08402  1.0000
  H   H427      1.0  0.06149  0.71278  0.25736  1.0000
  H   H428      1.0  0.27319  0.91164  0.27911  1.0000
  H   H429      1.0  0.09517  0.74043  0.27352  1.0000
  H   H430      1.0  0.17663  0.66827  0.28301  1.0000
  H   H431      1.0  0.09916  0.72025  0.20970  1.0000
  H   H432      1.0  0.22847  0.96460  0.30389  1.0000
  C   C246      1.0  0.22682  0.73758  0.01791  1.0000
  C   C247      1.0  0.24591  0.89600  0.31896  1.0000
  H   H433      1.0  0.31970  0.96086  0.03385  1.0000
  H   H434      1.0  0.37814  0.69795  0.06823  1.0000
  H   H435      1.0  0.46500  0.52085  0.30533  1.0000
  N   N13       1.0  0.09678  0.68886  0.28963  1.0000
  C   C248      1.0  0.08626  0.65366  0.28000  1.0000
  H   H436      1.0  0.28026  0.94921  0.19687  1.0000
  C   C249      1.0  0.01867  0.49778  0.24231  1.0000
  H   H437      1.0  0.34844  0.50767  0.04405  1.0000
  H   H438      1.0  0.14600  0.66702  0.31702  1.0000
  H   H439      1.0  0.43583  0.64660  0.19610  1.0000
  C   C250      1.0  0.02791  0.49010  0.26879  1.0000
  C   C251      1.0  0.13295  0.72567  0.21791  1.0000
  H   H440      1.0  0.05375  0.65688  0.26879  1.0000
  H   H441      1.0  0.41239  0.53864  0.28938  1.0000
  H   H442      1.0  0.25280  0.93087  0.00066  1.0000
  H   H443      1.0  0.11859  0.64001  0.26483  1.0000
  H   H444      1.0  0.23199  0.73282  0.32124  1.0000
  H   H445      1.0  0.10879  0.62156  0.31325  1.0000
  H   H446      1.0  0.46201  0.57836  0.07962  1.0000
  H   H447      1.0  0.36289  0.69844  0.32510  1.0000
  C   C252      1.0  0.48545  0.55310  0.07112  1.0000
  H   H448      1.0  0.35280  0.49967  0.27856  1.0000
  H   H449      1.0  0.41161  0.94409  0.22613  1.0000
  H   H450      1.0  0.39651  0.73051  0.30873  1.0000
  H   H451      1.0  0.01485  0.50964  0.28552  1.0000
  H   H452      1.0  0.49142  0.53622  0.08825  1.0000
  C   C253      1.0  0.38259  0.95086  0.31400  1.0000
  H   H453      1.0  0.39075  0.49106  0.23478  1.0000
  H   H454      1.0  0.40186  0.52352  0.32370  1.0000
  H   H455      1.0  0.36472  0.93036  0.32492  1.0000
  C   C254      1.0  0.36046  0.98771  0.24972  1.0000
  H   H456      1.0  0.24121  0.98301  0.02438  1.0000
  H   H457      1.0  0.99717  0.73052  0.29205  1.0000
  C   C255      1.0  0.42295  0.95959  0.33004  1.0000
  H   H458      1.0  0.45215  0.93606  0.32983  1.0000
  H   H459      1.0  0.22305  0.68905  0.32924  1.0000
  Fe  Fe28      1.0  0.23316  0.83148  0.60764  1.0000
  S   S56       1.0  0.30151  0.79027  0.59585  1.0000
  S   S57       1.0  0.19377  0.85538  0.57377  1.0000
  Fe  Fe29      1.0  0.06343  0.52975  0.59535  1.0000
  Fe  Fe30      1.0  0.33404  0.82005  0.62659  1.0000
  S   S58       1.0  0.41169  0.83618  0.62030  1.0000
  Fe  Fe31      1.0  0.26531  0.76162  0.63037  1.0000
  S   S59       1.0  0.25849  0.70349  0.62714  1.0000
  S   S60       1.0  0.26728  0.86225  0.63728  1.0000
  S   S61       1.0  0.19606  0.80209  0.64148  1.0000
  Fe  Fe32      1.0  0.17582  0.86513  0.38280  1.0000
  S   S62       1.0  0.25666  0.84242  0.38227  1.0000
  Fe  Fe33      1.0  0.14298  0.79146  0.38345  1.0000
  S   S63       1.0  0.22234  0.76458  0.38249  1.0000
  Fe  Fe34      1.0  0.22607  0.80743  0.41386  1.0000
  S   S64       1.0  0.26253  0.79173  0.45057  1.0000
  Fe  Fe35      1.0  0.24398  0.80250  0.35108  1.0000
  C   C256      1.0  0.22381  0.96312  0.38632  1.0000
  S   S65       1.0  0.14544  0.83253  0.41656  1.0000
  S   S66       1.0  0.16438  0.82689  0.34985  1.0000
  H   H460      1.0  0.03081  0.84233  0.54299  1.0000
  Fe  Fe36      1.0  0.04468  0.58393  0.64327  1.0000
  S   S67       1.0  0.05418  0.64012  0.65401  1.0000
  H   H461      1.0  0.26266  0.95968  0.33126  1.0000
  S   S68       1.0  0.07732  0.50400  0.37462  1.0000
  H   H462      1.0  0.28721  0.97131  0.54008  1.0000
  C   C257      1.0  0.20022  0.95471  0.64583  1.0000
  C   C258      1.0  0.17334  0.96225  0.38371  1.0000
  H   H463      1.0  0.27804  0.93570  0.64649  1.0000
  H   H464      1.0  0.25981  0.98207  0.65273  1.0000
  H   H465      1.0  0.25317  0.89836  0.34029  1.0000
  H   H466      1.0  0.09842  0.55192  0.49514  1.0000
  H   H467      1.0  0.07047  0.52626  0.45472  1.0000
  C   C259      1.0  0.02901  0.66705  0.38577  1.0000
  C   C260      1.0  0.03044  0.70329  0.38913  1.0000
  H   H468      1.0  0.15443  0.63810  0.36723  1.0000
  H   H469      1.0  0.22782  0.57994  0.58645  1.0000
  C   C261      1.0  0.20088  0.68658  0.63315  1.0000
  C   C262      1.0  0.20196  0.65016  0.63018  1.0000
  C   C263      1.0  0.15736  0.63558  0.63589  1.0000
  C   C264      1.0  0.11109  0.65728  0.64502  1.0000
  C   C265      1.0  0.10997  0.69373  0.64772  1.0000
  C   C266      1.0  0.15443  0.70832  0.64150  1.0000
  H   H470      1.0  0.23762  0.63308  0.62368  1.0000
  H   H471      1.0  0.15896  0.60752  0.63378  1.0000
  C   C267      1.0  0.22708  0.54460  0.55119  1.0000
  H   H472      1.0  0.15274  0.73638  0.64350  1.0000
  C   C268      1.0  0.21437  0.83908  0.53911  1.0000
  C   C269      1.0  0.19090  0.85446  0.51817  1.0000
  C   C270      1.0  0.20505  0.84059  0.49077  1.0000
  C   C271      1.0  0.24366  0.81168  0.48407  1.0000
  C   C272      1.0  0.26794  0.79714  0.50483  1.0000
  C   C273      1.0  0.25299  0.81039  0.53209  1.0000
  H   H473      1.0  0.16122  0.87687  0.52320  1.0000
  H   H474      1.0  0.18618  0.85223  0.47490  1.0000
  H   H475      1.0  0.29814  0.77504  0.49981  1.0000
  H   H476      1.0  0.27148  0.79805  0.54755  1.0000
  C   C274      1.0  0.42839  0.87893  0.62188  1.0000
  S   S69       1.0  0.48640  0.98502  0.62459  1.0000
  S   S70       1.0  0.10997  0.54184  0.62720  1.0000
  C   C275      1.0  0.39389  0.91023  0.62279  1.0000
  H   H477      1.0  0.24319  0.51435  0.58555  1.0000
  Fe  Fe37      1.0  0.06777  0.50637  0.65385  1.0000
  H   H478      1.0  0.35489  0.90886  0.62225  1.0000
  C   C276      1.0  0.00749  0.61281  0.53491  1.0000
  H   H479      1.0  0.38386  0.96720  0.62388  1.0000
  H   H480      1.0  0.37361  0.85152  0.55281  1.0000
  H   H481      1.0  0.40777  0.90597  0.54039  1.0000
  H   H482      1.0  0.29212  0.91730  0.55784  1.0000
  C   C277      1.0  0.08051  0.52887  0.49711  1.0000
  C   C278      1.0  0.07635  0.71623  0.38432  1.0000
  H   H483      1.0  0.00800  0.64145  0.53524  1.0000
  C   C279      1.0  0.46464  0.95881  0.53101  1.0000
  C   C280      1.0  0.06470  0.51439  0.47416  1.0000
  H   H484      1.0  0.08756  0.83869  0.55778  1.0000
  C   C281      1.0  0.33766  0.86821  0.56236  1.0000
  H   H485      1.0  0.02511  0.60114  0.51418  1.0000
  S   S71       1.0  0.07453  0.59796  0.36955  1.0000
  H   H486      1.0  0.20513  0.54488  0.53422  1.0000
  C   C282      1.0  0.22299  0.51161  0.56793  1.0000
  C   C283      1.0  0.37252  0.92353  0.54994  1.0000
  C   C284      1.0  0.32916  0.90239  0.54806  1.0000
  N   N14       1.0  0.14425  0.73442  0.52778  1.0000
  C   C285      1.0  0.11485  0.71609  0.54962  1.0000
  C   C286      1.0  0.13271  0.77334  0.53508  1.0000
  C   C287      1.0  0.12947  0.72571  0.50057  1.0000
  C   C288      1.0  0.20022  0.72256  0.52574  1.0000
  C   C289      1.0  0.22151  0.72436  0.55292  1.0000
  C   C290      1.0  0.12594  0.67541  0.54689  1.0000
  C   C291      1.0  0.14905  0.74712  0.47640  1.0000
  C   C292      1.0  0.07706  0.79076  0.53627  1.0000
  C   C293      1.0  0.07132  0.83065  0.53982  1.0000
  C   C294      1.0  0.27827  0.71137  0.54805  1.0000
  C   C295      1.0  0.09549  0.65994  0.57069  1.0000
  C   C296      1.0  0.13240  0.73551  0.44998  1.0000
  H   H487      1.0  0.07376  0.72351  0.54964  1.0000
  H   H488      1.0  0.12044  0.72507  0.57034  1.0000
  H   H489      1.0  0.14220  0.77939  0.55553  1.0000
  H   H490      1.0  0.15717  0.78735  0.52074  1.0000
  H   H491      1.0  0.08781  0.72851  0.50236  1.0000
  H   H492      1.0  0.14364  0.69765  0.49396  1.0000
  H   H493      1.0  0.21149  0.69530  0.51643  1.0000
  H   H494      1.0  0.22124  0.73867  0.51141  1.0000
  H   H495      1.0  0.20406  0.70781  0.56825  1.0000
  H   H496      1.0  0.21505  0.75161  0.56201  1.0000
  H   H497      1.0  0.11556  0.66535  0.52772  1.0000
  H   H498      1.0  0.16627  0.66530  0.54692  1.0000
  H   H499      1.0  0.19077  0.74343  0.47264  1.0000
  H   H500      1.0  0.13439  0.77555  0.48040  1.0000
  H   H501      1.0  0.06252  0.78448  0.51739  1.0000
  H   H502      1.0  0.05284  0.78191  0.55398  1.0000
  C   C297      1.0  0.31881  0.98140  0.54779  1.0000
  H   H503      1.0  0.09050  0.84112  0.52117  1.0000
  H   H504      1.0  0.18685  0.92939  0.64984  1.0000
  H   H505      1.0  0.28684  0.68351  0.54014  1.0000
  H   H506      1.0  0.29814  0.72754  0.53329  1.0000
  H   H507      1.0  0.29279  0.71343  0.56762  1.0000
  H   H508      1.0  0.10619  0.66811  0.59029  1.0000
  H   H509      1.0  0.05447  0.66875  0.57156  1.0000
  H   H510      1.0  0.10322  0.63086  0.56818  1.0000
  H   H511      1.0  0.14767  0.70745  0.44412  1.0000
  H   H512      1.0  0.09066  0.73963  0.45227  1.0000
  H   H513      1.0  0.14674  0.75132  0.43313  1.0000
  H   H514      1.0  0.33817  0.94061  0.50206  1.0000
  C   C298      1.0  0.07364  0.64334  0.37742  1.0000
  C   C299      1.0  0.47912  0.88116  0.62184  1.0000
  H   H515      1.0  0.18250  0.51374  0.57684  1.0000
  S   S72       1.0  0.09544  0.53227  0.55040  1.0000
  H   H516      1.0  0.40610  0.96759  0.35168  1.0000
  H   H517      1.0  0.15669  0.70182  0.37366  1.0000
  C   C300      1.0  0.37185  0.95129  0.50646  1.0000
  C   C301      1.0  0.24843  0.95637  0.65753  1.0000
  C   C302      1.0  0.12108  0.69235  0.37709  1.0000
  H   H518      1.0  0.37608  0.92716  0.57180  1.0000
  H   H519      1.0  0.32708  0.89528  0.52647  1.0000
  C   C303      1.0  0.11964  0.65621  0.37348  1.0000
  H   H520      1.0  0.24946  0.93878  0.38627  1.0000
  C   C304      1.0  0.07336  0.51374  0.52247  1.0000
  H   H521      1.0  0.34414  0.96191  0.45532  1.0000
  C   C305      1.0  0.41034  0.97666  0.54340  1.0000
  H   H522      1.0  0.16599  0.57890  0.57786  1.0000
  H   H523      1.0  0.30648  0.85350  0.56065  1.0000
  H   H524      1.0  0.40449  0.93054  0.49824  1.0000
  S   S73       1.0  0.14795  0.92317  0.37897  1.0000
  Fe  Fe38      1.0  0.02453  0.55520  0.37441  1.0000
  N   N15       1.0  0.36839  0.95821  0.53688  1.0000
  C   C306      1.0  0.46155  0.94509  0.62359  1.0000
  H   H525      1.0  0.07444  0.71080  0.65462  1.0000
  S   S74       1.0  0.07550  0.76235  0.38533  1.0000
  C   C307      1.0  0.41040  0.94328  0.62355  1.0000
  H   H526      1.0  0.41238  0.95398  0.45094  1.0000
  H   H527      1.0  0.33838  0.87357  0.58437  1.0000
  H   H528      1.0  0.20765  0.95685  0.62333  1.0000
  S   S75       1.0  0.99950  0.57322  0.61070  1.0000
  C   C308      1.0  0.37785  0.97324  0.45866  1.0000
  H   H529      1.0  0.26672  0.54598  0.54241  1.0000
  H   H530      1.0  0.03003  0.60141  0.55016  1.0000
  C   C309      1.0  0.20641  0.57818  0.56934  1.0000
  S   S76       1.0  0.02916  0.48902  0.61984  1.0000
  H   H531      1.0  0.20974  0.60141  0.55709  1.0000
  S   S77       1.0  0.30855  0.78490  0.65943  1.0000
  H   H532      1.0  0.40949  0.97904  0.56589  1.0000
  H   H533      1.0  0.30090  0.96206  0.58910  1.0000
  H   H534      1.0  0.46992  0.95552  0.50840  1.0000
  Fe  Fe39      1.0  0.01867  0.49075  0.40808  1.0000
  H   H535      1.0  0.47360  0.93269  0.53921  1.0000
  C   C310      1.0  0.37519  0.98348  0.48897  1.0000
  H   H536      1.0  0.20366  0.49218  0.51889  1.0000
  H   H537      1.0  0.17011  0.97660  0.65498  1.0000
  H   H538      1.0  0.05918  0.69014  0.33154  1.0000
  C   C311      1.0  0.49542  0.91376  0.62278  1.0000
  H   H539      1.0  0.29233  0.48925  0.51736  1.0000
  H   H540      1.0  0.31456  0.49374  0.54890  1.0000
  C   C312      1.0  0.30507  0.98705  0.57940  1.0000
  Fe  Fe40      1.0  0.37114  0.83450  0.88766  1.0000
  S   S78       1.0  0.29543  0.82617  0.87860  1.0000
  S   S79       1.0  0.39611  0.88699  0.89264  1.0000
  Fe  Fe41      1.0  0.41002  0.75571  0.88723  1.0000
  S   S80       1.0  0.33760  0.74194  0.87788  1.0000
  H   H541      1.0  0.35617  0.94386  0.97083  1.0000
  Fe  Fe42      1.0  0.33950  0.78416  0.84774  1.0000
  S   S81       1.0  0.33768  0.77245  0.80260  1.0000
  Fe  Fe43      1.0  0.30187  0.78517  0.90972  1.0000
  S   S82       1.0  0.23952  0.77526  0.94276  1.0000
  S   S83       1.0  0.41509  0.79482  0.85510  1.0000
  S   S84       1.0  0.37422  0.79657  0.92070  1.0000
  H   H542      1.0  0.31021  0.68929  0.82746  1.0000
  S   S85       1.0  0.21501  0.84473  0.71477  1.0000
  H   H543      1.0  0.27980  0.66688  0.71279  1.0000
  H   H544      1.0  0.30657  0.65256  0.93491  1.0000
  C   C313      1.0  0.43082  0.65987  0.88314  1.0000
  C   C314      1.0  0.43074  0.62434  0.87656  1.0000
  S   S86       1.0  0.47421  0.55645  0.86297  1.0000
  C   C315      1.0  0.29718  0.89252  0.97068  1.0000
  C   C316      1.0  0.38727  0.93465  0.82376  1.0000
  H   H545      1.0  0.39630  0.67831  0.88526  1.0000
  H   H546      1.0  0.39614  0.61568  0.87337  1.0000
  H   H547      1.0  0.35205  0.65894  0.84329  1.0000
  C   C317      1.0  0.45991  0.67532  0.74422  1.0000
  C   C318      1.0  0.30522  0.79723  0.77962  1.0000
  C   C319      1.0  0.25849  0.81888  0.78775  1.0000
  C   C320      1.0  0.23125  0.83373  0.76782  1.0000
  C   C321      1.0  0.25079  0.82746  0.73973  1.0000
  C   C322      1.0  0.29839  0.80718  0.73200  1.0000
  C   C323      1.0  0.32504  0.79188  0.75168  1.0000
  H   H548      1.0  0.24253  0.82305  0.80925  1.0000
  H   H549      1.0  0.19454  0.84955  0.77417  1.0000
  H   H550      1.0  0.31514  0.80318  0.71083  1.0000
  H   H551      1.0  0.36125  0.77555  0.74514  1.0000
  H   H552      1.0  0.20192  0.49185  0.82207  1.0000
  C   C324      1.0  0.26089  0.95094  0.90317  1.0000
  C   C325      1.0  0.29792  0.92086  0.89971  1.0000
  C   C326      1.0  0.34838  0.92383  0.89947  1.0000
  C   C327      1.0  0.36148  0.95698  0.90347  1.0000
  H   H553      1.0  0.19345  0.96218  0.77965  1.0000
  H   H554      1.0  0.22193  0.94846  0.90307  1.0000
  H   H555      1.0  0.28723  0.89549  0.89710  1.0000
  H   H556      1.0  0.40046  0.95937  0.90354  1.0000
  H   H557      1.0  0.36393  0.93400  0.84428  1.0000
  H   H558      1.0  0.18431  0.62211  0.71549  1.0000
  C   C328      1.0  0.11989  0.63419  0.92296  1.0000
  C   C329      1.0  0.36616  0.68250  0.96824  1.0000
  H   H559      1.0  0.33826  0.64749  0.80987  1.0000
  H   H560      1.0  0.41275  0.74681  0.99639  1.0000
  H   H561      1.0  0.08217  0.55218  0.84701  1.0000
  H   H562      1.0  0.06684  0.52940  0.71783  1.0000
  N   N16       1.0  0.20295  0.72420  0.73715  1.0000
  C   C330      1.0  0.24668  0.72271  0.71397  1.0000
  C   C331      1.0  0.16299  0.75546  0.73517  1.0000
  C   C332      1.0  0.22255  0.72916  0.76366  1.0000
  C   C333      1.0  0.18131  0.69055  0.73809  1.0000
  C   C334      1.0  0.29182  0.69290  0.71409  1.0000
  C   C335      1.0  0.18211  0.73971  0.78975  1.0000
  C   C336      1.0  0.15413  0.76540  0.70615  1.0000
  H   H563      1.0  0.33851  0.97010  0.67225  1.0000
  C   C337      1.0  0.20580  0.73756  0.81567  1.0000
  H   H564      1.0  0.26123  0.74807  0.71395  1.0000
  H   H565      1.0  0.12629  0.75199  0.74739  1.0000
  H   H566      1.0  0.17304  0.77967  0.74426  1.0000
  H   H567      1.0  0.24693  0.74978  0.76199  1.0000
  H   H568      1.0  0.24704  0.70485  0.76790  1.0000
  H   H569      1.0  0.20914  0.66871  0.74338  1.0000
  H   H570      1.0  0.14850  0.69268  0.75484  1.0000
  H   H571      1.0  0.30889  0.69533  0.73277  1.0000
  H   H572      1.0  0.15303  0.72253  0.79177  1.0000
  H   H573      1.0  0.16299  0.76716  0.78922  1.0000
  H   H574      1.0  0.15021  0.74267  0.69314  1.0000
  H   H575      1.0  0.45419  0.95977  0.79008  1.0000
  H   H576      1.0  0.21762  0.97960  0.97670  1.0000
  C   C338      1.0  0.44953  0.70029  0.72188  1.0000
  C   C339      1.0  0.09138  0.53459  0.86346  1.0000
  H   H577      1.0  0.23502  0.75465  0.81494  1.0000
  H   H578      1.0  0.17644  0.74650  0.83385  1.0000
  H   H579      1.0  0.22308  0.71017  0.81814  1.0000
  H   H580      1.0  0.39484  0.92181  0.69594  1.0000
  C   C340      1.0  0.07912  0.52932  0.91396  1.0000
  C   C341      1.0  0.47422  0.75788  0.96719  1.0000
  H   H581      1.0  0.29981  0.95534  0.74440  1.0000
  H   H582      1.0  0.23480  0.72002  0.69372  1.0000
  C   C342      1.0  0.27422  0.98417  0.90616  1.0000
  C   C343      1.0  0.43056  0.73785  0.97513  1.0000
  C   C344      1.0  0.32518  0.97972  0.80952  1.0000
  H   H583      1.0  0.19088  0.67784  0.69342  1.0000
  C   C345      1.0  0.21919  0.74656  0.99166  1.0000
  C   C346      1.0  0.16243  0.67832  0.71211  1.0000
  C   C347      1.0  0.39121  0.86765  0.70083  1.0000
  H   H584      1.0  0.34712  0.71019  0.97251  1.0000
  H   H585      1.0  0.44932  0.96440  0.85364  1.0000
  H   H586      1.0  0.17262  0.53811  0.85839  1.0000
  C   C348      1.0  0.26813  0.95495  0.73306  1.0000
  H   H587      1.0  0.07322  0.50275  0.90729  1.0000
  H   H588      1.0  0.40269  0.90134  0.78535  1.0000
  C   C349      1.0  0.34476  0.66918  0.82344  1.0000
  H   H589      1.0  0.44297  0.64706  0.82371  1.0000
  H   H590      1.0  0.37071  0.84974  0.80439  1.0000
  H   H591      1.0  0.24417  0.98124  0.73791  1.0000
  C   C350      1.0  0.43480  0.63729  0.97924  1.0000
  C   C351      1.0  0.23824  0.92705  0.74619  1.0000
  C   C352      1.0  0.38888  0.68594  0.80996  1.0000
  H   H592      1.0  0.30048  0.96575  0.82400  1.0000
  C   C353      1.0  0.25060  0.76652  0.97627  1.0000
  H   H593      1.0  0.10110  0.59947  0.87436  1.0000
  C   C354      1.0  0.43826  0.65895  0.80405  1.0000
  H   H594      1.0  0.12717  0.69567  0.70970  1.0000
  H   H595      1.0  0.35069  0.87271  0.83751  1.0000
  H   H596      1.0  0.29918  0.95993  0.95970  1.0000
  C   C355      1.0  0.28733  0.66398  0.95547  1.0000
  H   H597      1.0  0.33682  0.91153  0.79975  1.0000
  C   C356      1.0  0.33330  0.69405  0.68965  1.0000
  C   C357      1.0  0.37529  0.90534  0.80475  1.0000
  H   H598      1.0  0.18668  0.77671  0.69591  1.0000
  C   C358      1.0  0.28896  0.77867  0.98796  1.0000
  H   H599      1.0  0.15233  0.52284  0.81223  1.0000
  H   H600      1.0  0.46139  0.69122  0.94956  1.0000
  H   H601      1.0  0.39259  0.70794  0.82396  1.0000
  H   H602      1.0  0.27209  0.69201  0.95378  1.0000
  C   C359      1.0  0.36731  0.90617  0.70628  1.0000
  H   H603      1.0  0.41153  0.62063  0.99183  1.0000
  C   C360      1.0  0.08136  0.61091  0.91802  1.0000
  H   H604      1.0  0.16276  0.51981  0.90928  1.0000
  H   H605      1.0  0.04200  0.53815  0.76832  1.0000
  H   H606      1.0  0.10222  0.79996  0.68635  1.0000
  C   C361      1.0  0.16109  0.50264  0.82687  1.0000
  H   H607      1.0  0.46856  0.72011  0.81960  1.0000
  H   H608      1.0  0.30260  0.66911  0.99655  1.0000
  H   H609      1.0  0.32861  0.91002  0.67218  1.0000
  H   H610      1.0  0.41687  0.72107  0.72966  1.0000
  C   C362      1.0  0.31569  0.95411  0.97845  1.0000
  N   N17       1.0  0.37934  0.97137  0.81401  1.0000
  C   C363      1.0  0.31494  0.97846  0.69261  1.0000
  H   H611      1.0  0.19718  0.91618  0.78525  1.0000
  H   H612      1.0  0.47335  0.63477  0.93670  1.0000
  H   H613      1.0  0.29507  0.89279  0.70016  1.0000
  C   C364      1.0  0.44640  0.62101  0.94947  1.0000
  H   H614      1.0  0.47682  0.57116  0.92700  1.0000
  H   H615      1.0  0.22251  0.92783  0.69203  1.0000
  H   H616      1.0  0.44077  0.68555  0.70414  1.0000
  C   C365      1.0  0.10180  0.58434  0.89305  1.0000
  C   C366      1.0  0.29316  0.92311  0.99175  1.0000
  H   H617      1.0  0.41186  0.62237  0.94015  1.0000
  H   H618      1.0  0.42501  0.66448  0.75109  1.0000
  S   S87       1.0  0.00510  0.54927  0.67205  1.0000
  H   H619      1.0  0.43201  0.63709  0.79047  1.0000
  H   H620      1.0  0.04700  0.62836  0.91426  1.0000
  H   H621      1.0  0.36681  0.85075  0.71214  1.0000
  C   C367      1.0  0.01852  0.56881  0.89279  1.0000
  H   H622      1.0  0.13050  0.64861  0.90452  1.0000
  H   H623      1.0  0.12123  0.64003  0.73288  1.0000
  H   H624      1.0  0.37876  0.69670  0.79081  1.0000
  C   C368      1.0  0.05343  0.51187  0.75890  1.0000
  N   N18       1.0  0.28621  0.94963  0.70258  1.0000
  C   C369      1.0  0.37869  0.87047  0.81836  1.0000
  Fe  Fe44      1.0  0.24069  0.82667  0.66951  1.0000
  H   H625      1.0  0.15423  0.61819  0.92817  1.0000
  H   H626      1.0  0.13185  0.54928  0.93752  1.0000
  C   C370      1.0  0.44879  0.69761  0.97187  1.0000
  H   H627      1.0  0.40271  0.74550  0.96151  1.0000
  C   C371      1.0  0.10695  0.79291  0.70739  1.0000
  H   H628      1.0  0.34864  0.71894  0.69070  1.0000
  H   H629      1.0  0.32186  0.96994  0.78866  1.0000
  S   S88       1.0  0.47746  0.71612  0.89282  1.0000
  H   H630      1.0  0.10083  0.50008  0.96223  1.0000
  C   C372      1.0  0.31762  0.91392  0.69470  1.0000
  C   C373      1.0  0.46999  0.58235  0.94844  1.0000
  H   H631      1.0  0.47131  0.63356  0.98688  1.0000
  H   H632      1.0  0.39721  0.85987  0.67865  1.0000
  C   C374      1.0  0.41547  0.97192  0.78767  1.0000
  H   H633      1.0  0.07297  0.78252  0.71688  1.0000
  C   C375      1.0  0.12928  0.52507  0.92553  1.0000
  H   H634      1.0  0.37913  0.67999  0.94567  1.0000
  N   N19       1.0  0.48518  0.67315  0.79238  1.0000
  C   C376      1.0  0.47555  0.67134  0.88671  1.0000
  H   H635      1.0  0.27382  0.90028  0.95482  1.0000
  H   H636      1.0  0.10346  0.65366  0.94032  1.0000
  H   H637      1.0  0.36990  0.97171  0.72181  1.0000
  H   H638      1.0  0.36126  0.91203  0.72869  1.0000
  C   C377      1.0  0.14988  0.64126  0.71446  1.0000
  H   H639      1.0  0.14232  0.57510  0.89324  1.0000
  C   C378      1.0  0.14785  0.51839  0.85635  1.0000
  H   H640      1.0  0.26283  0.90110  0.74447  1.0000
  H   H641      1.0  0.42695  0.92632  0.82656  1.0000
  H   H642      1.0  0.40579  0.95517  0.77126  1.0000
  C   C379      1.0  0.13253  0.49505  0.94471  1.0000
  H   H643      1.0  0.45971  0.78648  0.96881  1.0000
  H   H644      1.0  0.36430  0.67175  0.68962  1.0000
  C   C380      1.0  0.32444  0.98710  0.90686  1.0000
  N   N20       1.0  0.07371  0.55392  0.89118  1.0000
  H   H645      1.0  0.42830  0.86328  0.70778  1.0000
  C   C381      1.0  0.06725  0.50698  0.73024  1.0000
  C   C382      1.0  0.24007  0.95185  0.68889  1.0000
  H   H646      1.0  0.44977  0.71906  0.77471  1.0000
  H   H647      1.0  0.31866  0.69175  0.67015  1.0000
  H   H648      1.0  0.20505  0.92464  0.73639  1.0000
  H   H649      1.0  0.04878  0.53753  0.93196  1.0000
  H   H650      1.0  0.31293  0.79464  0.97645  1.0000
  C   C383      1.0  0.47714  0.69448  0.76816  1.0000
  C   C384      1.0  0.47528  0.60000  0.87376  1.0000
  H   H651      1.0  0.28325  0.86999  0.98091  1.0000
  H   H652      1.0  0.07107  0.59742  0.93696  1.0000
  H   H653      1.0  0.25538  0.65004  0.96240  1.0000
  H   H654      1.0  0.07088  0.51228  0.86137  1.0000
  H   H655      1.0  0.44438  0.56717  0.96095  1.0000
  H   H656      1.0  0.01364  0.58919  0.87766  1.0000
  N   N21       1.0  0.41039  0.67538  0.98313  1.0000
  H   H657      1.0  0.33690  0.88384  0.96064  1.0000
  H   H658      1.0  0.13425  0.63358  0.69623  1.0000
  H   H659      1.0  0.25059  0.93724  0.78792  1.0000
  H   H660      1.0  0.11038  0.81705  0.71930  1.0000
  C   C385      1.0  0.21882  0.93644  0.77661  1.0000
  H   H661      1.0  0.21080  0.97426  0.69836  1.0000
  H   H662      1.0  0.15657  0.49665  0.86968  1.0000
  H   H663      1.0  0.48975  0.65348  0.73474  1.0000
  H   H664      1.0  0.41699  0.86243  0.82333  1.0000
  H   H665      1.0  0.33914  0.63190  0.97592  1.0000
  C   C386      1.0  0.32407  0.66016  0.97585  1.0000
  H   H666      1.0  0.18926  0.73733  0.98299  1.0000
  H   H667      1.0  0.48357  0.69152  0.98104  1.0000
  S   S89       1.0  0.03500  0.49066  0.81128  1.0000
  H   H668      1.0  0.48299  0.71268  0.71466  1.0000
  H   H669      1.0  0.00297  0.58224  0.91329  1.0000
  H   H670      1.0  0.39701  0.98532  0.95319  1.0000
  H   H671      1.0  0.49287  0.75035  0.94575  1.0000
  H   H672      1.0  0.16842  0.49265  0.95290  1.0000
  H   H673      1.0  0.45940  0.98617  0.73581  1.0000
  H   H674      1.0  0.38321  0.49046  0.98302  1.0000
  N   N22       1.0  0.31014  0.98698  0.99674  1.0000
  S   S90       1.0  0.89260  0.37626  0.13741  1.0000
  S   S91       1.0  0.62718  0.42259  0.13194  1.0000
  H   H675      1.0  0.71893  0.47512  0.27635  1.0000
  C   C387      1.0  0.88824  0.40174  0.99784  1.0000
  Fe  Fe45      1.0  0.55727  0.43045  0.16372  1.0000
  S   S92       1.0  0.54592  0.39139  0.19654  1.0000
  C   C388      1.0  0.55168  0.40241  0.23079  1.0000
  C   C389      1.0  0.56380  0.38391  0.27630  1.0000
  C   C390      1.0  0.55968  0.37575  0.24889  1.0000
  H   H676      1.0  0.56301  0.34864  0.24164  1.0000
  C   C391      1.0  0.56780  0.43187  0.03116  1.0000
  C   C392      1.0  0.58344  0.45561  0.01211  1.0000
  H   H677      1.0  0.83421  0.39844  0.30365  1.0000
  H   H678      1.0  0.96671  0.32006  0.06827  1.0000
  C   C393      1.0  0.87370  0.38917  0.05820  1.0000
  S   S93       1.0  0.98762  0.44247  0.11892  1.0000
  H   H679      1.0  0.93565  0.44974  0.26878  1.0000
  C   C394      1.0  0.84054  0.41026  0.14286  1.0000
  C   C395      1.0  0.79244  0.40149  0.14447  1.0000
  C   C396      1.0  0.75006  0.42777  0.14753  1.0000
  H   H680      1.0  0.78784  0.37422  0.14337  1.0000
  H   H681      1.0  0.71349  0.42041  0.14964  1.0000
  C   C397      1.0  0.55031  0.44550  0.26794  1.0000
  H   H682      1.0  0.62684  0.34446  0.03215  1.0000
  H   H683      1.0  0.67169  0.37548  0.18732  1.0000
  C   C398      1.0  0.90380  0.36443  0.30836  1.0000
  H   H684      1.0  0.93446  0.39145  0.25649  1.0000
  S   S94       1.0  0.55664  0.43111  0.32088  1.0000
  H   H685      1.0  0.56977  0.36320  0.29008  1.0000
  H   H686      1.0  0.88284  0.45265  0.14450  1.0000
  H   H687      1.0  0.53976  0.45816  0.22715  1.0000
  C   C399      1.0  0.92818  0.36999  0.05808  1.0000
  H   H688      1.0  0.93998  0.42153  0.02105  1.0000
  C   C400      1.0  0.97691  0.34005  0.25620  1.0000
  H   H689      1.0  0.80208  0.47073  0.25895  1.0000
  C   C401      1.0  0.84595  0.44559  0.14507  1.0000
  H   H690      1.0  0.49777  0.21259  0.31761  1.0000
  C   C402      1.0  0.55825  0.41893  0.28602  1.0000
  C   C403      1.0  0.77332  0.44542  0.22560  1.0000
  C   C404      1.0  0.71450  0.42469  0.31116  1.0000
  H   H691      1.0  0.75376  0.38904  0.19883  1.0000
  H   H692      1.0  0.65774  0.36044  0.22139  1.0000
  H   H693      1.0  0.72205  0.48446  0.06290  1.0000
  H   H694      1.0  0.73634  0.44452  0.31766  1.0000
  C   C405      1.0  0.90677  0.44717  0.28684  1.0000
  H   H695      1.0  0.56937  0.23545  0.29150  1.0000
  H   H696      1.0  0.71003  0.43992  0.05873  1.0000
  H   H697      1.0  0.77755  0.41944  0.08570  1.0000
  C   C406      1.0  0.62058  0.32856  0.01428  1.0000
  H   H698      1.0  0.66337  0.45809  0.27356  1.0000
  C   C407      1.0  0.72361  0.41901  0.27995  1.0000
  H   H699      1.0  0.85421  0.37252  0.04612  1.0000
  H   H700      1.0  0.85407  0.38937  0.07971  1.0000
  N   N23       1.0  0.94596  0.38428  0.29854  1.0000
  H   H701      1.0  0.78730  0.35145  0.29246  1.0000
  H   H702      1.0  0.89216  0.45374  0.01301  1.0000
  H   H703      1.0  0.72654  0.39977  0.32048  1.0000
  H   H704      1.0  0.96396  0.43476  0.31112  1.0000
  H   H705      1.0  0.52164  0.39196  0.03938  1.0000
  H   H706      1.0  0.94401  0.32629  0.26050  1.0000
  H   H707      1.0  0.89698  0.37397  0.00281  1.0000
  C   C408      1.0  0.85591  0.37257  0.29517  1.0000
  Fe  Fe46      1.0  0.62976  0.47889  0.14246  1.0000
  N   N24       1.0  0.71725  0.45277  0.23593  1.0000
  H   H708      1.0  0.54254  0.18612  0.26773  1.0000
  H   H709      1.0  0.56657  0.11504  0.28368  1.0000
  C   C409      1.0  0.88652  0.48399  0.30005  1.0000
  H   H710      1.0  0.71158  0.33852  0.19783  1.0000
  H   H711      1.0  0.53064  0.12341  0.19905  1.0000
  C   C410      1.0  0.89896  0.42691  0.02044  1.0000
  H   H712      1.0  0.54565  0.47264  0.27535  1.0000
  H   H713      1.0  0.67604  0.38131  0.99966  1.0000
  C   C411      1.0  0.68838  0.36444  0.20481  1.0000
  H   H714      1.0  0.86595  0.46208  0.20115  1.0000
  C   C412      1.0  0.72114  0.38877  0.21531  1.0000
  H   H715      1.0  0.91772  0.33568  0.30597  1.0000
  C   C413      1.0  0.92804  0.33227  0.06618  1.0000
  C   C414      1.0  0.54707  0.43732  0.24051  1.0000
  H   H716      1.0  0.96169  0.35071  0.21524  1.0000
  C   C415      1.0  0.53298  0.41099  0.02520  1.0000
  H   H717      1.0  0.94618  0.38336  0.07310  1.0000
  C   C416      1.0  0.77820  0.44451  0.07560  1.0000
  C   C417      1.0  0.51569  0.41260  0.00003  1.0000
  H   H718      1.0  0.70226  0.39815  0.27491  1.0000
  H   H719      1.0  0.67381  0.43352  0.31916  1.0000
  H   H720      1.0  0.90425  0.42681  0.32687  1.0000
  C   C418      1.0  0.50127  0.19444  0.27437  1.0000
  Fe  Fe47      1.0  0.57914  0.44325  0.10143  1.0000
  H   H721      1.0  0.90332  0.33160  0.08620  1.0000
  H   H722      1.0  0.87572  0.43359  0.22852  1.0000
  C   C419      1.0  0.81416  0.43908  0.04765  1.0000
  H   H723      1.0  0.73571  0.37712  0.23307  1.0000
  H   H724      1.0  0.86467  0.37287  0.27262  1.0000
  C   C420      1.0  0.88901  0.44858  0.06826  1.0000
  H   H725      1.0  0.78031  0.44533  0.20283  1.0000
  H   H726      1.0  0.79021  0.41886  0.23036  1.0000
  H   H727      1.0  0.91478  0.31665  0.05041  1.0000
  H   H728      1.0  0.81060  0.34417  0.32408  1.0000
  C   C421      1.0  0.75528  0.46310  0.14811  1.0000
  N   N25       1.0  0.86891  0.42593  0.04863  1.0000
  C   C422      1.0  0.70487  0.45303  0.26670  1.0000
  H   H729      1.0  0.65461  0.42450  0.23516  1.0000
  H   H730      1.0  0.79891  0.42036  0.03500  1.0000
  C   C423      1.0  0.82189  0.34502  0.30163  1.0000
  H   H731      1.0  0.78952  0.46358  0.08961  1.0000
  Fe  Fe48      1.0  0.96960  0.39122  0.13376  1.0000
  H   H732      1.0  0.61091  0.47151  0.01636  1.0000
  H   H733      1.0  0.68238  0.43571  0.20244  1.0000
  S   S95       1.0  0.60252  0.42044  0.05758  1.0000
  H   H734      1.0  0.87283  0.44469  0.08974  1.0000
  H   H735      1.0  0.80984  0.46413  0.03723  1.0000
  C   C424      1.0  0.93077  0.42302  0.30711  1.0000
  H   H736      1.0  0.58274  0.33846  0.00939  1.0000
  H   H737      1.0  0.62130  0.48121  0.22164  1.0000
  H   H738      1.0  0.76441  0.41001  0.27315  1.0000
  H   H739      1.0  0.95198  0.36892  0.03766  1.0000
  C   C425      1.0  0.69145  0.42653  0.22242  1.0000
  C   C426      1.0  0.55056  0.13249  0.30222  1.0000
  H   H740      1.0  0.62145  0.30099  0.01994  1.0000
  H   H741      1.0  0.53263  0.13300  0.24864  1.0000
  H   H742      1.0  0.84154  0.31866  0.29305  1.0000
  H   H743      1.0  0.93034  0.44032  0.06693  1.0000
  H   H744      1.0  0.60412  0.10409  0.32483  1.0000
  C   C427      1.0  0.80337  0.47199  0.14746  1.0000
  H   H745      1.0  0.69938  0.46189  0.09222  1.0000
  H   H746      1.0  0.52202  0.27013  0.30880  1.0000
  H   H747      1.0  0.87522  0.43677  0.27973  1.0000
  H   H748      1.0  0.57004  0.15566  0.30184  1.0000
  S   S96       1.0  0.50820  0.44408  0.13183  1.0000
  C   C428      1.0  0.53016  0.24909  0.29208  1.0000
  C   C429      1.0  0.80523  0.47101  0.23639  1.0000
  H   H749      1.0  0.52699  0.26137  0.27241  1.0000
  C   C430      1.0  0.96330  0.37875  0.26797  1.0000
  H   H750      1.0  0.88333  0.47896  0.23186  1.0000
  C   C431      1.0  0.86086  0.46064  0.22373  1.0000
  C   C432      1.0  0.72424  0.45854  0.07195  1.0000
  C   C433      1.0  0.99303  0.33808  0.22519  1.0000
  C   C434      1.0  0.99039  0.37045  0.31204  1.0000
  H   H751      1.0  0.85549  0.48324  0.31740  1.0000
  H   H752      1.0  0.54500  0.08809  0.32780  1.0000
  C   C435      1.0  0.56273  0.11211  0.32679  1.0000
  S   S97       1.0  0.56189  0.48601  0.17562  1.0000
  C   C436      1.0  0.59937  0.21120  0.54492  1.0000
  H   H753      1.0  0.96230  0.40113  0.35157  1.0000
  H   H754      1.0  0.67158  0.28846  0.55912  1.0000
  C   C437      1.0  0.55396  0.32548  0.55622  1.0000
  C   C438      1.0  0.75524  0.29993  0.52668  1.0000
  H   H755      1.0  0.58763  0.28070  0.57550  1.0000
  H   H756      1.0  0.54498  0.33336  0.53608  1.0000
  H   H757      1.0  0.81087  0.41657  0.57424  1.0000
  H   H758      1.0  0.87120  0.43293  0.43278  1.0000
  Fe  Fe49      1.0  0.66418  0.31446  0.62467  1.0000
  S   S98       1.0  0.59864  0.35602  0.62116  1.0000
  C   C439      1.0  0.85254  0.44109  0.37917  1.0000
  Fe  Fe50      1.0  0.73426  0.37002  0.63085  1.0000
  S   S99       1.0  0.67298  0.41442  0.62745  1.0000
  S   S100      1.0  0.81374  0.37843  0.63483  1.0000
  Fe  Fe51      1.0  0.65488  0.38111  0.59335  1.0000
  S   S101      1.0  0.65963  0.39903  0.55005  1.0000
  S   S102      1.0  0.71930  0.33809  0.59529  1.0000
  Fe  Fe52      1.0  0.59381  0.31835  0.37069  1.0000
  Fe  Fe53      1.0  0.67223  0.36741  0.37749  1.0000
  S   S103      1.0  0.75492  0.37173  0.37784  1.0000
  S   S104      1.0  0.63113  0.33301  0.40583  1.0000
  H   H759      1.0  0.59390  0.15666  0.55142  1.0000
  H   H760      1.0  0.91074  0.39810  0.63505  1.0000
  C   C440      1.0  0.62027  0.39217  0.52610  1.0000
  C   C441      1.0  0.64277  0.37831  0.49975  1.0000
  C   C442      1.0  0.61442  0.37826  0.47850  1.0000
  C   C443      1.0  0.56288  0.39154  0.48356  1.0000
  H   H761      1.0  0.82218  0.37236  0.50487  1.0000
  C   C444      1.0  0.56847  0.40461  0.53145  1.0000
  H   H762      1.0  0.68256  0.36821  0.49563  1.0000
  H   H763      1.0  0.63268  0.36863  0.45810  1.0000
  H   H764      1.0  0.55093  0.41598  0.55158  1.0000
  C   C445      1.0  0.83260  0.42024  0.63694  1.0000
  C   C446      1.0  0.88373  0.42207  0.63674  1.0000
  C   C447      1.0  0.90034  0.45466  0.63850  1.0000
  S   S105      1.0  0.66355  0.25564  0.61874  1.0000
  C   C448      1.0  0.83692  0.43828  0.47609  1.0000
  C   C449      1.0  0.79813  0.45149  0.63909  1.0000
  H   H765      1.0  0.65578  0.18238  0.61655  1.0000
  H   H766      1.0  0.93982  0.45551  0.63812  1.0000
  H   H767      1.0  0.52856  0.27687  0.51211  1.0000
  H   H768      1.0  0.75866  0.45056  0.63935  1.0000
  H   H769      1.0  0.85424  0.38523  0.38038  1.0000
  H   H770      1.0  0.56009  0.19172  0.36648  1.0000
  C   C450      1.0  0.52756  0.19698  0.62404  1.0000
  H   H771      1.0  0.94485  0.44452  0.57809  1.0000
  H   H772      1.0  0.70844  0.29229  0.49705  1.0000
  C   C451      1.0  0.61038  0.23380  0.62146  1.0000
  C   C452      1.0  0.56118  0.25221  0.62499  1.0000
  C   C453      1.0  0.52014  0.23390  0.62610  1.0000
  C   C454      1.0  0.74999  0.44439  0.37684  1.0000
  H   H773      1.0  0.56033  0.13366  0.43846  1.0000
  H   H774      1.0  0.55479  0.28052  0.62640  1.0000
  S   S106      1.0  0.58235  0.26160  0.36352  1.0000
  S   S107      1.0  0.52683  0.39334  0.45690  1.0000
  H   H775      1.0  0.56790  0.21414  0.53320  1.0000
  S   S108      1.0  0.52929  0.36307  0.37966  1.0000
  H   H776      1.0  0.71969  0.41410  0.47751  1.0000
  H   H777      1.0  0.77340  0.34577  0.47745  1.0000
  C   C455      1.0  0.83101  0.41028  0.37916  1.0000
  C   C456      1.0  0.79886  0.40152  0.55766  1.0000
  S   S109      1.0  0.61182  0.41439  0.38736  1.0000
  C   C457      1.0  0.77965  0.41165  0.37794  1.0000
  C   C458      1.0  0.57674  0.17856  0.62070  1.0000
  H   H778      1.0  0.81737  0.33334  0.41614  1.0000
  S   S110      1.0  0.64250  0.34730  0.34103  1.0000
  H   H779      1.0  0.65215  0.32126  0.53721  1.0000
  H   H780      1.0  0.71033  0.44599  0.37596  1.0000
  N   N26       1.0  0.62113  0.27330  0.53295  1.0000
  H   H781      1.0  0.65389  0.16823  0.55509  1.0000
  C   C459      1.0  0.63937  0.23445  0.53472  1.0000
  C   C460      1.0  0.66329  0.29255  0.53803  1.0000
  C   C461      1.0  0.60961  0.28109  0.50482  1.0000
  C   C462      1.0  0.56289  0.26791  0.49677  1.0000
  H   H782      1.0  0.74356  0.32882  0.52982  1.0000
  C   C463      1.0  0.71339  0.28280  0.51746  1.0000
  H   H783      1.0  0.52835  0.13843  0.40915  1.0000
  C   C464      1.0  0.61788  0.19691  0.61934  1.0000
  C   C465      1.0  0.55223  0.28154  0.46935  1.0000
  H   H784      1.0  0.54920  0.12858  0.34612  1.0000
  C   C466      1.0  0.92601  0.45815  0.56225  1.0000
  C   C467      1.0  0.52447  0.20936  0.37066  1.0000
  H   H785      1.0  0.58042  0.34188  0.56267  1.0000
  H   H786      1.0  0.66050  0.22261  0.51458  1.0000
  H   H787      1.0  0.66688  0.23037  0.54922  1.0000
  H   H788      1.0  0.54523  0.27139  0.55377  1.0000
  H   H789      1.0  0.54333  0.31067  0.47078  1.0000
  H   H790      1.0  0.60564  0.30979  0.50210  1.0000
  H   H791      1.0  0.64185  0.26925  0.48882  1.0000
  H   H792      1.0  0.63749  0.16307  0.52132  1.0000
  H   H793      1.0  0.58343  0.21838  0.56678  1.0000
  S   S111      1.0  0.98214  0.46380  0.37770  1.0000
  H   H794      1.0  0.53839  0.09667  0.42400  1.0000
  H   H795      1.0  0.94642  0.44726  0.54180  1.0000
  H   H796      1.0  0.72652  0.25408  0.51520  1.0000
  C   C468      1.0  0.57664  0.28605  0.55520  1.0000
  H   H797      1.0  0.58311  0.15020  0.61902  1.0000
  H   H798      1.0  0.78244  0.30506  0.43668  1.0000
  H   H799      1.0  0.74773  0.44079  0.45392  1.0000
  C   C469      1.0  0.52410  0.24576  0.37109  1.0000
  C   C470      1.0  0.53978  0.40399  0.51025  1.0000
  H   H800      1.0  0.76461  0.28921  0.54604  1.0000
  Fe  Fe54      1.0  0.62406  0.38466  0.65576  1.0000
  C   C471      1.0  0.87966  0.48299  0.44915  1.0000
  H   H801      1.0  0.51949  0.27107  0.46350  1.0000
  H   H802      1.0  0.75813  0.40071  0.56362  1.0000
  H   H803      1.0  0.81629  0.39549  0.43614  1.0000
  H   H804      1.0  0.82015  0.37438  0.55596  1.0000
  Fe  Fe55      1.0  0.57978  0.39294  0.35224  1.0000
  H   H805      1.0  0.74601  0.36604  0.45003  1.0000
  H   H806      1.0  0.78966  0.29430  0.51086  1.0000
  Fe  Fe56      1.0  0.56886  0.37914  0.41356  1.0000
  H   H807      1.0  0.85480  0.37229  0.45761  1.0000
  H   H808      1.0  0.58522  0.27305  0.45292  1.0000
  C   C472      1.0  0.80806  0.32466  0.43719  1.0000
  C   C473      1.0  0.81473  0.48411  0.64107  1.0000
  H   H809      1.0  0.84312  0.31193  0.44388  1.0000
  H   H810      1.0  0.89177  0.43940  0.38053  1.0000
  H   H811      1.0  0.75759  0.39072  0.51313  1.0000
  N   N27       1.0  0.79836  0.41398  0.47898  1.0000
  C   C474      1.0  0.80876  0.41922  0.53071  1.0000
  C   C475      1.0  0.79563  0.39767  0.50649  1.0000
  C   C476      1.0  0.81544  0.38489  0.45673  1.0000
  C   C477      1.0  0.74719  0.43247  0.47519  1.0000
  H   H812      1.0  0.95708  0.35558  0.35247  1.0000
  H   H813      1.0  0.56982  0.23890  0.49427  1.0000
  C   C478      1.0  0.78208  0.35577  0.45688  1.0000
  C   C479      1.0  0.62279  0.17245  0.54296  1.0000
  S   S112      1.0  0.68646  0.34151  0.66088  1.0000
  C   C480      1.0  0.82323  0.47387  0.37790  1.0000
  C   C481      1.0  0.52972  0.12550  0.42868  1.0000
  C   C482      1.0  0.98117  0.37447  0.34380  1.0000
  C   C483      1.0  0.77171  0.47527  0.37678  1.0000
  H   H814      1.0  0.88667  0.45293  0.56494  1.0000
  H   H815      1.0  0.87357  0.42415  0.48027  1.0000
  H   H816      1.0  0.84941  0.42136  0.52693  1.0000
  H   H817      1.0  0.91454  0.47378  0.45747  1.0000
  H   H818      1.0  0.64568  0.46089  0.49084  1.0000
  H   H819      1.0  0.51185  0.32610  0.59755  1.0000
  C   C484      1.0  0.50520  0.33390  0.57695  1.0000
  H   H820      1.0  0.50272  0.15986  0.55052  1.0000
  C   C485      1.0  0.84857  0.45363  0.44777  1.0000
  C   C486      1.0  0.72320  0.46420  0.49535  1.0000
  H   H821      1.0  0.81386  0.46457  0.43999  1.0000
  C   C487      1.0  0.67181  0.48040  0.48896  1.0000
  H   H822      1.0  0.71666  0.45572  0.51655  1.0000
  H   H823      1.0  0.78684  0.44607  0.53360  1.0000
  H   H824      1.0  0.50417  0.15816  0.50051  1.0000
  H   H825      1.0  0.82588  0.46071  0.49155  1.0000
  H   H826      1.0  0.74710  0.48496  0.49414  1.0000
  H   H827      1.0  0.49997  0.41440  0.51429  1.0000
  H   H828      1.0  0.49755  0.00675  0.52958  1.0000
  C   C488      1.0  0.86591  0.48588  0.64076  1.0000
  H   H829      1.0  0.89071  0.36991  0.33073  1.0000
  H   H830      1.0  0.49729  0.18516  0.46029  1.0000
  H   H831      1.0  0.86844  0.38448  0.72403  1.0000
  S   S113      1.0  0.89789  0.37549  0.86413  1.0000
  Fe  Fe57      1.0  0.55138  0.45642  0.91046  1.0000
  H   H832      1.0  0.67657  0.23942  0.71324  1.0000
  H   H833      1.0  0.66341  0.46986  0.76476  1.0000
  Fe  Fe58      1.0  0.59094  0.44161  0.84821  1.0000
  H   H834      1.0  0.69402  0.33404  0.82207  1.0000
  S   S114      1.0  0.61460  0.39834  0.81427  1.0000
  H   H835      1.0  0.74592  0.33907  0.83969  1.0000
  H   H836      1.0  0.88348  0.35160  0.76914  1.0000
  S   S115      1.0  0.51429  0.45995  0.87303  1.0000
  S   S116      1.0  0.62622  0.43261  0.88592  1.0000
  C   C489      1.0  0.51357  0.34224  0.75297  1.0000
  S   S117      1.0  0.57097  0.41317  0.69259  1.0000
  H   H837      1.0  0.87469  0.35530  0.67878  1.0000
  C   C490      1.0  0.60418  0.40439  0.78033  1.0000
  C   C491      1.0  0.56978  0.43238  0.77394  1.0000
  C   C492      1.0  0.56043  0.43509  0.74690  1.0000
  C   C493      1.0  0.58639  0.41046  0.72590  1.0000
  C   C494      1.0  0.62185  0.38309  0.73221  1.0000
  C   C495      1.0  0.63005  0.37975  0.75934  1.0000
  C   C496      1.0  0.70702  0.47277  0.96469  1.0000
  C   C497      1.0  0.67501  0.25859  0.69715  1.0000
  H   H838      1.0  0.64171  0.36379  0.71639  1.0000
  H   H839      1.0  0.65600  0.35762  0.76411  1.0000
  H   H840      1.0  0.74282  0.29721  0.82347  1.0000
  C   C498      1.0  0.51442  0.25876  0.70559  1.0000
  C   C499      1.0  0.84645  0.43670  0.89127  1.0000
  C   C500      1.0  0.84496  0.40838  0.87332  1.0000
  C   C501      1.0  0.80152  0.40695  0.86192  1.0000
  C   C502      1.0  0.76081  0.43481  0.86718  1.0000
  H   H841      1.0  0.90877  0.40811  0.80738  1.0000
  H   H842      1.0  0.87854  0.43707  0.90140  1.0000
  H   H843      1.0  0.79997  0.38469  0.84852  1.0000
  H   H844      1.0  0.72813  0.43420  0.85751  1.0000
  C   C503      1.0  0.58474  0.28586  0.71658  1.0000
  C   C504      1.0  0.83392  0.37618  0.71867  1.0000
  H   H845      1.0  0.95307  0.32893  0.94015  1.0000
  H   H846      1.0  0.59870  0.31063  0.72097  1.0000
  H   H847      1.0  0.96338  0.29700  0.91169  1.0000
  H   H848      1.0  0.51021  0.36312  0.73832  1.0000
  N   N28       1.0  0.69600  0.37332  0.95550  1.0000
  C   C505      1.0  0.74949  0.35741  0.95703  1.0000
  C   C506      1.0  0.96959  0.30144  0.93306  1.0000
  C   C507      1.0  0.67983  0.35517  0.93171  1.0000
  H   H849      1.0  0.85161  0.34877  0.95553  1.0000
  H   H850      1.0  0.75965  0.46362  0.79044  1.0000
  C   C508      1.0  0.79002  0.36454  0.93306  1.0000
  H   H851      1.0  0.53719  0.23631  0.71382  1.0000
  H   H852      1.0  0.62270  0.28522  0.67400  1.0000
  C   C509      1.0  0.86806  0.48542  0.82968  1.0000
  H   H853      1.0  0.92007  0.43857  0.73608  1.0000
  H   H854      1.0  0.70060  0.24672  0.67826  1.0000
  C   C510      1.0  0.61106  0.34400  0.90500  1.0000
  H   H855      1.0  0.57886  0.47512  0.97200  1.0000
  H   H856      1.0  0.69790  0.31817  0.99490  1.0000
  H   H857      1.0  0.68893  0.43437  0.99280  1.0000
  H   H858      1.0  0.62405  0.38266  0.98261  1.0000
  H   H859      1.0  0.69242  0.32631  0.93096  1.0000
  H   H860      1.0  0.69860  0.36361  0.91200  1.0000
  H   H861      1.0  0.65171  0.42359  0.95101  1.0000
  H   H862      1.0  0.95014  0.28326  0.94608  1.0000
  H   H863      1.0  0.70716  0.44100  0.79989  1.0000
  H   H864      1.0  0.68855  0.28259  0.70388  1.0000
  H   H865      1.0  0.78068  0.35702  0.91295  1.0000
  H   H866      1.0  0.79372  0.39269  0.93333  1.0000
  H   H867      1.0  0.60798  0.38980  0.93132  1.0000
  C   C511      1.0  0.80612  0.46464  0.89636  1.0000
  H   H868      1.0  0.52313  0.25371  0.68295  1.0000
  C   C512      1.0  0.92436  0.45734  0.71993  1.0000
  H   H869      1.0  0.54236  0.34207  0.69608  1.0000
  H   H870      1.0  0.87057  0.35112  0.91922  1.0000
  H   H871      1.0  0.85633  0.36138  0.80484  1.0000
  C   C513      1.0  0.53310  0.43501  0.98043  1.0000
  H   H872      1.0  0.80547  0.32625  0.79532  1.0000
  H   H873      1.0  0.61033  0.24285  0.68402  1.0000
  H   H874      1.0  0.57001  0.35020  0.90456  1.0000
  H   H875      1.0  0.75285  0.32841  0.95766  1.0000
  H   H876      1.0  0.95644  0.41616  0.68822  1.0000
  H   H877      1.0  0.62198  0.31509  0.90468  1.0000
  H   H878      1.0  0.88953  0.46157  0.71074  1.0000
  H   H879      1.0  0.63142  0.35381  0.88636  1.0000
  H   H880      1.0  0.58985  0.26945  0.73427  1.0000
  C   C514      1.0  0.84142  0.34354  0.93517  1.0000
  H   H881      1.0  0.50580  0.28774  0.75689  1.0000
  H   H882      1.0  0.85323  0.46072  0.82662  1.0000
  H   H883      1.0  0.75396  0.32097  0.77802  1.0000
  C   C515      1.0  0.66309  0.36872  0.98218  1.0000
  H   H884      1.0  0.81258  0.39811  0.70935  1.0000
  H   H885      1.0  0.54936  0.45140  0.78995  1.0000
  H   H886      1.0  0.87316  0.32346  0.70435  1.0000
  C   C516      1.0  0.85076  0.34627  0.69656  1.0000
  H   H887      1.0  0.94567  0.36585  0.79685  1.0000
  C   C517      1.0  0.62144  0.26757  0.69109  1.0000
  C   C518      1.0  0.73020  0.45140  0.78249  1.0000
  H   H888      1.0  0.88520  0.46552  0.77528  1.0000
  H   H889      1.0  0.75126  0.42505  0.97325  1.0000
  C   C519      1.0  0.92057  0.40596  0.97035  1.0000
  H   H890      1.0  0.55231  0.33799  0.75773  1.0000
  N   N29       1.0  0.78594  0.39042  0.76852  1.0000
  C   C520      1.0  0.80098  0.36431  0.74407  1.0000
  C   C521      1.0  0.75364  0.37560  0.79153  1.0000
  C   C522      1.0  0.75428  0.42232  0.75967  1.0000
  C   C523      1.0  0.83083  0.40195  0.77824  1.0000
  C   C524      1.0  0.87123  0.37270  0.78561  1.0000
  H   H891      1.0  0.84120  0.31502  0.93187  1.0000
  C   C525      1.0  0.76513  0.33562  0.79512  1.0000
  C   C526      1.0  0.73509  0.32601  0.82174  1.0000
  C   C527      1.0  0.91829  0.38719  0.79061  1.0000
  H   H892      1.0  0.60095  0.35068  0.94859  1.0000
  H   H893      1.0  0.76655  0.35714  0.73731  1.0000
  H   H894      1.0  0.82193  0.33931  0.74945  1.0000
  H   H895      1.0  0.75379  0.38978  0.81142  1.0000
  H   H896      1.0  0.71370  0.38027  0.78863  1.0000
  H   H897      1.0  0.72309  0.41425  0.75008  1.0000
  H   H898      1.0  0.53272  0.45625  0.74225  1.0000
  H   H899      1.0  0.84953  0.41778  0.76278  1.0000
  H   H900      1.0  0.81850  0.41982  0.79700  1.0000
  H   H901      1.0  0.76033  0.36625  0.97653  1.0000
  H   H902      1.0  0.91106  0.38921  0.95401  1.0000
  C   C528      1.0  0.69167  0.41197  0.95089  1.0000
  H   H903      1.0  0.71137  0.41627  0.93011  1.0000
  H   H904      1.0  0.96118  0.39826  0.97137  1.0000
  H   H905      1.0  0.77688  0.43539  0.74366  1.0000
  H   H906      1.0  0.81760  0.33796  0.68934  1.0000
  C   C529      1.0  0.76343  0.46397  0.88414  1.0000
  C   C530      1.0  0.71121  0.43458  0.97211  1.0000
  C   C531      1.0  0.69550  0.48042  0.77143  1.0000
  H   H907      1.0  0.54459  0.30734  0.67190  1.0000
  N   N30       1.0  0.52971  0.29316  0.71385  1.0000
  S   S118      1.0  0.96750  0.45403  0.87448  1.0000
  C   C532      1.0  0.66128  0.33024  0.98956  1.0000
  C   C533      1.0  0.52401  0.31908  0.69209  1.0000
  C   C534      1.0  0.62250  0.36148  0.93089  1.0000
  H   H908      1.0  0.93619  0.48487  0.78345  1.0000
  H   H909      1.0  0.49861  0.99820  0.75963  1.0000
  H   H910      1.0  0.93669  0.39768  0.77177  1.0000
  S   S119      1.0  0.51317  0.43362  0.94828  1.0000
  Fe  Fe59      1.0  0.96952  0.39646  0.86732  1.0000
  C   C535      1.0  0.56595  0.45731  0.98683  1.0000
  C   C536      1.0  0.50037  0.30762  0.74146  1.0000
  H   H911      1.0  0.97497  0.45805  0.68111  1.0000
  H   H912      1.0  0.84828  0.40748  0.99508  1.0000
  H   H913      1.0  0.73197  0.47490  0.94508  1.0000
  H   H914      1.0  0.91371  0.43356  0.96454  1.0000
  H   H915      1.0  0.66771  0.48377  0.96275  1.0000
  H   H916      1.0  0.80809  0.48692  0.90974  1.0000
  C   C537      1.0  0.96707  0.43988  0.69751  1.0000
  H   H917      1.0  0.90811  0.47920  0.83225  1.0000
  H   H918      1.0  0.65327  0.31397  0.97247  1.0000
  Fe  Fe60      1.0  0.63984  0.48780  0.88265  1.0000
  H   H919      1.0  0.97283  0.48710  0.73840  1.0000
  H   H920      1.0  0.88324  0.50417  0.10648  1.0000
  H   H921      1.0  0.56274  0.53643  0.05024  1.0000
  H   H922      1.0  0.58266  0.54313  0.22574  1.0000
  H   H923      1.0  0.71164  0.49138  0.20562  1.0000
  S   S120      1.0  0.58554  0.49944  0.11011  1.0000
  H   H924      1.0  0.89458  0.53705  0.08250  1.0000
  H   H925      1.0  0.92635  0.73119  0.32868  1.0000
  H   H926      1.0  0.84035  0.49948  0.06580  1.0000
  H   H927      1.0  0.94307  0.50005  0.08369  1.0000
  H   H928      1.0  0.64004  0.55621  0.23311  1.0000
  H   H929      1.0  0.55364  0.57427  0.07384  1.0000
  S   S121      1.0  0.70257  0.49632  0.14925  1.0000
  Fe  Fe61      1.0  0.51725  0.49951  0.14215  1.0000
  C   C538      1.0  0.63937  0.49985  0.23253  1.0000
  C   C539      1.0  0.53684  0.56107  0.05815  1.0000
  H   H930      1.0  0.90049  0.49395  0.04370  1.0000
  C   C540      1.0  0.90177  0.50853  0.08554  1.0000
  H   H931      1.0  0.53855  0.63556  0.13157  1.0000
  H   H932      1.0  0.91694  0.49555  0.30767  1.0000
  H   H933      1.0  0.87170  0.50121  0.28477  1.0000
  H   H934      1.0  0.53174  0.57324  0.13902  1.0000
  C   C541      1.0  0.62435  0.53607  0.22217  1.0000
  H   H935      1.0  0.80778  0.49930  0.14846  1.0000
  H   H936      1.0  0.63819  0.53608  0.19985  1.0000
  H   H937      1.0  0.52825  0.75479  0.18897  1.0000
  C   C542      1.0  0.50199  0.62736  0.13435  1.0000
  H   H938      1.0  0.99146  0.68622  0.30033  1.0000
  H   H939      1.0  0.53300  0.57875  0.04120  1.0000
  H   H940      1.0  0.50350  0.69657  0.19424  1.0000
  H   H941      1.0  0.71190  0.50944  0.23904  1.0000
  H   H942      1.0  0.79340  0.49819  0.23086  1.0000
  H   H943      1.0  0.62341  0.50117  0.25461  1.0000
  C   C543      1.0  0.49819  0.59212  0.13855  1.0000
  H   H944      1.0  0.97824  0.48862  0.00346  1.0000
  C   C544      1.0  0.69756  0.48892  0.22770  1.0000
  C   C545      1.0  0.88086  0.48850  0.06406  1.0000
  H   H945      1.0  0.97099  0.55615  0.55816  1.0000
  H   H946      1.0  0.53492  0.91464  0.62271  1.0000
  H   H947      1.0  0.86275  0.60081  0.57302  1.0000
  H   H948      1.0  0.88528  0.57544  0.45211  1.0000
  H   H949      1.0  0.50627  0.85739  0.62103  1.0000
  H   H950      1.0  0.99563  0.72153  0.39491  1.0000
  Fe  Fe62      1.0  0.93307  0.51543  0.37729  1.0000
  S   S122      1.0  0.98415  0.53442  0.34234  1.0000
  Fe  Fe63      1.0  0.96794  0.53334  0.63735  1.0000
  H   H951      1.0  0.92814  0.50656  0.52306  1.0000
  N   N31       1.0  0.89892  0.55673  0.54507  1.0000
  H   H952      1.0  0.85522  0.60981  0.47745  1.0000
  H   H953      1.0  0.85797  0.60044  0.52729  1.0000
  H   H954      1.0  0.91024  0.53676  0.48761  1.0000
  C   C546      1.0  0.89879  0.56519  0.49330  1.0000
  C   C547      1.0  0.86513  0.58092  0.47345  1.0000
  S   S123      1.0  0.88520  0.52748  0.64342  1.0000
  C   C548      1.0  0.81844  0.55977  0.58156  1.0000
  C   C549      1.0  0.87052  0.57166  0.52324  1.0000
  H   H955      1.0  0.83000  0.56938  0.47534  1.0000
  H   H956      1.0  0.54186  0.96707  0.52987  1.0000
  S   S124      1.0  0.96741  0.54225  0.40939  1.0000
  S   S125      1.0  0.84929  0.51344  0.37792  1.0000
  C   C550      1.0  0.78928  0.58063  0.60749  1.0000
  H   H957      1.0  0.65510  0.50304  0.50371  1.0000
  H   H958      1.0  0.93312  0.57760  0.49018  1.0000
  H   H959      1.0  0.83515  0.56059  0.52375  1.0000
  H   H960      1.0  0.77967  0.60877  0.60358  1.0000
  H   H961      1.0  0.81173  0.57830  0.62431  1.0000
  H   H962      1.0  0.93211  0.61937  0.52668  1.0000
  C   C551      1.0  0.50324  0.98070  0.53834  1.0000
  H   H963      1.0  0.89324  0.56566  0.58903  1.0000
  H   H964      1.0  0.96591  0.50127  0.56550  1.0000
  H   H965      1.0  0.96465  0.70446  0.34885  1.0000
  C   C552      1.0  0.87018  0.57167  0.57265  1.0000
  H   H966      1.0  0.75379  0.57034  0.61420  1.0000
  H   H967      1.0  0.97456  0.55320  0.52247  1.0000
  H   H968      1.0  0.79443  0.56369  0.56556  1.0000
  H   H969      1.0  0.82343  0.53161  0.58587  1.0000
  H   H970      1.0  0.90505  0.50664  0.58612  1.0000
  C   C553      1.0  0.90376  0.51730  0.54268  1.0000
  C   C554      1.0  0.96493  0.72474  0.33359  1.0000
  H   H971      1.0  0.97506  0.74881  0.34268  1.0000
  H   H972      1.0  0.74840  0.50041  0.37590  1.0000
  H   H973      1.0  0.93727  0.61899  0.56237  1.0000
  H   H974      1.0  0.86649  0.50935  0.54180  1.0000
  H   H975      1.0  0.78772  0.50806  0.64278  1.0000
  C   C555      1.0  0.92648  0.49749  0.56566  1.0000
  H   H976      1.0  0.85712  0.50568  0.46213  1.0000
  C   C556      1.0  0.95324  0.60620  0.54178  1.0000
  C   C557      1.0  0.95097  0.56634  0.54157  1.0000
  H   H977      1.0  0.50011  0.98440  0.56091  1.0000
  H   H978      1.0  0.89055  0.49173  0.42830  1.0000
  H   H979      1.0  0.99335  0.65762  0.38890  1.0000
  H   H980      1.0  0.67561  0.48977  0.46793  1.0000
  H   H981      1.0  0.93728  0.54463  0.77617  1.0000
  H   H982      1.0  0.97519  0.55388  0.73111  1.0000
  H   H983      1.0  0.94257  0.50834  0.71331  1.0000
  C   C558      1.0  0.91026  0.54761  0.76136  1.0000
  C   C559      1.0  0.54493  0.62048  0.80649  1.0000
  N   N32       1.0  0.89666  0.51237  0.75394  1.0000
  C   C560      1.0  0.54871  0.71069  0.80700  1.0000
  C   C561      1.0  0.93601  0.56744  0.73797  1.0000
  H   H984      1.0  0.68004  0.50147  0.78775  1.0000
  C   C562      1.0  0.58676  0.59006  0.79502  1.0000
  H   H985      1.0  0.56621  0.71303  0.84831  1.0000
  H   H986      1.0  0.57322  0.57225  0.78083  1.0000
  H   H987      1.0  0.55477  0.65560  0.88731  1.0000
  H   H988      1.0  0.87625  0.56556  0.77212  1.0000
  H   H989      1.0  0.87262  0.53409  0.81136  1.0000
  H   H990      1.0  0.56017  0.65131  0.77110  1.0000
  H   H991      1.0  0.55438  0.59244  0.87604  1.0000
  C   C563      1.0  0.52002  0.64686  0.88450  1.0000
  H   H992      1.0  0.90423  0.53838  0.89151  1.0000
  H   H993      1.0  0.91635  0.56876  0.72012  1.0000
  H   H994      1.0  0.59510  0.74219  0.82567  1.0000
  Fe  Fe64      1.0  0.53562  0.51376  0.87102  1.0000
  S   S126      1.0  0.56752  0.51137  0.91005  1.0000
  C   C564      1.0  0.92799  0.55809  0.89586  1.0000
  H   H995      1.0  0.55989  0.63655  0.82122  1.0000
  H   H996      1.0  0.83652  0.56329  0.72313  1.0000
  C   C565      1.0  0.52695  0.64253  0.78331  1.0000
  C   C566      1.0  0.78786  0.52944  0.71106  1.0000
  C   C567      1.0  0.86267  0.50841  0.80562  1.0000
  H   H997      1.0  0.95921  0.61783  0.73055  1.0000
  C   C568      1.0  0.93904  0.60488  0.74759  1.0000
  H   H998      1.0  0.90069  0.62030  0.75388  1.0000
  C   C569      1.0  0.56026  0.73085  0.83164  1.0000
  H   H999      1.0  0.91891  0.58118  0.88381  1.0000
  H   H1000     1.0  0.52888  0.75258  0.83947  1.0000
  H   H1001     1.0  0.62008  0.59999  0.78410  1.0000
  S   S127      1.0  0.60986  0.49570  0.84335  1.0000
  H   H1002     1.0  0.58091  0.68923  0.80050  1.0000
  H   H1003     1.0  0.82240  0.51241  0.80336  1.0000
  H   H1004     1.0  0.59835  0.57471  0.81212  1.0000
  H   H1005     1.0  0.96008  0.60480  0.76500  1.0000
  C   C570      1.0  0.51986  0.61115  0.87819  1.0000
  H   H1006     1.0  0.50231  0.75254  0.98107  1.0000
  C   C571      1.0  0.84448  0.51659  0.74668  1.0000
  H   H1007     1.0  0.78362  0.54334  0.69214  1.0000
  H   H1008     1.0  0.91871  0.56615  0.91805  1.0000
  H   H1009     1.0  0.81667  0.53254  0.76304  1.0000
  H   H1010     1.0  0.86797  0.52426  0.70272  1.0000
  C   C572      1.0  0.83752  0.53464  0.71989  1.0000
  H   H1011     1.0  0.75544  0.54022  0.72723  1.0000
  H   H1012     1.0  0.78754  0.50116  0.70643  1.0000
  H   H1013     1.0  0.54677  0.72901  0.79037  1.0000
  S   S128      1.0  0.71445  0.50007  0.89013  1.0000
  H   H1014     1.0  0.51269  0.70343  0.75918  1.0000
  H   H1015     1.0  0.50664  0.57941  0.95589  1.0000
  C   C573      1.0  0.98355  0.54193  0.88805  1.0000
  H   H1016     1.0  0.98976  0.53282  0.86611  1.0000
  H   H1017     1.0  0.49868  0.68307  0.83353  1.0000
  H   H1018     1.0  0.99055  0.51893  0.90040  1.0000
  H   H1019     1.0  0.51473  0.62387  0.76916  1.0000
  H   H1020     1.0  0.51355  0.60897  0.81777  1.0000
  H   H1021     1.0  0.84616  0.49957  0.84878  1.0000
  C   C574      1.0  0.93587  0.49255  0.73132  1.0000
  H   H1022     1.0  0.83174  0.49067  0.74573  1.0000
  C   C575      1.0  0.89702  0.49113  0.77894  1.0000
  H   H1023     1.0  0.71636  0.49200  0.75387  1.0000
  C   C576      1.0  0.49824  0.69660  0.81422  1.0000
  H   H1024     1.0  0.71869  0.48872  0.98086  1.0000
