data_image0
_chemical_formula_structural       H3SHFeSFeCHSCHCHC2HSHFeSFeSCH2CHSH4SFeSH4CH2SH3CH4C2HC2H3CSC2HCHNHC3SHC3HC2FeH2CH6CH6CH3SHCH5CHNCHCH4CH2CHC4H5C4SC2H2C2H2CHCNFeCH2CH2CHCH4CHC2HC2HCH5CH4FeC2H2SHSH3CFeHCH2CHCSH2CHFeHSFeH3S3CHSHFeSFeSCH4CHCH3SH3CH2FeH2C4FeH3NCHCHC4HCH2CH5CHCH5NCHCH4C2HCHFeH2C2HC3HCHCH2C2H7S2C2HSCHCH3SCHCSH6C3HFeCHCH4CH3CH3SH2CHNH4CSC3HCHCHFeS2FeS2FeSFeS3FeS2FeSFeS2C3HNCHCH2C6H7C3H4C3H2CHSHSCSHFeSFeSCSH5C3H4C2H3SH3FeNC8H12CH7CH5C3HSCNH3CH5CFeCH4C2SHC3SHCH2C2HC2H4CHCH3CHCHSCH3NC2H2CH3CH5CHC2H2CH4CH2C5H3CHCFeH2CHNCHC2H2CH2CHC2HCHCH4CH6CH8SH3C3H6NCH2CH4C4HCHCH5SC3H2CH3CH3CHCH2CH4CHCHC2H2C2HCHCH4CH6C2H2NCH5CH4CSCHCH2NH2CHS3FeSHFeS2FeS2FeHFeS3HCH2CH2C2H3CHCH7CHCH2CHC2H2C2HCH4C4H2C6H3FeS2FeSFeS2FeCS2CH2CHSCH2SCHCH3C6H2CH4CH4C2HCH2C2H2SH4C2H5CH2CSH5C2HC2H4CH2SH3SCHCFeHCHC2H2CH5NCH4CH6CH3CSH5C2SCH4CH5CHCNC6H16NC5HC3H11CH3C2H5CH2CHC3HC2HC2FeH2CSH4N2C2H2C4H2CH3CH5CFeCH5C2HCH4CH2NH4CH6C2H5CHC2H2CHC2HNH2C2H2C4H5CHC2H2CHNCH3C2H2CH2CHCSHFeS2FeSFeSCHFeSFeS2FeSFeS3CS2CS2FeSFeS2HC6H4C2HCHCHCH2C6H5C3H4C3H4C2H2FeC3HC2H7FeH3CNCHCHC2H3NCH3CHCHC2H4CH3NH3CH6C2H3CHCH2CH2CFeHC2HCHC2H2C2FeH6CH2C4SCNC12H35CH2S2H6CNHC2H3CH2CH2CHC3H2CHCH3CH3CH6CH8CHC5HCHCH5C3HNCH2C3HSFeH3C2H2CH7SH2CNHCHCSH5CHC2H12CH3C3H2CH2NS2FeSHFeS2FeS2FeSFeS3HSHCSHFeSFeCHCSHC2SC2H2C6H6CH4C4H3CH2C2HC4H3CHC2HCH2C6H3NC3HSHC2H2CH2FeH7CH3CHCHCH6CH3C5H3C3NH6CSHCHC2HCHCHCSC2HCH2SH3CH2FeC2HCH3C2H2C2H6NC6H2FeCH3CH11CHCH8FeHCHC2H3C2HCHCHCH3SH2CH6CH3NCH3C3HNCSH3C2H3CH5CSFeH2CH12CH7CH2C2SH7CHCHCHCH3SHCH2CHCHCH2CH4CH2SHFeSFeHCH7CSH2CHCH3CHCH7SCHSH4CHCHSCH2C4HCH5C3H3C2HS2CH3C3HC2HCHC2NFeHCH5CFeH2FeHCHSCFeHCFeH4CSHCH2SH2CH2CSCHC3H4SC5H2CH5CH2FeH5FeCH3C2HS3HSHC2FeH2CH6CHCH4CHSCH3C2H2CH2CHSHS2H10CSH6C3HC2FeH3NH3CSC4HCHCHCHCH3C5H4C3HFeH2C2H4CH4CHCH2CH3FeHFeH3NSH2CHC3H6CHSHCHCH2CHC2FeS2FeS2FeSFeS3FeS2FeSFeSHC2H3CHC2HC6H7C3H4C3H6SCSHFeSFeSH2C2H2C4H6SH2SH8C3HC2H4C2SH4CSCH2C2H6C2HCH2SC2H4NH4CH2CHC2HC4H2CHCH4CH2CHCH3FeCH2CHCHNC3H2C2HCH4CH5CH5C2H6SC2H4FeNCH2C3NC2HC8H15CH4C2HCH5CH3CHCH6CH2C2SCH2CH2CH10C4H11NC2H3CHCH2CFeH2CH2C2NHCH2C2H2CHCH4C2H2CHNCHC2H3S2FeSHFeS2FeS2FeCFeS3H2CHC2HC2H3CNH2SH3CS2H3CH2C3HCH6C3H4C6H3FeS2FeSFeS2H2SC2H5NHCSHNHCH2C6H3CH3SCH6C6HCHCH2CHCH3C3H2CH6CH3SC3H2CH5CHCHC2H3C3H4SCH3FeHCHCH2NC6HC2H7FeH3CHC2H2CSC3H3CHCHCHFeH2CH3CH3CH4CHNHCH2CH9CH4FeH4CH3CHCH2CH4SHC2H8C3SH6FeCH3C2H2CH2CH3CH2C2H2CH2CHCSCFeS2FeSFeSFeSFeSFeS2FeSFeS3HS2HC2HSFeSH2C6H4C2HFeH6C6H4CH3C2H6CHC2H2C2H2CH4SH3C2H2CHCH7C2H2NH3C2HCHNC7SHC3H2CH2CH6SHC2H14CH2CHCH2CH4CH2CHCH4NSCH2NC6HCH6CH4SC2HC2H4CHCH3NSC2H2CH4C2H3CH7CH3CH2CHCH2CHCH5CH4CH2C2HCH3CHCH3CH2CH5CH2CH2C2H2CH4CH3C2HS2FeSHFeS2FeS2FeSFeS3HSCHSHFeSH2FeHSNCHSC2H2C6H4SC3HFeH2CFeH5CHC3H2CH2SCHC3HCH2C6H3NC10HCH23NH4CH2CH11CH4CH4CHCHC3HC2NCH8CH2C2HCH2SH3SHCHCFeHCFeCH2CHCH4C2H2CH4CHCNH2C7HCH2CH2CHCH3NH3SH2CH5SHCH3CH3NCH8CH3NHCHFeHC3HCSH2CHCHCHC2H6CH3CHCH2NCHC3HC4H3C3H5C2HC2H2C2H2
_chemical_formula_sum              "H2048 S256 Fe128 C1152 N64"
_cell_length_a       50.3336
_cell_length_b       50.2304
_cell_length_c       44.5885
_cell_angle_alpha    84.5667
_cell_angle_beta     84.4324
_cell_angle_gamma    91.6945

_space_group_name_H-M_alt    "P 1"
_space_group_IT_number       1

loop_
  _space_group_symop_operation_xyz
  'x, y, z'

loop_
  _atom_site_type_symbol
  _atom_site_label
  _atom_site_symmetry_multiplicity
  _atom_site_fract_x
  _atom_site_fract_y
  _atom_site_fract_z
  _atom_site_occupancy
  H   H1        1.0  0.34643  0.00483  0.02177  1.0000
  H   H2        1.0  0.33940  0.25833  0.23998  1.0000
  H   H3        1.0  0.33402  0.22661  0.22542  1.0000
  S   S1        1.0  0.03287  0.06024  0.15875  1.0000
  H   H4        1.0  0.01122  0.27072  0.08300  1.0000
  Fe  Fe1       1.0  0.01874  0.02876  0.13057  1.0000
  S   S2        1.0  0.03218  0.02895  0.08068  1.0000
  Fe  Fe2       1.0  0.04179  0.02572  0.19172  1.0000
  C   C1        1.0  0.01314  0.15946  0.18093  1.0000
  H   H5        1.0  0.03563  0.30640  0.23378  1.0000
  S   S3        1.0  0.00130  0.02328  0.21778  1.0000
  C   C2        1.0  0.36225  0.02094  0.02018  1.0000
  H   H6        1.0  0.99552  0.07828  0.29426  1.0000
  C   C3        1.0  0.11007  0.01095  0.25889  1.0000
  H   H7        1.0  0.98295  0.99756  0.34392  1.0000
  C   C4        1.0  0.00365  0.13277  0.18055  1.0000
  C   C5        1.0  0.42515  0.30496  0.31685  1.0000
  H   H8        1.0  0.37850  0.19913  0.37623  1.0000
  S   S4        1.0  0.43073  0.23594  0.18477  1.0000
  H   H9        1.0  0.09707  0.05997  0.30607  1.0000
  Fe  Fe3       1.0  0.44674  0.26421  0.14437  1.0000
  S   S5        1.0  0.43325  0.26354  0.09746  1.0000
  Fe  Fe4       1.0  0.42964  0.27258  0.21059  1.0000
  S   S6        1.0  0.39453  0.28607  0.24034  1.0000
  C   C6        1.0  0.44538  0.19576  0.12309  1.0000
  H   H10       1.0  0.10849  0.09275  0.31420  1.0000
  H   H11       1.0  0.45504  0.15045  0.05459  1.0000
  C   C7        1.0  0.01684  0.02186  0.02473  1.0000
  H   H12       1.0  0.46972  0.14888  0.13227  1.0000
  S   S7        1.0  0.46136  0.07514  0.20100  1.0000
  H   H13       1.0  0.42687  0.20714  0.12600  1.0000
  H   H14       1.0  0.02882  0.11462  0.27619  1.0000
  H   H15       1.0  0.00395  0.01649  0.31376  1.0000
  H   H16       1.0  0.43155  0.12243  0.20712  1.0000
  S   S8        1.0  0.47004  0.01958  0.14739  1.0000
  Fe  Fe5       1.0  0.99043  0.99471  0.18471  1.0000
  S   S9        1.0  0.00852  0.27723  0.14641  1.0000
  H   H17       1.0  0.45362  0.08961  0.05016  1.0000
  H   H18       1.0  0.31294  0.23523  0.25786  1.0000
  H   H19       1.0  0.42263  0.15883  0.12665  1.0000
  H   H20       1.0  0.42840  0.06018  0.15526  1.0000
  C   C8        1.0  0.11356  0.00425  0.28949  1.0000
  H   H21       1.0  0.40221  0.30877  0.12277  1.0000
  H   H22       1.0  0.43845  0.28429  0.27818  1.0000
  S   S10       1.0  0.03174  0.99475  0.16121  1.0000
  H   H23       1.0  0.40315  0.24106  0.28403  1.0000
  H   H24       1.0  0.09232  0.19128  0.25009  1.0000
  H   H25       1.0  0.41429  0.04238  0.12701  1.0000
  C   C9        1.0  0.36012  0.20024  0.33296  1.0000
  H   H26       1.0  0.13343  0.00166  0.29638  1.0000
  H   H27       1.0  0.44507  0.17048  0.20710  1.0000
  H   H28       1.0  0.33895  0.16761  0.38506  1.0000
  H   H29       1.0  0.02167  0.12430  0.23899  1.0000
  C   C10       1.0  0.45218  0.27593  0.03762  1.0000
  C   C11       1.0  0.45764  0.27556  0.06793  1.0000
  H   H30       1.0  0.39997  0.20576  0.29158  1.0000
  C   C12       1.0  0.02478  0.26997  0.03574  1.0000
  C   C13       1.0  0.01982  0.08165  0.25069  1.0000
  H   H31       1.0  0.36561  0.26633  0.39912  1.0000
  H   H32       1.0  0.04504  0.26540  0.03997  1.0000
  H   H33       1.0  0.04910  0.00604  0.31943  1.0000
  C   C14       1.0  0.44917  0.03196  0.03899  1.0000
  S   S11       1.0  0.44101  0.30056  0.16900  1.0000
  C   C15       1.0  0.00857  0.02140  0.05573  1.0000
  C   C16       1.0  0.35314  0.22396  0.26714  1.0000
  H   H34       1.0  0.42932  0.02329  0.04579  1.0000
  C   C17       1.0  0.34634  0.25175  0.36155  1.0000
  H   H35       1.0  0.46836  0.04897  0.26600  1.0000
  N   N1        1.0  0.06246  0.11259  0.24212  1.0000
  H   H36       1.0  0.36076  0.03040  0.04178  1.0000
  C   C18       1.0  0.07071  0.14196  0.23923  1.0000
  C   C19       1.0  0.06660  0.10326  0.21079  1.0000
  C   C20       1.0  0.07950  0.09624  0.26254  1.0000
  S   S12       1.0  0.47138  0.26897  0.22382  1.0000
  H   H37       1.0  0.33118  0.25947  0.34686  1.0000
  C   C21       1.0  0.09530  0.10740  0.19439  1.0000
  C   C22       1.0  0.47175  0.10935  0.19861  1.0000
  C   C23       1.0  0.35027  0.27253  0.38382  1.0000
  H   H38       1.0  0.03017  0.29094  0.30288  1.0000
  C   C24       1.0  0.03299  0.10959  0.25259  1.0000
  C   C25       1.0  0.09769  0.09445  0.16462  1.0000
  Fe  Fe6       1.0  0.99927  0.31071  0.17536  1.0000
  H   H39       1.0  0.04262  0.01641  0.26481  1.0000
  H   H40       1.0  0.09243  0.14497  0.23201  1.0000
  C   C26       1.0  0.06597  0.15687  0.26802  1.0000
  H   H41       1.0  0.05294  0.11353  0.19575  1.0000
  H   H42       1.0  0.06146  0.08147  0.21159  1.0000
  H   H43       1.0  0.08189  0.07574  0.25514  1.0000
  H   H44       1.0  0.10018  0.10522  0.26039  1.0000
  H   H45       1.0  0.01629  0.07948  0.22684  1.0000
  H   H46       1.0  0.35418  0.14711  0.35728  1.0000
  C   C27       1.0  0.04247  0.29746  0.25528  1.0000
  H   H47       1.0  0.03277  0.06537  0.25827  1.0000
  H   H48       1.0  0.11022  0.09853  0.20875  1.0000
  H   H49       1.0  0.10048  0.12901  0.18849  1.0000
  H   H50       1.0  0.44777  0.19802  0.29727  1.0000
  H   H51       1.0  0.42145  0.21326  0.34256  1.0000
  H   H52       1.0  0.01614  0.11839  0.17017  1.0000
  C   C28       1.0  0.46006  0.15588  0.20304  1.0000
  H   H53       1.0  0.37310  0.22526  0.25398  1.0000
  H   H54       1.0  0.06398  0.11056  0.30630  1.0000
  H   H55       1.0  0.33830  0.23298  0.37489  1.0000
  S   S13       1.0  0.01031  0.21112  0.19702  1.0000
  H   H56       1.0  0.05743  0.19533  0.24449  1.0000
  C   C29       1.0  0.46409  0.15197  0.10866  1.0000
  H   H57       1.0  0.06245  0.30645  0.25757  1.0000
  H   H58       1.0  0.11817  0.09828  0.15303  1.0000
  H   H59       1.0  0.09392  0.07247  0.16885  1.0000
  H   H60       1.0  0.08321  0.10294  0.14936  1.0000
  H   H61       1.0  0.39928  0.07240  0.13861  1.0000
  C   C30       1.0  0.45247  0.12864  0.20311  1.0000
  H   H62       1.0  0.45344  0.19242  0.14542  1.0000
  N   N2        1.0  0.46122  0.12544  0.09554  1.0000
  C   C31       1.0  0.02226  0.30176  0.28295  1.0000
  H   H63       1.0  0.39389  0.17847  0.34874  1.0000
  C   C32       1.0  0.98297  0.01080  0.32251  1.0000
  H   H64       1.0  0.35658  0.29226  0.37140  1.0000
  H   H65       1.0  0.42432  0.11610  0.12419  1.0000
  H   H66       1.0  0.12730  0.01304  0.24221  1.0000
  H   H67       1.0  0.35870  0.25980  0.28956  1.0000
  C   C33       1.0  0.35822  0.16145  0.37396  1.0000
  H   H68       1.0  0.43269  0.26921  0.03239  1.0000
  H   H69       1.0  0.42652  0.13035  0.07057  1.0000
  C   C34       1.0  0.99283  0.07817  0.26985  1.0000
  H   H70       1.0  0.06854  0.19727  0.28144  1.0000
  C   C35       1.0  0.42305  0.29620  0.28812  1.0000
  C   C36       1.0  0.06946  0.09172  0.29675  1.0000
  C   C37       1.0  0.08453  0.01530  0.24981  1.0000
  C   C38       1.0  0.09075  0.07893  0.31503  1.0000
  H   H71       1.0  0.38106  0.26667  0.33152  1.0000
  H   H72       1.0  0.02661  0.25733  0.24986  1.0000
  H   H73       1.0  0.33876  0.20183  0.34157  1.0000
  H   H74       1.0  0.45289  0.10406  0.14013  1.0000
  H   H75       1.0  0.08253  0.07422  0.33905  1.0000
  C   C39       1.0  0.37470  0.18588  0.35848  1.0000
  C   C40       1.0  0.00564  0.27300  0.06017  1.0000
  C   C41       1.0  0.07147  0.18700  0.26044  1.0000
  C   C42       1.0  0.04601  0.26763  0.25235  1.0000
  S   S14       1.0  0.08162  0.02392  0.21108  1.0000
  C   C43       1.0  0.06598  0.00686  0.30238  1.0000
  C   C44       1.0  0.44925  0.21912  0.30268  1.0000
  H   H76       1.0  0.36943  0.15109  0.39161  1.0000
  H   H77       1.0  0.34686  0.20256  0.27227  1.0000
  C   C45       1.0  0.33362  0.23687  0.24644  1.0000
  C   C46       1.0  0.37305  0.24695  0.34275  1.0000
  H   H78       1.0  0.33241  0.23761  0.30689  1.0000
  H   H79       1.0  0.06020  0.15290  0.22112  1.0000
  C   C47       1.0  0.42377  0.22645  0.32114  1.0000
  H   H80       1.0  0.42484  0.08097  0.08906  1.0000
  C   C48       1.0  0.40019  0.30129  0.27340  1.0000
  N   N3        1.0  0.37177  0.22720  0.31934  1.0000
  Fe  Fe7       1.0  0.99146  0.05610  0.18280  1.0000
  C   C49       1.0  0.09154  0.00212  0.31135  1.0000
  H   H81       1.0  0.45473  0.06779  0.10379  1.0000
  H   H82       1.0  0.03329  0.16534  0.17145  1.0000
  C   C50       1.0  0.06237  0.01301  0.27158  1.0000
  H   H83       1.0  0.38733  0.24103  0.35937  1.0000
  H   H84       1.0  0.44219  0.29962  0.32889  1.0000
  C   C51       1.0  0.39918  0.22468  0.30276  1.0000
  H   H85       1.0  0.43127  0.17390  0.08859  1.0000
  C   C52       1.0  0.35347  0.23826  0.29658  1.0000
  H   H86       1.0  0.07983  0.14982  0.28469  1.0000
  H   H87       1.0  0.05982  0.26509  0.23191  1.0000
  H   H88       1.0  0.01323  0.09062  0.06253  1.0000
  H   H89       1.0  0.04512  0.15423  0.27858  1.0000
  C   C53       1.0  0.44870  0.13024  0.06603  1.0000
  H   H90       1.0  0.33117  0.27491  0.39784  1.0000
  C   C54       1.0  0.44372  0.10695  0.11841  1.0000
  C   C55       1.0  0.43650  0.07905  0.10893  1.0000
  H   H91       1.0  0.42688  0.24724  0.32699  1.0000
  C   C56       1.0  0.43893  0.16915  0.11090  1.0000
  C   C57       1.0  0.45574  0.11093  0.04134  1.0000
  H   H92       1.0  0.35981  0.18608  0.31529  1.0000
  C   C58       1.0  0.41854  0.06259  0.13403  1.0000
  H   H93       1.0  0.05454  0.25792  0.27249  1.0000
  H   H94       1.0  0.05156  0.07792  0.30037  1.0000
  H   H95       1.0  0.41712  0.10935  0.02319  1.0000
  H   H96       1.0  0.46398  0.01999  0.08194  1.0000
  H   H97       1.0  0.98293  0.05885  0.26636  1.0000
  C   C59       1.0  0.99664  0.17867  0.19324  1.0000
  H   H98       1.0  0.45281  0.23247  0.28124  1.0000
  H   H99       1.0  0.00319  0.29089  0.27987  1.0000
  H   H100      1.0  0.00524  0.29553  0.34418  1.0000
  H   H101      1.0  0.99050  0.07183  0.02233  1.0000
  Fe  Fe8       1.0  0.47370  0.23439  0.19467  1.0000
  C   C60       1.0  0.99107  0.09031  0.06356  1.0000
  C   C61       1.0  0.46876  0.03013  0.05950  1.0000
  H   H102      1.0  0.03763  0.02621  0.01665  1.0000
  H   H103      1.0  0.46020  0.20807  0.10706  1.0000
  S   S15       1.0  0.09657  0.99888  0.34997  1.0000
  H   H104      1.0  0.47682  0.11450  0.03176  1.0000
  S   S16       1.0  0.98339  0.28294  0.21603  1.0000
  H   H105      1.0  0.46665  0.22150  0.31586  1.0000
  H   H106      1.0  0.38219  0.01206  0.01712  1.0000
  H   H107      1.0  0.19279  0.98752  0.46139  1.0000
  C   C62       1.0  0.98168  0.01563  0.06601  1.0000
  Fe  Fe9       1.0  0.98847  0.24952  0.18541  1.0000
  H   H108      1.0  0.98313  0.07213  0.07818  1.0000
  C   C63       1.0  0.98202  0.08963  0.03186  1.0000
  H   H109      1.0  0.98353  0.10813  0.07419  1.0000
  H   H110      1.0  0.98047  0.30877  0.39071  1.0000
  C   C64       1.0  0.00743  0.16712  0.87332  1.0000
  H   H111      1.0  0.12289  0.29179  0.87401  1.0000
  C   C65       1.0  0.29987  0.00524  0.72473  1.0000
  S   S17       1.0  0.00249  0.01950  0.91769  1.0000
  H   H112      1.0  0.00556  0.07177  0.75843  1.0000
  H   H113      1.0  0.31308  0.02074  0.73250  1.0000
  C   C66       1.0  0.01549  0.14085  0.86982  1.0000
  H   H114      1.0  0.43638  0.30471  0.83370  1.0000
  Fe  Fe10      1.0  0.43686  0.05452  0.86809  1.0000
  H   H115      1.0  0.01205  0.12067  0.01482  1.0000
  S   S18       1.0  0.40123  0.05680  0.84084  1.0000
  Fe  Fe11      1.0  0.44917  0.05049  0.93416  1.0000
  H   H116      1.0  0.31768  0.06814  0.95159  1.0000
  H   H117      1.0  0.27800  0.99661  0.76831  1.0000
  H   H118      1.0  0.02191  0.18373  0.86899  1.0000
  S   S19       1.0  0.37035  0.00117  0.72587  1.0000
  S   S20       1.0  0.43157  0.04460  0.98311  1.0000
  S   S21       1.0  0.44068  0.08520  0.90153  1.0000
  C   C67       1.0  0.45551  0.04424  0.00946  1.0000
  H   H119      1.0  0.06753  0.00197  0.68605  1.0000
  S   S22       1.0  0.03915  0.23551  0.90082  1.0000
  H   H120      1.0  0.35191  0.00995  0.96609  1.0000
  Fe  Fe12      1.0  0.05245  0.26714  0.86285  1.0000
  S   S23       1.0  0.09023  0.25813  0.83504  1.0000
  Fe  Fe13      1.0  0.03006  0.26963  0.92866  1.0000
  S   S24       1.0  0.04275  0.27054  0.97577  1.0000
  C   C68       1.0  0.12171  0.31240  0.88104  1.0000
  H   H121      1.0  0.04371  0.07658  0.92450  1.0000
  H   H122      1.0  0.03874  0.09470  0.98881  1.0000
  H   H123      1.0  0.36059  0.13046  0.93073  1.0000
  H   H124      1.0  0.14537  0.25942  0.81701  1.0000
  C   C69       1.0  0.00329  0.09519  0.96342  1.0000
  H   H125      1.0  0.06591  0.02953  0.81072  1.0000
  C   C70       1.0  0.01783  0.27280  0.00594  1.0000
  H   H126      1.0  0.06018  0.98677  0.78710  1.0000
  H   H127      1.0  0.98095  0.21073  0.96202  1.0000
  H   H128      1.0  0.01132  0.19686  0.97385  1.0000
  S   S25       1.0  0.98812  0.27287  0.91630  1.0000
  H   H129      1.0  0.27275  0.03078  0.92659  1.0000
  H   H130      1.0  0.04271  0.11638  0.95376  1.0000
  H   H131      1.0  0.44510  0.10290  0.99692  1.0000
  C   C71       1.0  0.99696  0.11900  0.87488  1.0000
  H   H132      1.0  0.44535  0.19312  0.87083  1.0000
  H   H133      1.0  0.37441  0.05815  0.99440  1.0000
  Fe  Fe14      1.0  0.99356  0.98664  0.88890  1.0000
  H   H134      1.0  0.05959  0.03644  0.68930  1.0000
  H   H135      1.0  0.26310  0.00602  0.83895  1.0000
  C   C72       1.0  0.38052  0.01457  0.75849  1.0000
  C   C73       1.0  0.36658  0.03636  0.76822  1.0000
  C   C74       1.0  0.37339  0.04862  0.79341  1.0000
  C   C75       1.0  0.39466  0.03976  0.80916  1.0000
  Fe  Fe15      1.0  0.99836  0.24059  0.88563  1.0000
  H   H136      1.0  0.03622  0.13751  0.86284  1.0000
  H   H137      1.0  0.35048  0.04408  0.75595  1.0000
  H   H138      1.0  0.36236  0.06555  0.80035  1.0000
  N   N4        1.0  0.35297  0.04712  0.93661  1.0000
  C   C76       1.0  0.30516  0.02674  0.95568  1.0000
  H   H139      1.0  0.00484  0.01797  0.98028  1.0000
  C   C77       1.0  0.36681  0.07440  0.93554  1.0000
  H   H140      1.0  0.44347  0.22361  0.94067  1.0000
  C   C78       1.0  0.15409  0.29323  0.78389  1.0000
  C   C79       1.0  0.40159  0.00497  0.77453  1.0000
  C   C80       1.0  0.36338  0.09419  0.90736  1.0000
  C   C81       1.0  0.99744  0.14328  0.96333  1.0000
  H   H141      1.0  0.35956  0.08464  0.95567  1.0000
  C   C82       1.0  0.99088  0.11569  0.01167  1.0000
  H   H142      1.0  0.01710  0.04590  0.72151  1.0000
  H   H143      1.0  0.17520  0.28950  0.78086  1.0000
  C   C83       1.0  0.27952  0.99772  0.85149  1.0000
  H   H144      1.0  0.43678  0.20794  0.97879  1.0000
  H   H145      1.0  0.01751  0.14837  0.97019  1.0000
  H   H146      1.0  0.33909  0.05090  0.99795  1.0000
  H   H147      1.0  0.38869  0.07233  0.93683  1.0000
  H   H148      1.0  0.29943  0.99849  0.65301  1.0000
  C   C84       1.0  0.32309  0.05048  0.93922  1.0000
  H   H149      1.0  0.10373  0.99822  0.80969  1.0000
  C   C85       1.0  0.43824  0.11533  0.01528  1.0000
  H   H150      1.0  0.30806  0.00072  0.81240  1.0000
  H   H151      1.0  0.98601  0.28115  0.97793  1.0000
  H   H152      1.0  0.46284  0.00252  0.63478  1.0000
  H   H153      1.0  0.34219  0.09482  0.90253  1.0000
  H   H154      1.0  0.37551  0.08813  0.88718  1.0000
  N   N5        1.0  0.98682  0.01807  0.74569  1.0000
  C   C86       1.0  0.36226  0.03535  0.90762  1.0000
  H   H155      1.0  0.38372  0.02594  0.95830  1.0000
  C   C87       1.0  0.04760  0.07489  0.94872  1.0000
  H   H156      1.0  0.26333  0.01372  0.96366  1.0000
  H   H157      1.0  0.44748  0.24297  0.97199  1.0000
  H   H158      1.0  0.47785  0.28088  0.80254  1.0000
  H   H159      1.0  0.08392  0.02988  0.84370  1.0000
  C   C88       1.0  0.02883  0.00714  0.71034  1.0000
  C   C89       1.0  0.36214  0.02998  0.96303  1.0000
  H   H160      1.0  0.26893  0.04954  0.95943  1.0000
  C   C90       1.0  0.99159  0.27869  0.00072  1.0000
  H   H161      1.0  0.06925  0.01583  0.72166  1.0000
  Fe  Fe16      1.0  0.98457  0.04719  0.88310  1.0000
  H   H162      1.0  0.41258  0.98822  0.76709  1.0000
  H   H163      1.0  0.99277  0.02952  0.79015  1.0000
  C   C91       1.0  0.35238  0.00636  0.90443  1.0000
  C   C92       1.0  0.47192  0.28512  0.01404  1.0000
  H   H164      1.0  0.42515  0.01057  0.81204  1.0000
  C   C93       1.0  0.10993  0.28074  0.80885  1.0000
  C   C94       1.0  0.30086  0.99085  0.63036  1.0000
  C   C95       1.0  0.27577  0.03052  0.95098  1.0000
  H   H165      1.0  0.06951  0.07669  0.94987  1.0000
  C   C96       1.0  0.35888  0.04204  0.99393  1.0000
  H   H166      1.0  0.46762  0.28557  0.99073  1.0000
  C   C97       1.0  0.37298  0.12258  0.91180  1.0000
  H   H167      1.0  0.30678  0.02535  0.98041  1.0000
  H   H168      1.0  0.99660  0.07467  0.97313  1.0000
  C   C98       1.0  0.47355  0.16218  0.87808  1.0000
  C   C99       1.0  0.98406  0.06585  0.76366  1.0000
  H   H169      1.0  0.28311  0.01534  0.71450  1.0000
  H   H170      1.0  0.00028  0.14297  0.93824  1.0000
  H   H171      1.0  0.04026  0.05488  0.95961  1.0000
  H   H172      1.0  0.43949  0.13662  0.00572  1.0000
  H   H173      1.0  0.31142  0.99493  0.70705  1.0000
  H   H174      1.0  0.31074  0.00725  0.94790  1.0000
  H   H175      1.0  0.45180  0.98775  0.00265  1.0000
  S   S26       1.0  0.00811  0.08649  0.86882  1.0000
  S   S27       1.0  0.04784  0.30077  0.89232  1.0000
  C   C100      1.0  0.99468  0.19397  0.95967  1.0000
  C   C101      1.0  0.13720  0.27620  0.80439  1.0000
  H   H176      1.0  0.31635  0.05523  0.91630  1.0000
  S   S28       1.0  0.47134  0.24288  0.87958  1.0000
  C   C102      1.0  0.07070  0.01747  0.83155  1.0000
  H   H177      1.0  0.35581  0.04759  0.88768  1.0000
  C   C103      1.0  0.40876  0.01769  0.79987  1.0000
  H   H178      1.0  0.37135  0.13597  0.89081  1.0000
  H   H179      1.0  0.99977  0.09607  0.93902  1.0000
  H   H180      1.0  0.07081  0.29674  0.66691  1.0000
  S   S29       1.0  0.44074  0.01977  0.90259  1.0000
  C   C104      1.0  0.01542  0.02524  0.73320  1.0000
  H   H181      1.0  0.39423  0.12291  0.91662  1.0000
  C   C105      1.0  0.99826  0.01732  0.00404  1.0000
  S   S30       1.0  0.01207  0.27053  0.84576  1.0000
  H   H182      1.0  0.02867  0.98598  0.72007  1.0000
  H   H183      1.0  0.46026  0.14632  0.87285  1.0000
  H   H184      1.0  0.28949  0.01437  0.86139  1.0000
  H   H185      1.0  0.02828  0.02536  0.75222  1.0000
  H   H186      1.0  0.33054  0.00570  0.90278  1.0000
  H   H187      1.0  0.38452  0.03603  0.90441  1.0000
  C   C106      1.0  0.36537  0.99628  0.87540  1.0000
  C   C107      1.0  0.05808  0.01598  0.70139  1.0000
  C   C108      1.0  0.46517  0.18874  0.87689  1.0000
  H   H188      1.0  0.38750  0.99712  0.87491  1.0000
  Fe  Fe17      1.0  0.00633  0.30232  0.87824  1.0000
  C   C109      1.0  0.03391  0.09703  0.96497  1.0000
  H   H189      1.0  0.01896  0.00864  0.68918  1.0000
  C   C110      1.0  0.08475  0.99206  0.82370  1.0000
  H   H190      1.0  0.35724  0.99220  0.92353  1.0000
  H   H191      1.0  0.05194  0.01232  0.84659  1.0000
  H   H192      1.0  0.10015  0.99506  0.75706  1.0000
  H   H193      1.0  0.32233  0.98883  0.62271  1.0000
  C   C111      1.0  0.98471  0.98911  0.75873  1.0000
  H   H194      1.0  0.29218  0.00566  0.61434  1.0000
  H   H195      1.0  0.41102  0.98932  0.97487  1.0000
  H   H196      1.0  0.35956  0.00858  0.85521  1.0000
  C   C112      1.0  0.44991  0.22287  0.96386  1.0000
  H   H197      1.0  0.00289  0.19463  0.93562  1.0000
  H   H198      1.0  0.02087  0.30150  0.77214  1.0000
  H   H199      1.0  0.47483  0.19837  0.01017  1.0000
  S   S31       1.0  0.47577  0.30589  0.92468  1.0000
  H   H200      1.0  0.98404  0.07471  0.81070  1.0000
  H   H201      1.0  0.47021  0.99056  0.77866  1.0000
  C   C113      1.0  0.09944  0.30239  0.79216  1.0000
  H   H202      1.0  0.10561  0.31221  0.89988  1.0000
  N   N6        1.0  0.98724  0.11613  0.97839  1.0000
  H   H203      1.0  0.07832  0.30563  0.79531  1.0000
  H   H204      1.0  0.13077  0.99213  0.71123  1.0000
  H   H205      1.0  0.32584  0.98532  0.77130  1.0000
  H   H206      1.0  0.14757  0.98250  0.74432  1.0000
  C   C114      1.0  0.28895  0.98518  0.75128  1.0000
  S   S32       1.0  0.48026  0.05807  0.85006  1.0000
  C   C115      1.0  0.47909  0.21510  0.96311  1.0000
  C   C116      1.0  0.98059  0.17193  0.88155  1.0000
  C   C117      1.0  0.14389  0.31476  0.76706  1.0000
  H   H207      1.0  0.00084  0.98492  0.77379  1.0000
  C   C118      1.0  0.47079  0.98234  0.63253  1.0000
  H   H208      1.0  0.27099  0.98284  0.87024  1.0000
  C   C119      1.0  0.29984  0.98486  0.83014  1.0000
  H   H209      1.0  0.00565  0.52150  0.29387  1.0000
  Fe  Fe18      1.0  0.13086  0.46968  0.37631  1.0000
  S   S33       1.0  0.13241  0.42901  0.35965  1.0000
  S   S34       1.0  0.13141  0.50844  0.34626  1.0000
  Fe  Fe19      1.0  0.13176  0.44755  0.44212  1.0000
  S   S35       1.0  0.13316  0.40516  0.43060  1.0000
  S   S36       1.0  0.13234  0.46080  0.48895  1.0000
  Fe  Fe20      1.0  0.16347  0.42111  0.39225  1.0000
  S   S37       1.0  0.20038  0.39761  0.38071  1.0000
  Fe  Fe21      1.0  0.10213  0.41722  0.39942  1.0000
  S   S38       1.0  0.06623  0.38971  0.39727  1.0000
  S   S39       1.0  0.16422  0.46278  0.40597  1.0000
  S   S40       1.0  0.09844  0.45859  0.41387  1.0000
  Fe  Fe22      1.0  0.38030  0.38281  0.45300  1.0000
  S   S41       1.0  0.38153  0.42560  0.43376  1.0000
  S   S42       1.0  0.39190  0.40472  0.36643  1.0000
  Fe  Fe23      1.0  0.41700  0.41536  0.40303  1.0000
  S   S43       1.0  0.45498  0.44197  0.39376  1.0000
  Fe  Fe24      1.0  0.35595  0.41052  0.39966  1.0000
  S   S44       1.0  0.32044  0.43654  0.39139  1.0000
  S   S45       1.0  0.02722  0.34668  0.17741  1.0000
  C   C120      1.0  0.03598  0.40411  0.38900  1.0000
  C   C121      1.0  0.03416  0.43177  0.38254  1.0000
  C   C122      1.0  0.00946  0.44264  0.37705  1.0000
  H   H210      1.0  0.45830  0.41062  0.30390  1.0000
  N   N7        1.0  0.22390  0.42919  0.49531  1.0000
  C   C123      1.0  0.01318  0.38739  0.38913  1.0000
  H   H211      1.0  0.05174  0.44478  0.38183  1.0000
  C   C124      1.0  0.46844  0.36693  0.18016  1.0000
  H   H212      1.0  0.46989  0.38943  0.41892  1.0000
  H   H213      1.0  0.01452  0.36596  0.39381  1.0000
  C   C125      1.0  0.23327  0.40833  0.38627  1.0000
  C   C126      1.0  0.25371  0.38987  0.38531  1.0000
  C   C127      1.0  0.28039  0.39800  0.38782  1.0000
  C   C128      1.0  0.28694  0.42483  0.39068  1.0000
  C   C129      1.0  0.26641  0.44323  0.39201  1.0000
  C   C130      1.0  0.23966  0.43498  0.39019  1.0000
  H   H214      1.0  0.24895  0.36922  0.38227  1.0000
  H   H215      1.0  0.29599  0.38366  0.38669  1.0000
  H   H216      1.0  0.27130  0.46402  0.39423  1.0000
  H   H217      1.0  0.22413  0.44938  0.39098  1.0000
  H   H218      1.0  0.29595  0.40212  0.45544  1.0000
  H   H219      1.0  0.05833  0.34395  0.27791  1.0000
  H   H220      1.0  0.42680  0.52511  0.31315  1.0000
  C   C131      1.0  0.01394  0.37881  0.17922  1.0000
  C   C132      1.0  0.03145  0.40111  0.17902  1.0000
  C   C133      1.0  0.02156  0.42675  0.18192  1.0000
  H   H221      1.0  0.38903  0.37342  0.26460  1.0000
  H   H222      1.0  0.40578  0.34237  0.07835  1.0000
  H   H223      1.0  0.05280  0.39849  0.17700  1.0000
  H   H224      1.0  0.03532  0.44363  0.18222  1.0000
  C   C134      1.0  0.12242  0.50876  0.30908  1.0000
  C   C135      1.0  0.09632  0.49238  0.27087  1.0000
  C   C136      1.0  0.10305  0.49085  0.30098  1.0000
  H   H225      1.0  0.08163  0.47839  0.26447  1.0000
  H   H226      1.0  0.09326  0.47593  0.31788  1.0000
  C   C137      1.0  0.09558  0.57844  0.36125  1.0000
  H   H227      1.0  0.12798  0.40253  0.49463  1.0000
  S   S46       1.0  0.41739  0.37357  0.42485  1.0000
  H   H228      1.0  0.46602  0.40412  0.02423  1.0000
  S   S47       1.0  0.04937  0.49920  0.15656  1.0000
  C   C138      1.0  0.46163  0.50177  0.29941  1.0000
  S   S48       1.0  0.05685  0.56159  0.17161  1.0000
  H   H229      1.0  0.09375  0.56367  0.30528  1.0000
  Fe  Fe25      1.0  0.03815  0.53959  0.13685  1.0000
  S   S49       1.0  0.04651  0.55360  0.08704  1.0000
  Fe  Fe26      1.0  0.06398  0.52082  0.19410  1.0000
  S   S50       1.0  0.10426  0.51212  0.21033  1.0000
  C   C139      1.0  0.19811  0.49808  0.25633  1.0000
  S   S51       1.0  0.02483  0.51727  0.22308  1.0000
  H   H230      1.0  0.11218  0.57356  0.20542  1.0000
  H   H231      1.0  0.07142  0.36773  0.33764  1.0000
  H   H232      1.0  0.00315  0.32286  0.08974  1.0000
  H   H233      1.0  0.02838  0.44627  0.30539  1.0000
  H   H234      1.0  0.04683  0.61631  0.19820  1.0000
  C   C140      1.0  0.13493  0.52804  0.28716  1.0000
  C   C141      1.0  0.12886  0.52901  0.25713  1.0000
  C   C142      1.0  0.10935  0.51148  0.24889  1.0000
  H   H235      1.0  0.14990  0.54189  0.29327  1.0000
  H   H236      1.0  0.13942  0.54336  0.24016  1.0000
  H   H237      1.0  0.21883  0.38630  0.50803  1.0000
  H   H238      1.0  0.99118  0.53372  0.09706  1.0000
  C   C143      1.0  0.20321  0.49829  0.45728  1.0000
  C   C144      1.0  0.02390  0.54287  0.06251  1.0000
  H   H239      1.0  0.39551  0.33480  0.14779  1.0000
  H   H240      1.0  0.44866  0.51498  0.05276  1.0000
  H   H241      1.0  0.43723  0.41063  0.23943  1.0000
  S   S52       1.0  0.35308  0.36776  0.42061  1.0000
  H   H242      1.0  0.02964  0.33854  0.10693  1.0000
  H   H243      1.0  0.19313  0.52740  0.21854  1.0000
  H   H244      1.0  0.45528  0.34950  0.18508  1.0000
  Fe  Fe27      1.0  0.39077  0.36294  0.38983  1.0000
  N   N8        1.0  0.20543  0.45632  0.29400  1.0000
  C   C145      1.0  0.19478  0.47332  0.31830  1.0000
  C   C146      1.0  0.18465  0.43481  0.29045  1.0000
  C   C147      1.0  0.22942  0.44250  0.30517  1.0000
  C   C148      1.0  0.21384  0.47251  0.26402  1.0000
  C   C149      1.0  0.21555  0.49339  0.32827  1.0000
  C   C150      1.0  0.24200  0.42145  0.28537  1.0000
  C   C151      1.0  0.20222  0.51617  0.34360  1.0000
  C   C152      1.0  0.26892  0.41305  0.29562  1.0000
  H   H245      1.0  0.18673  0.46033  0.33904  1.0000
  H   H246      1.0  0.17738  0.48458  0.31148  1.0000
  H   H247      1.0  0.19239  0.42136  0.27351  1.0000
  H   H248      1.0  0.18012  0.42189  0.31225  1.0000
  H   H249      1.0  0.22414  0.43221  0.32829  1.0000
  H   H250      1.0  0.24574  0.45740  0.30742  1.0000
  H   H251      1.0  0.23521  0.47944  0.26265  1.0000
  H   H252      1.0  0.21294  0.45957  0.24515  1.0000
  H   H253      1.0  0.22779  0.48276  0.34473  1.0000
  H   H254      1.0  0.22939  0.50229  0.30881  1.0000
  H   H255      1.0  0.24521  0.42940  0.26117  1.0000
  H   H256      1.0  0.22888  0.40305  0.28758  1.0000
  C   C153      1.0  0.39385  0.32882  0.12466  1.0000
  H   H257      1.0  0.21770  0.52963  0.35097  1.0000
  H   H258      1.0  0.19049  0.52807  0.32763  1.0000
  H   H259      1.0  0.18875  0.50819  0.36382  1.0000
  H   H260      1.0  0.28344  0.43041  0.29299  1.0000
  H   H261      1.0  0.26648  0.40461  0.31972  1.0000
  H   H262      1.0  0.27719  0.39747  0.28168  1.0000
  H   H263      1.0  0.40345  0.48430  0.43959  1.0000
  C   C154      1.0  0.40099  0.38646  0.24636  1.0000
  H   H264      1.0  0.01143  0.44176  0.05467  1.0000
  H   H265      1.0  0.02867  0.61437  0.32584  1.0000
  H   H266      1.0  0.21346  0.44694  0.45188  1.0000
  H   H267      1.0  0.43622  0.39432  0.18140  1.0000
  H   H268      1.0  0.44136  0.50132  0.35833  1.0000
  C   C155      1.0  0.46226  0.38894  0.30793  1.0000
  C   C156      1.0  0.20976  0.44984  0.47635  1.0000
  C   C157      1.0  0.01094  0.43714  0.29611  1.0000
  H   H269      1.0  0.46091  0.54735  0.33167  1.0000
  S   S53       1.0  0.37732  0.37050  0.50335  1.0000
  C   C158      1.0  0.01458  0.34714  0.03139  1.0000
  N   N9        1.0  0.45415  0.37424  0.08429  1.0000
  H   H270      1.0  0.22870  0.39057  0.45121  1.0000
  H   H271      1.0  0.43636  0.61572  0.22313  1.0000
  H   H272      1.0  0.36130  0.42565  0.49722  1.0000
  C   C159      1.0  0.02806  0.62132  0.30162  1.0000
  H   H273      1.0  0.19733  0.40671  0.44794  1.0000
  H   H274      1.0  0.17276  0.36672  0.47520  1.0000
  H   H275      1.0  0.19274  0.35911  0.44155  1.0000
  H   H276      1.0  0.06528  0.40173  0.32428  1.0000
  H   H277      1.0  0.05546  0.64475  0.08650  1.0000
  C   C160      1.0  0.03283  0.63136  0.20389  1.0000
  Fe  Fe28      1.0  0.01650  0.55670  0.19779  1.0000
  C   C161      1.0  0.45826  0.51289  0.36566  1.0000
  H   H278      1.0  0.06363  0.46401  0.10227  1.0000
  H   H279      1.0  0.99754  0.33064  0.24701  1.0000
  H   H280      1.0  0.26229  0.38845  0.49861  1.0000
  H   H281      1.0  0.25362  0.42680  0.45718  1.0000
  C   C162      1.0  0.47156  0.42880  0.49001  1.0000
  C   C163      1.0  0.29820  0.40928  0.47793  1.0000
  S   S54       1.0  0.99570  0.58958  0.22146  1.0000
  H   H282      1.0  0.02717  0.45654  0.46857  1.0000
  C   C164      1.0  0.44081  0.40048  0.08882  1.0000
  C   C165      1.0  0.06700  0.38106  0.31755  1.0000
  C   C166      1.0  0.38022  0.31657  0.28682  1.0000
  S   S55       1.0  0.40680  0.32664  0.36834  1.0000
  H   H283      1.0  0.99592  0.38923  0.45633  1.0000
  C   C167      1.0  0.10897  0.59501  0.20821  1.0000
  H   H284      1.0  0.23917  0.48396  0.47367  1.0000
  H   H285      1.0  0.01306  0.52502  0.33230  1.0000
  C   C168      1.0  0.43584  0.45942  0.48021  1.0000
  C   C169      1.0  0.47312  0.53812  0.01665  1.0000
  H   H286      1.0  0.46448  0.58221  0.12924  1.0000
  C   C170      1.0  0.98847  0.52619  0.02210  1.0000
  C   C171      1.0  0.47371  0.53068  0.33886  1.0000
  H   H287      1.0  0.43542  0.40353  0.48792  1.0000
  H   H288      1.0  0.42852  0.45323  0.06768  1.0000
  H   H289      1.0  0.00048  0.47056  0.50896  1.0000
  H   H290      1.0  0.30769  0.42975  0.47448  1.0000
  C   C172      1.0  0.02253  0.64239  0.12223  1.0000
  H   H291      1.0  0.07016  0.62904  0.28674  1.0000
  C   C173      1.0  0.01607  0.34128  0.08874  1.0000
  H   H292      1.0  0.38915  0.40406  0.24005  1.0000
  H   H293      1.0  0.44702  0.33256  0.10235  1.0000
  H   H294      1.0  0.04985  0.62128  0.25851  1.0000
  C   C174      1.0  0.02454  0.61200  0.12509  1.0000
  H   H295      1.0  0.11779  0.59388  0.25427  1.0000
  C   C175      1.0  0.38283  0.32627  0.31506  1.0000
  H   H296      1.0  0.39095  0.50930  0.46326  1.0000
  S   S56       1.0  0.46002  0.44717  0.17250  1.0000
  C   C176      1.0  0.40837  0.34939  0.10079  1.0000
  H   H297      1.0  0.36240  0.32048  0.27562  1.0000
  H   H298      1.0  0.00808  0.32611  0.02939  1.0000
  H   H299      1.0  0.14648  0.40757  0.26080  1.0000
  N   N10       1.0  0.06298  0.58628  0.28486  1.0000
  C   C177      1.0  0.03944  0.56669  0.29305  1.0000
  C   C178      1.0  0.46738  0.37802  0.49811  1.0000
  H   H300      1.0  0.42203  0.40612  0.27797  1.0000
  H   H301      1.0  0.05225  0.55056  0.02305  1.0000
  C   C179      1.0  0.04609  0.53666  0.29766  1.0000
  H   H302      1.0  0.98414  0.46502  0.31463  1.0000
  H   H303      1.0  0.44267  0.37966  0.31838  1.0000
  H   H304      1.0  0.26253  0.44939  0.48269  1.0000
  C   C180      1.0  0.02123  0.51934  0.30985  1.0000
  H   H305      1.0  0.02529  0.56892  0.27527  1.0000
  H   H306      1.0  0.02774  0.57105  0.31425  1.0000
  H   H307      1.0  0.17626  0.49462  0.26088  1.0000
  H   H308      1.0  0.31183  0.39587  0.48977  1.0000
  H   H309      1.0  0.07279  0.43841  0.47575  1.0000
  C   C181      1.0  0.06294  0.41825  0.48153  1.0000
  H   H310      1.0  0.09666  0.62044  0.24251  1.0000
  C   C182      1.0  0.04086  0.37193  0.30617  1.0000
  C   C183      1.0  0.00643  0.62373  0.21462  1.0000
  H   H311      1.0  0.06105  0.53308  0.31413  1.0000
  H   H312      1.0  0.44081  0.60733  0.12060  1.0000
  C   C184      1.0  0.42398  0.48756  0.48011  1.0000
  H   H313      1.0  0.00345  0.35844  0.09323  1.0000
  H   H314      1.0  0.41962  0.44492  0.49049  1.0000
  H   H315      1.0  0.01501  0.46454  0.11628  1.0000
  H   H316      1.0  0.00101  0.64692  0.12425  1.0000
  C   C185      1.0  0.47730  0.60516  0.21349  1.0000
  H   H317      1.0  0.03792  0.38585  0.28606  1.0000
  H   H318      1.0  0.04574  0.60653  0.12532  1.0000
  C   C186      1.0  0.99243  0.37035  0.26129  1.0000
  C   C187      1.0  0.98550  0.61009  0.02770  1.0000
  C   C188      1.0  0.20835  0.39271  0.46248  1.0000
  C   C189      1.0  0.98851  0.64358  0.22199  1.0000
  C   C190      1.0  0.07581  0.58065  0.25415  1.0000
  H   H319      1.0  0.37235  0.32735  0.12109  1.0000
  H   H320      1.0  0.47184  0.49867  0.37630  1.0000
  H   H321      1.0  0.98321  0.49427  0.46825  1.0000
  C   C191      1.0  0.21744  0.47968  0.47910  1.0000
  H   H322      1.0  0.08386  0.38101  0.29953  1.0000
  C   C192      1.0  0.99402  0.43032  0.18508  1.0000
  Fe  Fe29      1.0  0.00960  0.49824  0.18402  1.0000
  H   H323      1.0  0.02455  0.37374  0.32436  1.0000
  H   H324      1.0  0.99277  0.58929  0.02865  1.0000
  C   C193      1.0  0.98856  0.39825  0.38357  1.0000
  H   H325      1.0  0.02668  0.49805  0.31268  1.0000
  N   N11       1.0  0.46056  0.45548  0.49652  1.0000
  C   C194      1.0  0.02235  0.45348  0.09693  1.0000
  H   H326      1.0  0.11909  0.42827  0.27125  1.0000
  C   C195      1.0  0.05391  0.61491  0.28213  1.0000
  C   C196      1.0  0.45317  0.36695  0.05227  1.0000
  H   H327      1.0  0.99602  0.35732  0.03864  1.0000
  H   H328      1.0  0.43649  0.51651  0.40931  1.0000
  C   C197      1.0  0.43721  0.51850  0.29221  1.0000
  H   H329      1.0  0.20377  0.51420  0.27015  1.0000
  H   H330      1.0  0.18774  0.44731  0.48208  1.0000
  C   C198      1.0  0.46061  0.60388  0.12898  1.0000
  H   H331      1.0  0.18119  0.49524  0.46199  1.0000
  C   C199      1.0  0.25262  0.42949  0.48176  1.0000
  C   C200      1.0  0.45764  0.39244  0.17846  1.0000
  H   H332      1.0  0.05388  0.52937  0.27595  1.0000
  C   C201      1.0  0.45679  0.62327  0.21772  1.0000
  H   H333      1.0  0.18875  0.40311  0.50486  1.0000
  C   C202      1.0  0.99428  0.32983  0.31345  1.0000
  H   H334      1.0  0.02528  0.43246  0.10574  1.0000
  H   H335      1.0  0.01615  0.60322  0.10596  1.0000
  H   H336      1.0  0.36704  0.33745  0.32559  1.0000
  H   H337      1.0  0.42409  0.40317  0.07431  1.0000
  C   C203      1.0  0.46753  0.52585  0.04625  1.0000
  H   H338      1.0  0.43299  0.35582  0.27794  1.0000
  H   H339      1.0  0.45713  0.34532  0.05103  1.0000
  H   H340      1.0  0.01784  0.43004  0.27392  1.0000
  H   H341      1.0  0.45421  0.48380  0.31487  1.0000
  H   H342      1.0  0.04408  0.36568  0.05776  1.0000
  H   H343      1.0  0.44026  0.35607  0.12926  1.0000
  C   C204      1.0  0.98649  0.42592  0.37807  1.0000
  H   H344      1.0  0.20855  0.51945  0.46011  1.0000
  H   H345      1.0  0.11319  0.59239  0.35483  1.0000
  H   H346      1.0  0.40486  0.37519  0.22621  1.0000
  H   H347      1.0  0.04817  0.48752  0.07700  1.0000
  H   H348      1.0  0.07467  0.40692  0.49794  1.0000
  H   H349      1.0  0.45013  0.36392  0.24146  1.0000
  H   H350      1.0  0.05030  0.33029  0.31578  1.0000
  H   H351      1.0  0.43843  0.50316  0.46844  1.0000
  S   S57       1.0  0.46942  0.57025  0.21894  1.0000
  H   H352      1.0  0.09350  0.60233  0.19367  1.0000
  H   H353      1.0  0.43149  0.40031  0.11262  1.0000
  H   H354      1.0  0.43946  0.45457  0.45635  1.0000
  C   C205      1.0  0.01735  0.43625  0.47329  1.0000
  C   C206      1.0  0.42720  0.39584  0.25737  1.0000
  C   C207      1.0  0.44537  0.37188  0.26363  1.0000
  H   H355      1.0  0.08811  0.58047  0.38515  1.0000
  H   H356      1.0  0.01045  0.61145  0.29338  1.0000
  H   H357      1.0  0.47863  0.33265  0.24153  1.0000
  H   H358      1.0  0.06328  0.40756  0.46080  1.0000
  H   H359      1.0  0.41840  0.49253  0.50357  1.0000
  H   H360      1.0  0.46326  0.54124  0.39905  1.0000
  N   N12       1.0  0.01696  0.33051  0.28849  1.0000
  C   C208      1.0  0.03249  0.34653  0.05794  1.0000
  H   H361      1.0  0.05652  0.57042  0.34851  1.0000
  H   H362      1.0  0.45544  0.36531  0.36967  1.0000
  C   C209      1.0  0.20411  0.50880  0.22306  1.0000
  H   H363      1.0  0.43268  0.36919  0.04524  1.0000
  H   H364      1.0  0.20932  0.49460  0.43346  1.0000
  H   H365      1.0  0.02589  0.40001  0.50229  1.0000
  H   H366      1.0  0.12793  0.60657  0.20048  1.0000
  C   C210      1.0  0.10055  0.59893  0.24130  1.0000
  C   C211      1.0  0.13840  0.42068  0.27794  1.0000
  C   C212      1.0  0.15789  0.44433  0.27958  1.0000
  C   C213      1.0  0.03429  0.42058  0.49561  1.0000
  H   H367      1.0  0.43241  0.54393  0.38124  1.0000
  C   C214      1.0  0.04239  0.34304  0.29711  1.0000
  H   H368      1.0  0.22583  0.51350  0.21745  1.0000
  C   C215      1.0  0.19357  0.36547  0.46466  1.0000
  H   H369      1.0  0.44331  0.53644  0.27631  1.0000
  H   H370      1.0  0.01768  0.39692  0.02101  1.0000
  H   H371      1.0  0.20407  0.35015  0.47817  1.0000
  H   H372      1.0  0.19742  0.49392  0.20818  1.0000
  H   H373      1.0  0.16124  0.45461  0.25634  1.0000
  S   S58       1.0  0.99714  0.53728  0.16153  1.0000
  C   C216      1.0  0.44214  0.45138  0.08587  1.0000
  C   C217      1.0  0.00894  0.34465  0.25941  1.0000
  C   C218      1.0  0.07348  0.58477  0.34075  1.0000
  H   H374      1.0  0.14806  0.45787  0.29504  1.0000
  H   H375      1.0  0.09996  0.59852  0.30158  1.0000
  C   C219      1.0  0.08362  0.58293  0.30717  1.0000
  H   H376      1.0  0.08278  0.55990  0.25464  1.0000
  H   H377      1.0  0.01328  0.60322  0.14660  1.0000
  H   H378      1.0  0.05823  0.45553  0.06490  1.0000
  C   C220      1.0  0.00281  0.45452  0.07191  1.0000
  H   H379      1.0  0.06074  0.58199  0.23734  1.0000
  H   H380      1.0  0.00292  0.41991  0.31223  1.0000
  H   H381      1.0  0.13454  0.40863  0.30021  1.0000
  C   C221      1.0  0.04973  0.46589  0.08436  1.0000
  H   H382      1.0  0.06727  0.60538  0.34403  1.0000
  C   C222      1.0  0.27100  0.40912  0.49664  1.0000
  H   H383      1.0  0.39814  0.36852  0.10245  1.0000
  H   H384      1.0  0.00812  0.46406  0.37237  1.0000
  C   C223      1.0  0.41699  0.50203  0.27744  1.0000
  H   H385      1.0  0.40972  0.48397  0.29270  1.0000
  H   H386      1.0  0.39962  0.51434  0.27272  1.0000
  H   H387      1.0  0.42616  0.49581  0.25562  1.0000
  H   H388      1.0  0.43026  0.45052  0.10833  1.0000
  C   C224      1.0  0.39886  0.48888  0.46340  1.0000
  H   H389      1.0  0.00383  0.47533  0.06051  1.0000
  C   C225      1.0  0.43857  0.35253  0.10520  1.0000
  H   H390      1.0  0.01992  0.42747  0.45121  1.0000
  C   C226      1.0  0.98961  0.45785  0.29221  1.0000
  C   C227      1.0  0.44695  0.52981  0.39026  1.0000
  H   H391      1.0  0.10190  0.55756  0.35967  1.0000
  H   H392      1.0  0.99976  0.38489  0.24172  1.0000
  C   C228      1.0  0.99780  0.53408  0.07326  1.0000
  C   C229      1.0  0.03208  0.54373  0.03147  1.0000
  H   H393      1.0  0.45988  0.60970  0.15246  1.0000
  C   C230      1.0  0.47440  0.41553  0.17362  1.0000
  H   H394      1.0  0.04673  0.33011  0.05608  1.0000
  C   C231      1.0  0.20968  0.40245  0.49428  1.0000
  H   H395      1.0  0.02710  0.35048  0.24353  1.0000
  H   H396      1.0  0.45562  0.46952  0.08343  1.0000
  H   H397      1.0  0.99905  0.47482  0.27677  1.0000
  H   H398      1.0  0.38313  0.47440  0.47479  1.0000
  C   C232      1.0  0.45873  0.42652  0.08369  1.0000
  H   H399      1.0  0.00031  0.62145  0.03903  1.0000
  H   H400      1.0  0.21162  0.48518  0.50230  1.0000
  H   H401      1.0  0.46919  0.49374  0.27793  1.0000
  H   H402      1.0  0.99499  0.38110  0.28131  1.0000
  H   H403      1.0  0.98764  0.35010  0.31737  1.0000
  H   H404      1.0  0.01667  0.32777  0.35369  1.0000
  C   C233      1.0  0.00006  0.31675  0.34499  1.0000
  C   C234      1.0  0.40505  0.31991  0.33048  1.0000
  H   H405      1.0  0.47400  0.48169  0.43768  1.0000
  H   H406      1.0  0.98454  0.40482  0.07772  1.0000
  N   N13       1.0  0.47055  0.37790  0.27808  1.0000
  C   C235      1.0  0.47489  0.36255  0.35656  1.0000
  H   H407      1.0  0.47027  0.33679  0.29709  1.0000
  H   H408      1.0  0.47498  0.49689  0.49290  1.0000
  H   H409      1.0  0.98637  0.44423  0.01614  1.0000
  H   H410      1.0  0.47721  0.64168  0.10835  1.0000
  H   H411      1.0  0.47742  0.41762  0.25446  1.0000
  C   C236      1.0  0.98435  0.45464  0.51057  1.0000
  H   H412      1.0  0.00537  0.48329  0.43809  1.0000
  H   H413      1.0  0.47576  0.42798  0.46518  1.0000
  H   H414      1.0  0.98431  0.41403  0.11481  1.0000
  H   H415      1.0  0.47365  0.34348  0.34614  1.0000
  C   C237      1.0  0.98637  0.38246  0.18209  1.0000
  S   S59       1.0  0.47788  0.52490  0.15347  1.0000
  C   C238      1.0  0.45286  0.40399  0.50137  1.0000
  H   H416      1.0  0.45329  0.36070  0.50567  1.0000
  C   C239      1.0  0.47209  0.38311  0.02719  1.0000
  H   H417      1.0  0.47497  0.37654  0.47415  1.0000
  H   H418      1.0  0.47283  0.42673  0.10141  1.0000
  N   N14       1.0  0.98808  0.43825  0.48370  1.0000
  H   H419      1.0  0.47039  0.42837  0.06129  1.0000
  H   H420      1.0  0.98230  0.39968  0.51061  1.0000
  C   C240      1.0  0.98442  0.48217  0.44865  1.0000
  H   H421      1.0  0.48024  0.40482  0.34527  1.0000
  S   S60       1.0  0.98088  0.46209  0.18971  1.0000
  S   S61       1.0  0.39363  0.41383  0.65691  1.0000
  S   S62       1.0  0.32934  0.41129  0.71508  1.0000
  Fe  Fe30      1.0  0.42939  0.42579  0.68002  1.0000
  S   S63       1.0  0.46390  0.39800  0.68290  1.0000
  H   H422      1.0  0.44781  0.47720  0.53481  1.0000
  Fe  Fe31      1.0  0.17974  0.42248  0.68270  1.0000
  S   S64       1.0  0.18347  0.38089  0.66926  1.0000
  S   S65       1.0  0.21690  0.45021  0.67639  1.0000
  Fe  Fe32      1.0  0.11857  0.41419  0.69717  1.0000
  S   S66       1.0  0.11869  0.37194  0.68518  1.0000
  S   S67       1.0  0.07957  0.43318  0.71091  1.0000
  Fe  Fe33      1.0  0.15490  0.36920  0.71055  1.0000
  H   H423      1.0  0.13470  0.39892  0.79500  1.0000
  Fe  Fe34      1.0  0.14700  0.38837  0.64520  1.0000
  S   S68       1.0  0.14266  0.37400  0.59931  1.0000
  S   S69       1.0  0.15313  0.41048  0.72570  1.0000
  S   S70       1.0  0.14480  0.43105  0.65561  1.0000
  H   H424      1.0  0.09147  0.40858  0.63110  1.0000
  C   C241      1.0  0.98563  0.62072  0.89210  1.0000
  H   H425      1.0  0.00444  0.44211  0.81165  1.0000
  H   H426      1.0  0.13111  0.36458  0.87557  1.0000
  C   C242      1.0  0.14121  0.39825  0.56842  1.0000
  H   H427      1.0  0.28158  0.36320  0.56972  1.0000
  H   H428      1.0  0.42953  0.57131  0.79614  1.0000
  C   C243      1.0  0.14212  0.44452  0.54685  1.0000
  C   C244      1.0  0.14492  0.42552  0.57139  1.0000
  H   H429      1.0  0.36847  0.34016  0.60802  1.0000
  H   H430      1.0  0.14975  0.43206  0.59259  1.0000
  H   H431      1.0  0.46195  0.64651  0.88294  1.0000
  C   C245      1.0  0.34106  0.47957  0.75803  1.0000
  H   H432      1.0  0.06461  0.43633  0.98086  1.0000
  C   C246      1.0  0.03240  0.38953  0.00372  1.0000
  H   H433      1.0  0.00517  0.58788  0.97822  1.0000
  H   H434      1.0  0.03811  0.35489  0.89008  1.0000
  H   H435      1.0  0.00668  0.38165  0.57178  1.0000
  H   H436      1.0  0.43558  0.62730  0.97074  1.0000
  H   H437      1.0  0.08172  0.38159  0.57482  1.0000
  H   H438      1.0  0.10527  0.34629  0.93620  1.0000
  H   H439      1.0  0.37744  0.35438  0.67199  1.0000
  C   C247      1.0  0.02235  0.32296  0.77617  1.0000
  H   H440      1.0  0.44867  0.32382  0.86227  1.0000
  C   C248      1.0  0.09331  0.33844  0.95759  1.0000
  H   H441      1.0  0.45100  0.42916  0.87400  1.0000
  H   H442      1.0  0.09645  0.32479  0.84688  1.0000
  C   C249      1.0  0.25057  0.36302  0.67177  1.0000
  H   H443      1.0  0.29572  0.50203  0.79637  1.0000
  C   C250      1.0  0.38460  0.43834  0.56401  1.0000
  C   C251      1.0  0.37309  0.44284  0.53669  1.0000
  H   H444      1.0  0.06933  0.49472  0.84425  1.0000
  H   H445      1.0  0.28955  0.38262  0.66777  1.0000
  C   C252      1.0  0.39062  0.39204  0.55420  1.0000
  C   C253      1.0  0.39339  0.41287  0.57271  1.0000
  H   H446      1.0  0.45182  0.43198  0.76284  1.0000
  C   C254      1.0  0.30303  0.36329  0.56150  1.0000
  H   H447      1.0  0.39783  0.37248  0.56081  1.0000
  H   H448      1.0  0.40305  0.40940  0.59321  1.0000
  H   H449      1.0  0.03851  0.61270  0.00727  1.0000
  H   H450      1.0  0.41333  0.31906  0.86065  1.0000
  C   C255      1.0  0.04636  0.38864  0.70715  1.0000
  C   C256      1.0  0.04937  0.41658  0.70484  1.0000
  C   C257      1.0  0.02736  0.43193  0.69905  1.0000
  C   C258      1.0  0.32247  0.39477  0.61338  1.0000
  H   H451      1.0  0.03067  0.53487  0.80370  1.0000
  H   H452      1.0  0.06301  0.37649  0.71223  1.0000
  C   C259      1.0  0.29823  0.42289  0.70468  1.0000
  C   C260      1.0  0.29677  0.44345  0.68151  1.0000
  C   C261      1.0  0.27177  0.45181  0.67332  1.0000
  C   C262      1.0  0.24794  0.43920  0.68759  1.0000
  C   C263      1.0  0.24936  0.41862  0.71077  1.0000
  C   C264      1.0  0.27439  0.41067  0.71942  1.0000
  H   H453      1.0  0.27089  0.46782  0.65547  1.0000
  H   H454      1.0  0.23116  0.40885  0.72208  1.0000
  H   H455      1.0  0.27526  0.39466  0.73728  1.0000
  Fe  Fe35      1.0  0.40745  0.47899  0.69360  1.0000
  S   S71       1.0  0.40415  0.43867  0.72020  1.0000
  S   S72       1.0  0.41542  0.51832  0.71244  1.0000
  Fe  Fe36      1.0  0.39736  0.45565  0.63436  1.0000
  S   S73       1.0  0.38965  0.46536  0.58549  1.0000
  Fe  Fe37      1.0  0.36875  0.43134  0.69409  1.0000
  S   S74       1.0  0.37052  0.47259  0.67029  1.0000
  S   S75       1.0  0.43476  0.46662  0.65482  1.0000
  Fe  Fe38      1.0  0.44506  0.54891  0.87612  1.0000
  C   C265      1.0  0.07813  0.44848  0.62260  1.0000
  S   S76       1.0  0.41015  0.53812  0.85049  1.0000
  S   S77       1.0  0.98706  0.34212  0.86770  1.0000
  C   C266      1.0  0.02680  0.50732  0.71427  1.0000
  H   H456      1.0  0.43047  0.56336  0.74206  1.0000
  H   H457      1.0  0.20699  0.43735  0.58962  1.0000
  C   C267      1.0  0.36419  0.35276  0.62695  1.0000
  H   H458      1.0  0.14472  0.40879  0.87548  1.0000
  S   S78       1.0  0.44670  0.57928  0.91045  1.0000
  C   C268      1.0  0.43288  0.32229  0.84671  1.0000
  H   H459      1.0  0.00804  0.57683  0.79110  1.0000
  H   H460      1.0  0.09588  0.36129  0.87945  1.0000
  S   S79       1.0  0.45560  0.51516  0.90874  1.0000
  C   C269      1.0  0.03972  0.39758  0.89181  1.0000
  H   H461      1.0  0.41070  0.37239  0.71337  1.0000
  C   C270      1.0  0.22425  0.42478  0.58405  1.0000
  H   H462      1.0  0.02958  0.45342  0.69687  1.0000
  H   H463      1.0  0.01603  0.36487  0.95502  1.0000
  H   H464      1.0  0.31489  0.45281  0.66972  1.0000
  C   C271      1.0  0.41859  0.52160  0.75104  1.0000
  C   C272      1.0  0.41225  0.50042  0.77364  1.0000
  C   C273      1.0  0.41111  0.50516  0.80442  1.0000
  C   C274      1.0  0.41734  0.53077  0.81268  1.0000
  C   C275      1.0  0.42515  0.55143  0.79003  1.0000
  C   C276      1.0  0.42553  0.54691  0.75939  1.0000
  H   H465      1.0  0.20246  0.44635  0.53298  1.0000
  H   H466      1.0  0.40477  0.48918  0.82186  1.0000
  C   C277      1.0  0.11646  0.31944  0.77108  1.0000
  H   H467      1.0  0.05692  0.35398  0.94382  1.0000
  H   H468      1.0  0.43091  0.33423  0.76357  1.0000
  H   H469      1.0  0.13406  0.45679  0.86437  1.0000
  H   H470      1.0  0.08957  0.41988  0.59186  1.0000
  C   C278      1.0  0.03142  0.40912  0.97475  1.0000
  H   H471      1.0  0.24563  0.49633  0.75553  1.0000
  H   H472      1.0  0.05061  0.39001  0.56236  1.0000
  H   H473      1.0  0.40561  0.33657  0.71899  1.0000
  H   H474      1.0  0.04024  0.40902  0.63918  1.0000
  C   C279      1.0  0.04276  0.43693  0.97914  1.0000
  C   C280      1.0  0.29838  0.50266  0.77120  1.0000
  H   H475      1.0  0.32318  0.44378  0.57525  1.0000
  C   C281      1.0  0.46638  0.42930  0.77988  1.0000
  H   H476      1.0  0.00602  0.61656  0.95155  1.0000
  H   H477      1.0  0.06990  0.37314  0.83944  1.0000
  C   C282      1.0  0.45740  0.63063  0.97158  1.0000
  C   C283      1.0  0.04603  0.51345  0.68554  1.0000
  H   H478      1.0  0.32487  0.46563  0.80519  1.0000
  H   H479      1.0  0.08842  0.41377  0.85458  1.0000
  S   S80       1.0  0.47148  0.37669  0.88028  1.0000
  H   H480      1.0  0.36269  0.42972  0.77021  1.0000
  H   H481      1.0  0.04293  0.40220  0.95479  1.0000
  H   H482      1.0  0.32781  0.32969  0.64323  1.0000
  H   H483      1.0  0.30983  0.38389  0.55196  1.0000
  C   C284      1.0  0.99167  0.44852  0.79358  1.0000
  C   C285      1.0  0.16389  0.38579  0.82436  1.0000
  H   H484      1.0  0.41579  0.34581  0.81149  1.0000
  H   H485      1.0  0.07671  0.37653  0.96299  1.0000
  H   H486      1.0  0.03475  0.52098  0.66647  1.0000
  H   H487      1.0  0.37546  0.32110  0.65975  1.0000
  H   H488      1.0  0.24263  0.46064  0.76463  1.0000
  C   C286      1.0  0.07919  0.41948  0.61498  1.0000
  H   H489      1.0  0.07983  0.41805  0.80447  1.0000
  H   H490      1.0  0.03826  0.33803  0.57085  1.0000
  C   C287      1.0  0.40861  0.35482  0.73068  1.0000
  S   S81       1.0  0.44927  0.53521  0.99057  1.0000
  H   H491      1.0  0.04728  0.40780  0.77048  1.0000
  H   H492      1.0  0.05408  0.32052  0.62288  1.0000
  H   H493      1.0  0.10213  0.49698  0.82380  1.0000
  H   H494      1.0  0.32964  0.40122  0.63459  1.0000
  H   H495      1.0  0.24213  0.38078  0.65988  1.0000
  C   C288      1.0  0.22229  0.41376  0.55347  1.0000
  C   C289      1.0  0.34269  0.46317  0.78917  1.0000
  H   H496      1.0  0.45069  0.34956  0.73038  1.0000
  C   C290      1.0  0.45600  0.45794  0.96342  1.0000
  C   C291      1.0  0.03628  0.61688  0.98276  1.0000
  H   H497      1.0  0.28890  0.40751  0.58711  1.0000
  H   H498      1.0  0.07301  0.33440  0.57726  1.0000
  H   H499      1.0  0.36046  0.47034  0.79954  1.0000
  H   H500      1.0  0.09482  0.39811  0.77647  1.0000
  C   C292      1.0  0.05635  0.60035  0.96524  1.0000
  H   H501      1.0  0.32688  0.42478  0.77839  1.0000
  H   H502      1.0  0.07694  0.60582  0.97004  1.0000
  S   S82       1.0  0.16676  0.33519  0.74201  1.0000
  H   H503      1.0  0.34809  0.42273  0.80874  1.0000
  H   H504      1.0  0.43457  0.44425  0.53758  1.0000
  H   H505      1.0  0.44534  0.40394  0.52555  1.0000
  S   S83       1.0  0.02695  0.58722  0.87824  1.0000
  C   C293      1.0  0.06623  0.34912  0.53221  1.0000
  H   H506      1.0  0.99102  0.51189  0.76317  1.0000
  C   C294      1.0  0.34528  0.43329  0.78632  1.0000
  Fe  Fe39      1.0  0.00515  0.54679  0.89199  1.0000
  H   H507      1.0  0.06808  0.61942  0.77795  1.0000
  C   C295      1.0  0.43370  0.35246  0.74740  1.0000
  H   H508      1.0  0.98572  0.55953  0.76953  1.0000
  C   C296      1.0  0.29965  0.41369  0.60594  1.0000
  C   C297      1.0  0.99550  0.33220  0.78949  1.0000
  H   H509      1.0  0.36630  0.46253  0.52986  1.0000
  H   H510      1.0  0.01110  0.49303  0.70917  1.0000
  C   C298      1.0  0.00246  0.41974  0.69609  1.0000
  H   H511      1.0  0.24310  0.43690  0.58383  1.0000
  H   H512      1.0  0.39070  0.35697  0.74678  1.0000
  H   H513      1.0  0.34156  0.35818  0.57635  1.0000
  H   H514      1.0  0.28885  0.34718  0.67841  1.0000
  H   H515      1.0  0.32647  0.34481  0.52578  1.0000
  N   N15       1.0  0.04900  0.37736  0.61039  1.0000
  C   C299      1.0  0.28302  0.47724  0.76332  1.0000
  H   H516      1.0  0.37103  0.37363  0.61921  1.0000
  H   H517      1.0  0.29356  0.45594  0.59469  1.0000
  H   H518      1.0  0.32247  0.44936  0.61473  1.0000
  H   H519      1.0  0.02930  0.33512  0.75463  1.0000
  C   C300      1.0  0.06013  0.37549  0.57802  1.0000
  H   H520      1.0  0.08677  0.31736  0.95571  1.0000
  H   H521      1.0  0.03564  0.43139  0.51599  1.0000
  H   H522      1.0  0.20343  0.40132  0.55550  1.0000
  H   H523      1.0  0.16666  0.37125  0.84396  1.0000
  H   H524      1.0  0.99918  0.40402  0.60074  1.0000
  H   H525      1.0  0.44645  0.43705  0.59131  1.0000
  C   C301      1.0  0.01925  0.53640  0.78362  1.0000
  H   H526      1.0  0.41986  0.38245  0.77699  1.0000
  H   H527      1.0  0.11717  0.42563  0.83041  1.0000
  H   H528      1.0  0.33210  0.36014  0.66005  1.0000
  C   C302      1.0  0.00734  0.61013  0.97592  1.0000
  S   S84       1.0  0.04227  0.45199  0.89386  1.0000
  H   H529      1.0  0.24629  0.36393  0.69654  1.0000
  H   H530      1.0  0.44592  0.47558  0.97185  1.0000
  H   H531      1.0  0.33134  0.46672  0.74302  1.0000
  H   H532      1.0  0.47520  0.35453  0.82156  1.0000
  H   H533      1.0  0.48008  0.45324  0.81400  1.0000
  C   C303      1.0  0.00099  0.42089  0.87709  1.0000
  C   C304      1.0  0.07709  0.31813  0.66101  1.0000
  S   S85       1.0  0.02240  0.52051  0.92839  1.0000
  C   C305      1.0  0.00246  0.37243  0.87573  1.0000
  H   H534      1.0  0.24747  0.48200  0.79418  1.0000
  H   H535      1.0  0.10199  0.45036  0.88644  1.0000
  H   H536      1.0  0.09875  0.45733  0.62120  1.0000
  H   H537      1.0  0.07838  0.32752  0.68242  1.0000
  C   C306      1.0  0.11383  0.36083  0.86276  1.0000
  H   H538      1.0  0.08899  0.35717  0.81123  1.0000
  H   H539      1.0  0.33954  0.39965  0.59572  1.0000
  H   H540      1.0  0.14470  0.46562  0.54942  1.0000
  H   H541      1.0  0.40235  0.34435  0.64397  1.0000
  H   H542      1.0  0.03709  0.39000  0.80693  1.0000
  C   C307      1.0  0.02642  0.42155  0.88726  1.0000
  H   H543      1.0  0.99422  0.50216  0.80149  1.0000
  C   C308      1.0  0.99940  0.39190  0.69795  1.0000
  N   N16       1.0  0.32767  0.50601  0.75960  1.0000
  C   C309      1.0  0.33148  0.52156  0.72869  1.0000
  C   C310      1.0  0.34218  0.52178  0.78076  1.0000
  C   C311      1.0  0.33286  0.55055  0.78459  1.0000
  C   C312      1.0  0.31688  0.51008  0.70353  1.0000
  C   C313      1.0  0.32438  0.52625  0.67291  1.0000
  C   C314      1.0  0.34539  0.56213  0.81071  1.0000
  H   H544      1.0  0.36192  0.48286  0.74704  1.0000
  H   H545      1.0  0.32406  0.54207  0.72962  1.0000
  H   H546      1.0  0.35324  0.52405  0.72074  1.0000
  H   H547      1.0  0.36392  0.52358  0.77310  1.0000
  H   H548      1.0  0.28759  0.52057  0.76305  1.0000
  H   H549      1.0  0.28703  0.47350  0.73931  1.0000
  H   H550      1.0  0.31083  0.55089  0.78926  1.0000
  H   H551      1.0  0.33932  0.56418  0.76393  1.0000
  H   H552      1.0  0.32194  0.48911  0.70116  1.0000
  H   H553      1.0  0.29493  0.51114  0.70861  1.0000
  H   H554      1.0  0.34632  0.52662  0.66667  1.0000
  H   H555      1.0  0.31438  0.51695  0.65512  1.0000
  H   H556      1.0  0.31786  0.54714  0.67357  1.0000
  H   H557      1.0  0.33936  0.54982  0.83248  1.0000
  H   H558      1.0  0.36754  0.56285  0.80649  1.0000
  H   H559      1.0  0.33877  0.58282  0.81280  1.0000
  N   N17       1.0  0.02491  0.48750  0.77055  1.0000
  C   C315      1.0  0.04194  0.49628  0.74129  1.0000
  C   C316      1.0  0.04221  0.47913  0.79557  1.0000
  C   C317      1.0  0.00822  0.46318  0.76526  1.0000
  C   C318      1.0  0.00616  0.50883  0.77968  1.0000
  C   C319      1.0  0.28736  0.35798  0.62973  1.0000
  H   H560      1.0  0.44185  0.39465  0.74515  1.0000
  C   C320      1.0  0.06964  0.49412  0.79538  1.0000
  C   C321      1.0  0.08188  0.48729  0.82511  1.0000
  C   C322      1.0  0.13552  0.39005  0.54048  1.0000
  H   H561      1.0  0.05413  0.47938  0.73416  1.0000
  H   H562      1.0  0.05675  0.51235  0.74419  1.0000
  H   H563      1.0  0.03086  0.48010  0.81816  1.0000
  H   H564      1.0  0.04739  0.45772  0.79490  1.0000
  H   H565      1.0  0.02135  0.44813  0.75536  1.0000
  H   H566      1.0  0.00809  0.33296  0.97402  1.0000
  H   H567      1.0  0.18448  0.39534  0.77895  1.0000
  H   H568      1.0  0.01727  0.34648  0.61351  1.0000
  H   H569      1.0  0.98973  0.31966  0.81104  1.0000
  H   H570      1.0  0.29801  0.32459  0.54379  1.0000
  H   H571      1.0  0.46438  0.33473  0.79410  1.0000
  C   C323      1.0  0.46122  0.40213  0.79966  1.0000
  H   H572      1.0  0.08371  0.48791  0.77673  1.0000
  H   H573      1.0  0.06827  0.51610  0.79200  1.0000
  H   H574      1.0  0.08356  0.46532  0.82969  1.0000
  C   C324      1.0  0.47201  0.43130  0.87700  1.0000
  C   C325      1.0  0.02771  0.37313  0.88631  1.0000
  H   H575      1.0  0.20587  0.38514  0.80771  1.0000
  H   H576      1.0  0.05181  0.63705  0.88972  1.0000
  H   H577      1.0  0.99193  0.40935  0.77611  1.0000
  H   H578      1.0  0.34049  0.51110  0.80392  1.0000
  H   H579      1.0  0.05261  0.37256  0.77635  1.0000
  C   C326      1.0  0.43872  0.37798  0.76350  1.0000
  H   H580      1.0  0.05924  0.39787  0.89997  1.0000
  H   H581      1.0  0.02119  0.53555  0.98764  1.0000
  C   C327      1.0  0.25284  0.47931  0.76993  1.0000
  H   H582      1.0  0.01934  0.35478  0.70487  1.0000
  C   C328      1.0  0.31043  0.44242  0.59715  1.0000
  C   C329      1.0  0.01323  0.61756  0.88856  1.0000
  C   C330      1.0  0.18606  0.38146  0.79956  1.0000
  H   H583      1.0  0.06686  0.46057  0.60633  1.0000
  C   C331      1.0  0.13595  0.38237  0.81318  1.0000
  C   C332      1.0  0.05064  0.40647  0.61643  1.0000
  H   H584      1.0  0.13237  0.44677  0.90444  1.0000
  C   C333      1.0  0.02149  0.37636  0.70342  1.0000
  C   C334      1.0  0.43266  0.34798  0.82539  1.0000
  Fe  Fe40      1.0  0.01474  0.48625  0.90090  1.0000
  H   H585      1.0  0.24064  0.34448  0.66576  1.0000
  H   H586      1.0  0.13548  0.36397  0.80114  1.0000
  C   C335      1.0  0.06907  0.35559  0.96305  1.0000
  S   S86       1.0  0.00207  0.51302  0.86223  1.0000
  H   H587      1.0  0.03280  0.54420  0.76344  1.0000
  H   H588      1.0  0.28893  0.45920  0.77706  1.0000
  H   H589      1.0  0.06855  0.44949  0.64593  1.0000
  H   H590      1.0  0.22395  0.40796  0.60218  1.0000
  N   N18       1.0  0.11235  0.38229  0.83685  1.0000
  N   N19       1.0  0.31580  0.36498  0.61668  1.0000
  C   C336      1.0  0.10982  0.40958  0.84857  1.0000
  C   C337      1.0  0.08740  0.37625  0.82198  1.0000
  H   H591      1.0  0.44147  0.40323  0.81295  1.0000
  H   H592      1.0  0.18498  0.36051  0.79358  1.0000
  C   C338      1.0  0.11572  0.33171  0.85415  1.0000
  C   C339      1.0  0.08019  0.39770  0.79684  1.0000
  C   C340      1.0  0.12361  0.41450  0.87734  1.0000
  C   C341      1.0  0.12293  0.44393  0.88341  1.0000
  H   H593      1.0  0.11292  0.40258  0.89744  1.0000
  H   H594      1.0  0.28484  0.41386  0.62607  1.0000
  C   C342      1.0  0.05255  0.39153  0.78719  1.0000
  H   H595      1.0  0.23909  0.40043  0.54954  1.0000
  H   H596      1.0  0.03291  0.44452  0.99981  1.0000
  H   H597      1.0  0.10847  0.33602  0.75799  1.0000
  C   C343      1.0  0.03043  0.63936  0.89224  1.0000
  H   H598      1.0  0.40707  0.48078  0.76747  1.0000
  H   H599      1.0  0.46396  0.61739  0.99064  1.0000
  H   H600      1.0  0.23775  0.45204  0.53009  1.0000
  H   H601      1.0  0.44999  0.37154  0.99024  1.0000
  H   H602      1.0  0.44413  0.45147  0.81339  1.0000
  C   C344      1.0  0.06556  0.36175  0.63212  1.0000
  Fe  Fe41      1.0  0.46195  0.54593  0.94071  1.0000
  C   C345      1.0  0.37951  0.39668  0.52664  1.0000
  H   H603      1.0  0.16684  0.40645  0.83060  1.0000
  H   H604      1.0  0.27283  0.36882  0.61648  1.0000
  H   H605      1.0  0.45997  0.47109  0.58765  1.0000
  H   H606      1.0  0.03726  0.32530  0.79257  1.0000
  H   H607      1.0  0.06567  0.37138  0.65356  1.0000
  C   C346      1.0  0.28069  0.36313  0.66330  1.0000
  C   C347      1.0  0.45305  0.45654  0.52998  1.0000
  H   H608      1.0  0.13294  0.36894  0.53797  1.0000
  C   C348      1.0  0.33395  0.35128  0.63797  1.0000
  H   H609      1.0  0.04018  0.41908  0.59979  1.0000
  H   H610      1.0  0.01710  0.52621  0.71916  1.0000
  H   H611      1.0  0.08690  0.36229  0.62264  1.0000
  H   H612      1.0  0.03938  0.45123  0.95945  1.0000
  C   C349      1.0  0.01995  0.36806  0.61621  1.0000
  H   H613      1.0  0.01050  0.41131  0.96927  1.0000
  H   H614      1.0  0.14114  0.31795  0.88909  1.0000
  N   N20       1.0  0.46178  0.37745  0.78277  1.0000
  H   H615      1.0  0.98504  0.55125  0.81004  1.0000
  H   H616      1.0  0.04519  0.60578  0.80966  1.0000
  H   H617      1.0  0.08640  0.35883  0.52613  1.0000
  H   H618      1.0  0.28250  0.33637  0.62821  1.0000
  C   C350      1.0  0.37043  0.42205  0.51810  1.0000
  H   H619      1.0  0.99860  0.42510  0.54515  1.0000
  H   H620      1.0  0.03743  0.33113  0.65691  1.0000
  H   H621      1.0  0.01258  0.37003  0.64026  1.0000
  H   H622      1.0  0.99364  0.46837  0.74863  1.0000
  H   H623      1.0  0.47209  0.47434  0.87309  1.0000
  H   H624      1.0  0.05216  0.39274  0.01239  1.0000
  C   C351      1.0  0.05300  0.34628  0.99381  1.0000
  C   C352      1.0  0.00039  0.38278  0.59613  1.0000
  H   H625      1.0  0.29324  0.35301  0.51746  1.0000
  H   H626      1.0  0.46458  0.47187  0.78428  1.0000
  H   H627      1.0  0.45083  0.44007  0.97982  1.0000
  H   H628      1.0  0.06133  0.52902  0.68884  1.0000
  H   H629      1.0  0.05623  0.49512  0.67938  1.0000
  C   C353      1.0  0.32070  0.35346  0.58661  1.0000
  H   H630      1.0  0.98569  0.43202  0.69251  1.0000
  C   C354      1.0  0.47074  0.37157  0.99676  1.0000
  C   C355      1.0  0.05858  0.34750  0.56638  1.0000
  H   H631      1.0  0.05249  0.57863  0.97205  1.0000
  H   H632      1.0  0.04182  0.63824  0.97551  1.0000
  C   C356      1.0  0.46466  0.45004  0.58428  1.0000
  H   H633      1.0  0.44845  0.45418  0.94153  1.0000
  C   C357      1.0  0.38078  0.34248  0.65229  1.0000
  C   C358      1.0  0.30540  0.34531  0.53562  1.0000
  H   H634      1.0  0.05506  0.60421  0.94048  1.0000
  N   N21       1.0  0.02721  0.36003  0.00111  1.0000
  H   H635      1.0  0.10625  0.33886  0.97638  1.0000
  H   H636      1.0  0.42859  0.36469  0.83954  1.0000
  C   C359      1.0  0.46361  0.45280  0.79920  1.0000
  C   C360      1.0  0.05046  0.62379  0.79345  1.0000
  H   H637      1.0  0.13187  0.32996  0.83579  1.0000
  H   H638      1.0  0.99834  0.35322  0.79484  1.0000
  C   C361      1.0  0.05672  0.33211  0.64233  1.0000
  C   C362      1.0  0.45975  0.35305  0.80551  1.0000
  C   C363      1.0  0.00862  0.35469  0.97754  1.0000
  C   C364      1.0  0.98262  0.43948  0.54275  1.0000
  H   H639      1.0  0.06703  0.34905  0.01114  1.0000
  H   H640      1.0  0.09716  0.31914  0.64802  1.0000
  H   H641      1.0  0.99051  0.43924  0.87346  1.0000
  H   H642      1.0  0.31860  0.33118  0.59021  1.0000
  H   H643      1.0  0.47579  0.40103  0.81693  1.0000
  C   C365      1.0  0.01451  0.53518  0.01137  1.0000
  H   H644      1.0  0.03320  0.62794  0.78020  1.0000
  C   C366      1.0  0.22184  0.43675  0.52755  1.0000
  C   C367      1.0  0.98917  0.39644  0.87113  1.0000
  H   H645      1.0  0.00468  0.46883  0.56482  1.0000
  H   H646      1.0  0.46785  0.62489  0.95016  1.0000
  C   C368      1.0  0.99814  0.55719  0.78883  1.0000
  H   H647      1.0  0.05146  0.36059  0.51988  1.0000
  N   N22       1.0  0.98512  0.62187  0.99523  1.0000
  C   C369      1.0  0.47453  0.44757  0.55120  1.0000
  H   H648      1.0  0.07316  0.64170  0.82497  1.0000
  H   H649      1.0  0.04897  0.32424  0.99471  1.0000
  H   H650      1.0  0.27477  0.41473  0.51938  1.0000
  C   C370      1.0  0.13597  0.43636  0.51906  1.0000
  C   C371      1.0  0.98447  0.45893  0.56693  1.0000
  H   H651      1.0  0.47936  0.42634  0.54942  1.0000
  H   H652      1.0  0.06655  0.32864  0.52476  1.0000
  C   C372      1.0  0.13281  0.40905  0.51587  1.0000
  H   H653      1.0  0.98053  0.44796  0.58983  1.0000
  H   H654      1.0  0.47780  0.35076  0.99797  1.0000
  C   C373      1.0  0.05673  0.64751  0.81101  1.0000
  H   H655      1.0  0.00704  0.81931  0.37589  1.0000
  C   C374      1.0  0.99824  0.84457  0.32210  1.0000
  S   S87       1.0  0.10447  0.91840  0.35656  1.0000
  H   H656      1.0  0.45732  0.86183  0.48132  1.0000
  Fe  Fe42      1.0  0.10730  0.93452  0.43968  1.0000
  S   S88       1.0  0.10842  0.89252  0.42646  1.0000
  S   S89       1.0  0.10975  0.94815  0.48633  1.0000
  Fe  Fe43      1.0  0.13714  0.90989  0.38707  1.0000
  S   S90       1.0  0.17356  0.88610  0.37323  1.0000
  Fe  Fe44      1.0  0.07587  0.90469  0.39722  1.0000
  S   S91       1.0  0.03987  0.87757  0.39295  1.0000
  C   C375      1.0  0.46226  0.88332  0.39672  1.0000
  H   H657      1.0  0.06223  0.66399  0.19499  1.0000
  Fe  Fe45      1.0  0.35425  0.86815  0.46084  1.0000
  S   S92       1.0  0.35498  0.90970  0.43802  1.0000
  Fe  Fe46      1.0  0.36070  0.84386  0.40030  1.0000
  S   S93       1.0  0.36198  0.88389  0.37300  1.0000
  S   S94       1.0  0.36313  0.80281  0.38361  1.0000
  Fe  Fe47      1.0  0.38886  0.89632  0.40721  1.0000
  S   S95       1.0  0.42578  0.92357  0.39784  1.0000
  Fe  Fe48      1.0  0.32771  0.89321  0.40661  1.0000
  S   S96       1.0  0.29246  0.91906  0.39685  1.0000
  S   S97       1.0  0.38996  0.85567  0.43217  1.0000
  S   S98       1.0  0.32472  0.85221  0.43166  1.0000
  C   C376      1.0  0.45676  0.84211  0.11095  1.0000
  S   S99       1.0  0.43051  0.79535  0.18863  1.0000
  S   S100      1.0  0.02466  0.84680  0.21286  1.0000
  C   C377      1.0  0.02371  0.84805  0.02964  1.0000
  S   S101      1.0  0.42775  0.72950  0.19087  1.0000
  S   S102      1.0  0.03521  0.71230  0.20557  1.0000
  Fe  Fe49      1.0  0.44248  0.76431  0.15738  1.0000
  S   S103      1.0  0.43246  0.76907  0.10883  1.0000
  Fe  Fe50      1.0  0.41987  0.76079  0.22365  1.0000
  S   S104      1.0  0.38073  0.76135  0.25337  1.0000
  S   S105      1.0  0.01364  0.78242  0.17386  1.0000
  H   H658      1.0  0.27592  0.88325  0.46534  1.0000
  C   C378      1.0  0.36883  0.79305  0.34662  1.0000
  C   C379      1.0  0.36581  0.76577  0.34320  1.0000
  C   C380      1.0  0.37005  0.75642  0.31461  1.0000
  C   C381      1.0  0.37827  0.77406  0.28906  1.0000
  C   C382      1.0  0.38083  0.80159  0.29214  1.0000
  C   C383      1.0  0.37588  0.81115  0.32095  1.0000
  H   H659      1.0  0.35991  0.75170  0.36281  1.0000
  H   H660      1.0  0.36703  0.73531  0.31231  1.0000
  H   H661      1.0  0.38591  0.81547  0.27220  1.0000
  H   H662      1.0  0.37760  0.83232  0.32337  1.0000
  C   C384      1.0  0.00932  0.89354  0.38962  1.0000
  C   C385      1.0  0.00856  0.92121  0.38247  1.0000
  H   H663      1.0  0.42562  0.82252  0.48028  1.0000
  C   C386      1.0  0.45770  0.91038  0.39945  1.0000
  H   H664      1.0  0.43730  0.81819  0.27079  1.0000
  C   C387      1.0  0.45284  0.89019  0.18453  1.0000
  H   H665      1.0  0.02690  0.93333  0.37918  1.0000
  C   C388      1.0  0.99316  0.69944  0.09600  1.0000
  H   H666      1.0  0.44569  0.86962  0.39474  1.0000
  H   H667      1.0  0.31554  0.91380  0.50242  1.0000
  C   C389      1.0  0.20609  0.89530  0.38166  1.0000
  C   C390      1.0  0.21325  0.92170  0.38584  1.0000
  C   C391      1.0  0.23970  0.92858  0.39083  1.0000
  C   C392      1.0  0.25916  0.90911  0.39212  1.0000
  C   C393      1.0  0.25179  0.88258  0.38891  1.0000
  C   C394      1.0  0.22547  0.87575  0.38340  1.0000
  H   H668      1.0  0.19860  0.93698  0.38439  1.0000
  H   H669      1.0  0.24519  0.94919  0.39331  1.0000
  H   H670      1.0  0.26647  0.86747  0.39052  1.0000
  H   H671      1.0  0.21998  0.85520  0.38071  1.0000
  H   H672      1.0  0.44753  0.84747  0.19289  1.0000
  C   C395      1.0  0.00973  0.92542  0.19753  1.0000
  C   C396      1.0  0.02247  0.90094  0.20044  1.0000
  C   C397      1.0  0.00758  0.87688  0.20830  1.0000
  H   H673      1.0  0.01549  0.77020  0.44214  1.0000
  H   H674      1.0  0.18676  0.91679  0.44596  1.0000
  H   H675      1.0  0.02141  0.94383  0.19199  1.0000
  H   H676      1.0  0.04393  0.90054  0.19628  1.0000
  C   C398      1.0  0.44101  0.80223  0.38044  1.0000
  C   C399      1.0  0.45084  0.86392  0.50551  1.0000
  C   C400      1.0  0.11078  0.89716  0.51494  1.0000
  H   H677      1.0  0.32019  0.91043  0.33290  1.0000
  H   H678      1.0  0.43259  0.93377  0.27852  1.0000
  H   H679      1.0  0.44257  0.91691  0.24523  1.0000
  H   H680      1.0  0.12150  0.94549  0.29846  1.0000
  C   C401      1.0  0.02072  0.92415  0.10848  1.0000
  C   C402      1.0  0.00934  0.84716  0.06156  1.0000
  H   H681      1.0  0.15573  0.87203  0.49450  1.0000
  H   H682      1.0  0.01158  0.80673  0.30992  1.0000
  Fe  Fe51      1.0  0.10305  0.95853  0.37494  1.0000
  C   C403      1.0  0.44913  0.68373  0.06779  1.0000
  C   C404      1.0  0.47026  0.91253  0.18403  1.0000
  C   C405      1.0  0.45497  0.78660  0.05180  1.0000
  H   H683      1.0  0.42566  0.78618  0.37918  1.0000
  C   C406      1.0  0.26404  0.86401  0.46963  1.0000
  C   C407      1.0  0.02096  0.76903  0.07004  1.0000
  H   H684      1.0  0.43514  0.79275  0.04756  1.0000
  H   H685      1.0  0.13379  0.92679  0.23489  1.0000
  H   H686      1.0  0.04147  0.76452  0.07313  1.0000
  H   H687      1.0  0.12376  0.95909  0.24327  1.0000
  H   H688      1.0  0.10669  0.89002  0.49368  1.0000
  H   H689      1.0  0.03234  0.82300  0.12364  1.0000
  H   H690      1.0  0.04643  0.71808  0.05306  1.0000
  Fe  Fe52      1.0  0.47172  0.79211  0.20327  1.0000
  H   H691      1.0  0.99232  0.71474  0.07642  1.0000
  H   H692      1.0  0.41772  0.69800  0.04124  1.0000
  H   H693      1.0  0.06694  0.94296  0.16263  1.0000
  C   C408      1.0  0.46251  0.65110  0.21527  1.0000
  N   N23       1.0  0.09161  0.92884  0.25008  1.0000
  C   C409      1.0  0.07477  0.93864  0.27630  1.0000
  H   H694      1.0  0.41281  0.72936  0.34110  1.0000
  C   C410      1.0  0.43974  0.70166  0.04077  1.0000
  H   H695      1.0  0.28055  0.92067  0.50620  1.0000
  C   C411      1.0  0.98190  0.92601  0.20188  1.0000
  C   C412      1.0  0.04407  0.93612  0.27513  1.0000
  H   H696      1.0  0.11728  0.68631  0.12487  1.0000
  H   H697      1.0  0.10280  0.71745  0.13441  1.0000
  H   H698      1.0  0.21598  0.94676  0.47551  1.0000
  N   N24       1.0  0.00857  0.87323  0.10969  1.0000
  C   C413      1.0  0.02910  0.93673  0.30652  1.0000
  H   H699      1.0  0.44993  0.86266  0.11370  1.0000
  H   H700      1.0  0.07977  0.96006  0.27773  1.0000
  H   H701      1.0  0.07965  0.92850  0.29818  1.0000
  C   C414      1.0  0.17628  0.86937  0.48394  1.0000
  H   H702      1.0  0.43775  0.77921  0.29553  1.0000
  C   C415      1.0  0.10104  0.69529  0.13881  1.0000
  H   H703      1.0  0.06175  0.93720  0.21886  1.0000
  C   C416      1.0  0.08833  0.89885  0.24918  1.0000
  C   C417      1.0  0.47930  0.92792  0.40206  1.0000
  H   H704      1.0  0.46613  0.93595  0.05573  1.0000
  H   H705      1.0  0.98898  0.85790  0.27645  1.0000
  H   H706      1.0  0.03749  0.95316  0.26018  1.0000
  H   H707      1.0  0.03810  0.91734  0.26590  1.0000
  C   C418      1.0  0.06956  0.69184  0.09815  1.0000
  H   H708      1.0  0.43253  0.89291  0.17913  1.0000
  H   H709      1.0  0.01015  0.88080  0.29308  1.0000
  H   H710      1.0  0.47465  0.96232  0.26838  1.0000
  N   N25       1.0  0.19381  0.89348  0.48779  1.0000
  H   H711      1.0  0.10602  0.89110  0.23627  1.0000
  H   H712      1.0  0.22288  0.88934  0.44956  1.0000
  H   H713      1.0  0.99484  0.90003  0.14285  1.0000
  C   C419      1.0  0.13231  0.93352  0.28190  1.0000
  H   H714      1.0  0.07014  0.84600  0.25931  1.0000
  H   H715      1.0  0.45543  0.83044  0.13351  1.0000
  H   H716      1.0  0.03441  0.95538  0.31651  1.0000
  H   H717      1.0  0.00725  0.93592  0.30493  1.0000
  H   H718      1.0  0.47115  0.68259  0.06577  1.0000
  H   H719      1.0  0.03779  0.77199  0.40776  1.0000
  C   C420      1.0  0.01385  0.87392  0.07564  1.0000
  C   C421      1.0  0.46608  0.79933  0.35785  1.0000
  H   H720      1.0  0.02351  0.64979  0.07414  1.0000
  H   H721      1.0  0.47248  0.91632  0.30117  1.0000
  H   H722      1.0  0.08403  0.68773  0.03789  1.0000
  C   C422      1.0  0.16161  0.94319  0.27909  1.0000
  H   H723      1.0  0.16524  0.87988  0.43798  1.0000
  C   C423      1.0  0.15527  0.83847  0.45027  1.0000
  H   H724      1.0  0.45065  0.90788  0.46716  1.0000
  H   H725      1.0  0.07118  0.89393  0.23641  1.0000
  C   C424      1.0  0.44809  0.80027  0.41312  1.0000
  H   H726      1.0  0.00986  0.77059  0.11729  1.0000
  H   H727      1.0  0.07462  0.71365  0.09244  1.0000
  C   C425      1.0  0.44232  0.77748  0.31943  1.0000
  Fe  Fe53      1.0  0.00148  0.80775  0.21116  1.0000
  H   H728      1.0  0.16069  0.91765  0.47561  1.0000
  C   C426      1.0  0.03661  0.65531  0.09152  1.0000
  C   C427      1.0  0.42959  0.72787  0.32331  1.0000
  H   H729      1.0  0.44318  0.83218  0.09685  1.0000
  C   C428      1.0  0.99663  0.78186  0.40136  1.0000
  H   H730      1.0  0.45098  0.71386  0.09972  1.0000
  C   C429      1.0  0.06322  0.68369  0.03298  1.0000
  C   C430      1.0  0.44750  0.83399  0.28168  1.0000
  H   H731      1.0  0.05862  0.69409  0.14698  1.0000
  H   H732      1.0  0.03107  0.64985  0.14182  1.0000
  C   C431      1.0  0.44451  0.93578  0.25606  1.0000
  C   C432      1.0  0.99683  0.67084  0.21854  1.0000
  Fe  Fe54      1.0  0.46942  0.73025  0.20493  1.0000
  H   H733      1.0  0.03062  0.92323  0.08530  1.0000
  H   H734      1.0  0.41436  0.95418  0.47148  1.0000
  H   H735      1.0  0.99137  0.83261  0.11870  1.0000
  H   H736      1.0  0.42793  0.82611  0.32697  1.0000
  H   H737      1.0  0.08527  0.68102  0.08557  1.0000
  H   H738      1.0  0.47241  0.95172  0.10549  1.0000
  C   C433      1.0  0.43615  0.95898  0.47048  1.0000
  H   H739      1.0  0.41136  0.85687  0.28632  1.0000
  H   H740      1.0  0.16336  0.82046  0.46205  1.0000
  C   C434      1.0  0.07000  0.83510  0.13733  1.0000
  C   C435      1.0  0.45177  0.74867  0.32599  1.0000
  C   C436      1.0  0.44878  0.82617  0.31613  1.0000
  C   C437      1.0  0.23761  0.86737  0.48853  1.0000
  S   S106      1.0  0.45802  0.94462  0.17527  1.0000
  C   C438      1.0  0.04268  0.69596  0.05565  1.0000
  N   N26       1.0  0.29318  0.83233  0.31838  1.0000
  C   C439      1.0  0.29590  0.81028  0.34325  1.0000
  C   C440      1.0  0.30613  0.82475  0.28835  1.0000
  C   C441      1.0  0.30812  0.85701  0.32595  1.0000
  C   C442      1.0  0.26444  0.83930  0.31605  1.0000
  C   C443      1.0  0.24459  0.81591  0.31280  1.0000
  C   C444      1.0  0.28436  0.81550  0.37557  1.0000
  C   C445      1.0  0.30869  0.88181  0.30214  1.0000
  C   C446      1.0  0.30579  0.79461  0.28309  1.0000
  C   C447      1.0  0.31575  0.79071  0.25038  1.0000
  C   C448      1.0  0.21600  0.82551  0.31324  1.0000
  C   C449      1.0  0.28528  0.79056  0.39786  1.0000
  C   C450      1.0  0.32684  0.90446  0.31006  1.0000
  H   H741      1.0  0.31734  0.80603  0.34431  1.0000
  H   H742      1.0  0.28638  0.79119  0.33840  1.0000
  H   H743      1.0  0.29727  0.83582  0.26913  1.0000
  H   H744      1.0  0.32778  0.83098  0.28529  1.0000
  H   H745      1.0  0.32914  0.85222  0.32964  1.0000
  H   H746      1.0  0.29924  0.86393  0.34752  1.0000
  H   H747      1.0  0.25669  0.84973  0.33585  1.0000
  H   H748      1.0  0.26289  0.85403  0.29610  1.0000
  H   H749      1.0  0.24476  0.79976  0.33153  1.0000
  H   H750      1.0  0.24942  0.80767  0.29082  1.0000
  H   H751      1.0  0.29636  0.83150  0.38401  1.0000
  H   H752      1.0  0.26325  0.82128  0.37605  1.0000
  H   H753      1.0  0.28838  0.88976  0.30144  1.0000
  H   H754      1.0  0.31601  0.87691  0.27912  1.0000
  H   H755      1.0  0.31930  0.78380  0.29793  1.0000
  H   H756      1.0  0.28562  0.78496  0.28807  1.0000
  H   H757      1.0  0.30190  0.79950  0.23455  1.0000
  H   H758      1.0  0.33603  0.80016  0.24424  1.0000
  H   H759      1.0  0.31698  0.76898  0.24775  1.0000
  H   H760      1.0  0.20213  0.80851  0.31044  1.0000
  H   H761      1.0  0.20964  0.83349  0.33511  1.0000
  H   H762      1.0  0.21438  0.84141  0.29448  1.0000
  H   H763      1.0  0.27782  0.79521  0.42098  1.0000
  H   H764      1.0  0.27252  0.77401  0.39146  1.0000
  H   H765      1.0  0.30609  0.78390  0.39840  1.0000
  H   H766      1.0  0.34786  0.89822  0.30943  1.0000
  H   H767      1.0  0.32602  0.92219  0.29334  1.0000
  H   H768      1.0  0.07926  0.81611  0.13191  1.0000
  H   H769      1.0  0.06290  0.83313  0.16184  1.0000
  H   H770      1.0  0.44656  0.66478  0.21885  1.0000
  H   H771      1.0  0.43627  0.95204  0.24147  1.0000
  H   H772      1.0  0.01210  0.76434  0.30980  1.0000
  H   H773      1.0  0.43744  0.70746  0.32634  1.0000
  H   H774      1.0  0.42215  0.90781  0.49341  1.0000
  H   H775      1.0  0.03404  0.91919  0.32181  1.0000
  C   C451      1.0  0.00570  0.85939  0.29080  1.0000
  H   H776      1.0  0.02709  0.80239  0.42337  1.0000
  H   H777      1.0  0.17388  0.93164  0.26321  1.0000
  S   S107      1.0  0.46059  0.75893  0.24034  1.0000
  S   S108      1.0  0.07243  0.94525  0.41385  1.0000
  H   H778      1.0  0.02287  0.69254  0.04735  1.0000
  H   H779      1.0  0.42972  0.80233  0.42856  1.0000
  H   H780      1.0  0.41858  0.69703  0.10078  1.0000
  H   H781      1.0  0.05480  0.84113  0.09417  1.0000
  H   H782      1.0  0.19215  0.96517  0.43214  1.0000
  H   H783      1.0  0.45650  0.78055  0.41940  1.0000
  C   C452      1.0  0.08286  0.94269  0.22128  1.0000
  N   N27       1.0  0.46136  0.79992  0.32483  1.0000
  H   H784      1.0  0.10350  0.68983  0.16309  1.0000
  C   C453      1.0  0.00014  0.90048  0.11792  1.0000
  C   C454      1.0  0.04147  0.65846  0.20184  1.0000
  H   H785      1.0  0.10483  0.84663  0.26687  1.0000
  H   H786      1.0  0.46271  0.81648  0.41629  1.0000
  H   H787      1.0  0.23454  0.90903  0.47630  1.0000
  C   C455      1.0  0.17382  0.86298  0.45104  1.0000
  H   H788      1.0  0.37072  0.91366  0.49732  1.0000
  H   H789      1.0  0.06292  0.88467  0.29099  1.0000
  C   C456      1.0  0.47623  0.79154  0.02891  1.0000
  H   H790      1.0  0.02111  0.93579  0.49074  1.0000
  H   H791      1.0  0.46071  0.65632  0.02292  1.0000
  C   C457      1.0  0.04667  0.84030  0.11830  1.0000
  H   H792      1.0  0.43904  0.98041  0.47405  1.0000
  C   C458      1.0  0.00895  0.91993  0.50548  1.0000
  C   C459      1.0  0.07367  0.68490  0.13185  1.0000
  C   C460      1.0  0.43244  0.85973  0.27640  1.0000
  H   H793      1.0  0.00856  0.71561  0.31211  1.0000
  H   H794      1.0  0.08543  0.85162  0.13249  1.0000
  C   C461      1.0  0.99246  0.81432  0.31965  1.0000
  H   H795      1.0  0.02255  0.79234  0.35964  1.0000
  C   C462      1.0  0.02079  0.78163  0.41968  1.0000
  H   H796      1.0  0.02951  0.86713  0.14962  1.0000
  H   H797      1.0  0.07295  0.66288  0.13736  1.0000
  H   H798      1.0  0.98279  0.68589  0.22429  1.0000
  C   C463      1.0  0.41785  0.82496  0.50400  1.0000
  H   H799      1.0  0.99719  0.95311  0.13207  1.0000
  H   H800      1.0  0.03469  0.88155  0.06823  1.0000
  H   H801      1.0  0.04953  0.88270  0.11746  1.0000
  C   C464      1.0  0.47382  0.94259  0.25926  1.0000
  H   H802      1.0  0.07879  0.83948  0.29757  1.0000
  H   H803      1.0  0.22615  0.84804  0.49020  1.0000
  H   H804      1.0  0.02810  0.72133  0.10657  1.0000
  H   H805      1.0  0.04012  0.66231  0.30829  1.0000
  H   H806      1.0  0.98168  0.90603  0.10755  1.0000
  H   H807      1.0  0.42212  0.73065  0.30060  1.0000
  C   C465      1.0  0.02346  0.67841  0.20872  1.0000
  H   H808      1.0  0.13156  0.91222  0.29079  1.0000
  H   H809      1.0  0.16370  0.96484  0.27103  1.0000
  H   H810      1.0  0.09931  0.91497  0.18932  1.0000
  H   H811      1.0  0.40905  0.86609  0.49501  1.0000
  H   H812      1.0  0.09765  0.88574  0.29592  1.0000
  H   H813      1.0  0.16934  0.94026  0.30166  1.0000
  H   H814      1.0  0.02268  0.96764  0.10345  1.0000
  H   H815      1.0  0.03630  0.92388  0.12453  1.0000
  C   C466      1.0  0.08773  0.95046  0.16384  1.0000
  H   H816      1.0  0.09998  0.94622  0.14288  1.0000
  C   C467      1.0  0.00311  0.77282  0.09516  1.0000
  C   C468      1.0  0.22219  0.89073  0.47437  1.0000
  C   C469      1.0  0.19388  0.94548  0.47766  1.0000
  C   C470      1.0  0.00014  0.75372  0.32969  1.0000
  C   C471      1.0  0.18477  0.96793  0.45590  1.0000
  H   H817      1.0  0.08342  0.96482  0.22219  1.0000
  C   C472      1.0  0.03360  0.86698  0.12468  1.0000
  H   H818      1.0  0.42265  0.77910  0.33247  1.0000
  C   C473      1.0  0.02159  0.69995  0.10673  1.0000
  H   H819      1.0  0.98081  0.97823  0.29496  1.0000
  H   H820      1.0  0.01342  0.74980  0.34796  1.0000
  H   H821      1.0  0.98768  0.84330  0.06012  1.0000
  H   H822      1.0  0.46854  0.74490  0.30906  1.0000
  H   H823      1.0  0.19354  0.85865  0.43962  1.0000
  C   C474      1.0  0.08309  0.88132  0.27995  1.0000
  C   C475      1.0  0.12063  0.93734  0.25101  1.0000
  C   C476      1.0  0.44871  0.94150  0.49482  1.0000
  H   H824      1.0  0.27598  0.84907  0.48187  1.0000
  N   N28       1.0  0.04232  0.68523  0.08859  1.0000
  C   C477      1.0  0.18285  0.91763  0.47084  1.0000
  H   H825      1.0  0.47026  0.94724  0.49328  1.0000
  H   H826      1.0  0.26032  0.85675  0.44761  1.0000
  C   C478      1.0  0.08430  0.85155  0.27553  1.0000
  C   C479      1.0  0.45938  0.77432  0.08035  1.0000
  C   C480      1.0  0.44050  0.69436  0.09811  1.0000
  H   H827      1.0  0.00107  0.88862  0.06415  1.0000
  S   S109      1.0  0.13803  0.95126  0.40212  1.0000
  Fe  Fe55      1.0  0.00654  0.74654  0.20821  1.0000
  H   H828      1.0  0.44020  0.66314  0.06852  1.0000
  H   H829      1.0  0.01970  0.69239  0.13106  1.0000
  H   H830      1.0  0.13501  0.84187  0.46116  1.0000
  C   C481      1.0  0.09929  0.93680  0.19150  1.0000
  C   C482      1.0  0.98535  0.87811  0.39361  1.0000
  H   H831      1.0  0.44561  0.95586  0.44763  1.0000
  H   H832      1.0  0.08794  0.97251  0.16481  1.0000
  C   C483      1.0  0.01234  0.77042  0.04110  1.0000
  H   H833      1.0  0.15348  0.83479  0.42634  1.0000
  H   H834      1.0  0.02248  0.65927  0.27522  1.0000
  H   H835      1.0  0.98070  0.85420  0.33281  1.0000
  H   H836      1.0  0.44566  0.68010  0.11705  1.0000
  H   H837      1.0  0.02367  0.85091  0.27949  1.0000
  H   H838      1.0  0.43255  0.86542  0.25171  1.0000
  H   H839      1.0  0.43195  0.82190  0.37597  1.0000
  S   S110      1.0  0.99951  0.77252  0.24654  1.0000
  H   H840      1.0  0.12025  0.94452  0.19078  1.0000
  H   H841      1.0  0.99039  0.91584  0.49477  1.0000
  C   C484      1.0  0.00311  0.79849  0.37042  1.0000
  N   N29       1.0  0.98196  0.79782  0.34874  1.0000
  H   H842      1.0  0.05960  0.66171  0.03374  1.0000
  C   C485      1.0  0.98590  0.77659  0.03716  1.0000
  H   H843      1.0  0.02073  0.90156  0.50688  1.0000
  C   C486      1.0  0.44415  0.91137  0.49103  1.0000
  S   S111      1.0  0.34927  0.85884  0.51172  1.0000
  H   H844      1.0  0.44257  0.72277  0.04603  1.0000
  H   H845      1.0  0.99252  0.95320  0.09231  1.0000
  H   H846      1.0  0.45731  0.97022  0.05747  1.0000
  H   H847      1.0  0.44203  0.87632  0.28671  1.0000
  H   H848      1.0  0.24250  0.87172  0.51137  1.0000
  C   C487      1.0  0.47427  0.95654  0.05638  1.0000
  H   H849      1.0  0.01655  0.82971  0.07495  1.0000
  C   C488      1.0  0.46134  0.86431  0.19229  1.0000
  C   C489      1.0  0.00737  0.95108  0.10918  1.0000
  H   H850      1.0  0.98580  0.85686  0.39983  1.0000
  H   H851      1.0  0.45969  0.84299  0.32490  1.0000
  H   H852      1.0  0.45806  0.74513  0.34911  1.0000
  H   H853      1.0  0.47598  0.94888  0.40402  1.0000
  H   H854      1.0  0.98772  0.67967  0.08869  1.0000
  H   H855      1.0  0.47536  0.78056  0.36581  1.0000
  H   H856      1.0  0.46780  0.83772  0.26964  1.0000
  H   H857      1.0  0.16264  0.96843  0.45802  1.0000
  H   H858      1.0  0.01533  0.84757  0.33556  1.0000
  H   H859      1.0  0.39632  0.81870  0.50712  1.0000
  H   H860      1.0  0.98362  0.95469  0.37386  1.0000
  H   H861      1.0  0.18300  0.85091  0.49609  1.0000
  C   C490      1.0  0.98650  0.85333  0.12308  1.0000
  H   H862      1.0  0.18652  0.94973  0.50096  1.0000
  H   H863      1.0  0.04570  0.84933  0.03045  1.0000
  H   H864      1.0  0.00452  0.65535  0.31237  1.0000
  C   C491      1.0  0.02363  0.65141  0.29918  1.0000
  C   C492      1.0  0.99095  0.72665  0.32040  1.0000
  C   C493      1.0  0.42106  0.85414  0.51051  1.0000
  H   H865      1.0  0.98475  0.85231  0.14834  1.0000
  H   H866      1.0  0.47567  0.95764  0.31993  1.0000
  C   C494      1.0  0.98400  0.93329  0.37922  1.0000
  H   H867      1.0  0.99082  0.76082  0.39873  1.0000
  H   H868      1.0  0.01872  0.82945  0.01937  1.0000
  N   N30       1.0  0.45684  0.89207  0.51290  1.0000
  S   S112      1.0  0.37687  0.89545  0.66807  1.0000
  S   S113      1.0  0.30505  0.88557  0.70831  1.0000
  Fe  Fe56      1.0  0.40468  0.91033  0.69975  1.0000
  S   S114      1.0  0.43915  0.88514  0.71223  1.0000
  H   H869      1.0  0.03343  0.68069  0.90217  1.0000
  Fe  Fe57      1.0  0.14970  0.89889  0.69676  1.0000
  S   S115      1.0  0.14938  0.85824  0.67927  1.0000
  S   S116      1.0  0.18531  0.92340  0.70911  1.0000
  Fe  Fe58      1.0  0.08996  0.90559  0.69096  1.0000
  S   S117      1.0  0.08547  0.86611  0.67264  1.0000
  S   S118      1.0  0.05487  0.93241  0.69772  1.0000
  Fe  Fe59      1.0  0.11047  0.85077  0.70882  1.0000
  S   S119      1.0  0.09276  0.81148  0.73189  1.0000
  Fe  Fe60      1.0  0.12411  0.87694  0.64462  1.0000
  S   S120      1.0  0.12723  0.86450  0.59716  1.0000
  S   S121      1.0  0.11256  0.88982  0.72943  1.0000
  S   S122      1.0  0.12697  0.91817  0.65979  1.0000
  H   H870      1.0  0.26473  0.96683  0.64114  1.0000
  S   S123      1.0  0.04160  0.73896  0.93211  1.0000
  H   H871      1.0  0.41842  0.70393  0.98594  1.0000
  C   C495      1.0  0.00505  0.91780  0.60494  1.0000
  S   S124      1.0  0.03553  0.80412  0.93233  1.0000
  H   H872      1.0  0.42974  0.66178  0.00788  1.0000
  Fe  Fe61      1.0  0.04994  0.77567  0.89919  1.0000
  S   S125      1.0  0.08999  0.78735  0.87355  1.0000
  Fe  Fe62      1.0  0.02338  0.76735  0.96350  1.0000
  C   C496      1.0  0.46898  0.78904  0.79944  1.0000
  H   H873      1.0  0.44854  0.71295  0.96323  1.0000
  C   C497      1.0  0.45379  0.87559  0.57018  1.0000
  S   S126      1.0  0.34615  0.95180  0.67398  1.0000
  H   H874      1.0  0.24901  0.92358  0.64255  1.0000
  C   C498      1.0  0.12005  0.88792  0.56746  1.0000
  C   C499      1.0  0.11467  0.87886  0.53980  1.0000
  S   S127      1.0  0.38612  0.94647  0.59435  1.0000
  C   C500      1.0  0.11742  0.93369  0.54541  1.0000
  C   C501      1.0  0.12112  0.91538  0.57036  1.0000
  H   H875      1.0  0.22107  0.93532  0.58411  1.0000
  H   H876      1.0  0.12532  0.92253  0.59157  1.0000
  C   C502      1.0  0.09142  0.80683  0.77142  1.0000
  C   C503      1.0  0.11089  0.81836  0.78701  1.0000
  C   C504      1.0  0.11042  0.81232  0.81849  1.0000
  C   C505      1.0  0.08988  0.79571  0.83446  1.0000
  C   C506      1.0  0.06991  0.78514  0.81893  1.0000
  C   C507      1.0  0.07106  0.79010  0.78738  1.0000
  H   H877      1.0  0.12682  0.83109  0.77469  1.0000
  H   H878      1.0  0.12599  0.82047  0.83047  1.0000
  H   H879      1.0  0.05386  0.77283  0.83128  1.0000
  H   H880      1.0  0.05615  0.78108  0.77524  1.0000
  H   H881      1.0  0.00937  0.65703  0.00087  1.0000
  H   H882      1.0  0.45264  0.77344  0.80253  1.0000
  C   C508      1.0  0.00106  0.93652  0.99064  1.0000
  H   H883      1.0  0.47490  0.86771  0.00465  1.0000
  H   H884      1.0  0.33395  0.91917  0.79037  1.0000
  H   H885      1.0  0.44158  0.81972  0.81153  1.0000
  H   H886      1.0  0.43712  0.92076  0.89658  1.0000
  C   C509      1.0  0.06660  0.97428  0.80689  1.0000
  C   C510      1.0  0.99396  0.82238  0.81642  1.0000
  C   C511      1.0  0.30006  0.92135  0.54788  1.0000
  C   C512      1.0  0.00707  0.91988  0.88743  1.0000
  H   H887      1.0  0.30717  0.94262  0.54314  1.0000
  H   H888      1.0  0.45912  0.94034  0.70843  1.0000
  H   H889      1.0  0.29567  0.85710  0.65612  1.0000
  C   C513      1.0  0.28719  0.95259  0.60112  1.0000
  H   H890      1.0  0.30871  0.95345  0.59214  1.0000
  H   H891      1.0  0.42350  0.89635  0.54651  1.0000
  C   C514      1.0  0.37610  0.92185  0.57160  1.0000
  C   C515      1.0  0.47480  0.90392  0.90542  1.0000
  H   H892      1.0  0.09642  0.73374  0.83952  1.0000
  C   C516      1.0  0.47573  0.92783  0.70325  1.0000
  C   C517      1.0  0.35928  0.87698  0.56561  1.0000
  C   C518      1.0  0.36708  0.89626  0.58423  1.0000
  C   C519      1.0  0.28573  0.96380  0.63241  1.0000
  H   H893      1.0  0.02863  0.81282  0.72658  1.0000
  H   H894      1.0  0.35216  0.85728  0.57561  1.0000
  H   H895      1.0  0.36603  0.89126  0.60834  1.0000
  C   C520      1.0  0.30433  0.85700  0.63228  1.0000
  H   H896      1.0  0.26826  0.93550  0.77228  1.0000
  C   C521      1.0  0.01867  0.88945  0.69967  1.0000
  C   C522      1.0  0.02279  0.91728  0.69703  1.0000
  H   H897      1.0  0.09791  0.93994  0.83791  1.0000
  C   C523      1.0  0.13127  0.97679  0.73079  1.0000
  H   H898      1.0  0.40166  0.74828  0.96262  1.0000
  H   H899      1.0  0.03532  0.87663  0.70180  1.0000
  C   C524      1.0  0.27226  0.89691  0.70569  1.0000
  C   C525      1.0  0.26649  0.92396  0.70589  1.0000
  C   C526      1.0  0.23979  0.93183  0.70664  1.0000
  C   C527      1.0  0.21870  0.91283  0.70631  1.0000
  C   C528      1.0  0.22463  0.88595  0.70488  1.0000
  C   C529      1.0  0.25124  0.87802  0.70494  1.0000
  H   H900      1.0  0.03635  0.90646  0.81272  1.0000
  H   H901      1.0  0.20861  0.87112  0.70473  1.0000
  H   H902      1.0  0.25550  0.85703  0.70486  1.0000
  N   N31       1.0  0.07825  0.94871  0.79725  1.0000
  C   C530      1.0  0.10452  0.95407  0.77797  1.0000
  C   C531      1.0  0.08283  0.93063  0.82511  1.0000
  C   C532      1.0  0.05876  0.93582  0.77882  1.0000
  H   H903      1.0  0.29099  0.90643  0.64142  1.0000
  S   S128      1.0  0.03519  0.76325  0.01098  1.0000
  H   H904      1.0  0.45736  0.91347  0.01226  1.0000
  C   C533      1.0  0.03246  0.92378  0.79660  1.0000
  C   C534      1.0  0.09327  0.90259  0.81927  1.0000
  H   H905      1.0  0.99947  0.74013  0.82877  1.0000
  H   H906      1.0  0.31581  0.91017  0.55851  1.0000
  C   C535      1.0  0.01359  0.91396  0.77492  1.0000
  H   H907      1.0  0.11157  0.93528  0.76907  1.0000
  H   H908      1.0  0.11372  0.85761  0.53754  1.0000
  Fe  Fe63      1.0  0.34369  0.91080  0.69849  1.0000
  H   H909      1.0  0.06432  0.92809  0.84115  1.0000
  H   H910      1.0  0.06825  0.91981  0.76633  1.0000
  H   H911      1.0  0.05281  0.95063  0.76075  1.0000
  H   H912      1.0  0.99201  0.65975  0.96782  1.0000
  H   H913      1.0  0.47100  0.79781  0.77552  1.0000
  H   H914      1.0  0.47580  0.87537  0.57017  1.0000
  H   H915      1.0  0.47843  0.91200  0.84064  1.0000
  C   C536      1.0  0.36036  0.88316  0.53419  1.0000
  H   H916      1.0  0.20553  0.94759  0.64936  1.0000
  H   H917      1.0  0.02185  0.93872  0.80956  1.0000
  H   H918      1.0  0.08076  0.89214  0.80459  1.0000
  C   C537      1.0  0.46415  0.66006  0.97480  1.0000
  H   H919      1.0  0.44623  0.85509  0.56744  1.0000
  C   C538      1.0  0.20142  0.93913  0.62809  1.0000
  H   H920      1.0  0.98322  0.96628  0.61502  1.0000
  C   C539      1.0  0.28894  0.87526  0.61133  1.0000
  H   H921      1.0  0.42043  0.74517  0.01183  1.0000
  H   H922      1.0  0.26364  0.89906  0.56768  1.0000
  H   H923      1.0  0.02226  0.77781  0.72349  1.0000
  H   H924      1.0  0.02313  0.89859  0.76162  1.0000
  H   H925      1.0  0.29196  0.88853  0.52103  1.0000
  H   H926      1.0  0.00021  0.80155  0.82166  1.0000
  C   C540      1.0  0.47131  0.90022  0.70310  1.0000
  H   H927      1.0  0.20481  0.85765  0.53861  1.0000
  H   H928      1.0  0.02930  0.88905  0.58044  1.0000
  H   H929      1.0  0.11402  0.90444  0.80808  1.0000
  C   C541      1.0  0.46028  0.81124  0.81896  1.0000
  C   C542      1.0  0.02013  0.66409  0.89921  1.0000
  C   C543      1.0  0.35404  0.95405  0.80206  1.0000
  C   C544      1.0  0.02292  0.89839  0.89554  1.0000
  C   C545      1.0  0.43861  0.71353  0.98648  1.0000
  H   H930      1.0  0.10981  0.70689  0.78550  1.0000
  H   H931      1.0  0.27713  0.87329  0.77032  1.0000
  H   H932      1.0  0.02705  0.92880  0.95061  1.0000
  C   C546      1.0  0.44228  0.88265  0.60135  1.0000
  C   C547      1.0  0.37748  0.92795  0.54012  1.0000
  C   C548      1.0  0.19261  0.89811  0.52094  1.0000
  N   N32       1.0  0.27544  0.92461  0.60100  1.0000
  H   H933      1.0  0.02140  0.96384  0.95409  1.0000
  H   H934      1.0  0.08946  0.98134  0.84534  1.0000
  H   H935      1.0  0.23946  0.90090  0.61774  1.0000
  H   H936      1.0  0.28176  0.94552  0.83609  1.0000
  H   H937      1.0  0.23434  0.96188  0.60322  1.0000
  H   H938      1.0  0.44615  0.94220  0.96099  1.0000
  C   C549      1.0  0.27338  0.91910  0.56862  1.0000
  S   S129      1.0  0.02154  0.95273  0.88191  1.0000
  H   H939      1.0  0.27763  0.96699  0.58534  1.0000
  C   C550      1.0  0.11254  0.92463  0.51757  1.0000
  H   H940      1.0  0.06669  0.88825  0.61181  1.0000
  C   C551      1.0  0.44569  0.89611  0.54475  1.0000
  C   C552      1.0  0.02559  0.89537  0.60357  1.0000
  H   H941      1.0  0.31482  0.91061  0.60961  1.0000
  C   C553      1.0  0.01942  0.83950  0.80394  1.0000
  H   H942      1.0  0.26022  0.93357  0.55754  1.0000
  C   C554      1.0  0.10430  0.97488  0.75000  1.0000
  H   H943      1.0  0.00390  0.95496  0.69280  1.0000
  C   C555      1.0  0.45812  0.92497  0.89811  1.0000
  S   S130      1.0  0.01103  0.77206  0.87895  1.0000
  C   C556      1.0  0.99273  0.87807  0.70040  1.0000
  C   C557      1.0  0.01200  0.87203  0.90003  1.0000
  H   H944      1.0  0.38446  0.94769  0.53013  1.0000
  C   C558      1.0  0.09371  0.88475  0.84894  1.0000
  H   H945      1.0  0.01431  0.85952  0.79436  1.0000
  H   H946      1.0  0.17449  0.90939  0.52748  1.0000
  S   S131      1.0  0.47853  0.79848  0.94311  1.0000
  H   H947      1.0  0.06781  0.71732  0.99800  1.0000
  H   H948      1.0  0.35864  0.97521  0.87413  1.0000
  H   H949      1.0  0.29812  0.91993  0.75988  1.0000
  C   C559      1.0  0.24794  0.92152  0.61805  1.0000
  H   H950      1.0  0.26757  0.86875  0.61552  1.0000
  H   H951      1.0  0.45719  0.67194  0.95505  1.0000
  Fe  Fe64      1.0  0.37607  0.96153  0.70627  1.0000
  C   C560      1.0  0.06153  0.69577  0.00046  1.0000
  C   C561      1.0  0.99258  0.66756  0.90149  1.0000
  H   H952      1.0  0.44839  0.86786  0.61927  1.0000
  C   C562      1.0  0.32803  0.93630  0.80344  1.0000
  H   H953      1.0  0.00031  0.92103  0.62927  1.0000
  H   H954      1.0  0.45345  0.75388  0.99378  1.0000
  H   H955      1.0  0.99345  0.88805  0.55557  1.0000
  C   C563      1.0  0.00232  0.92923  0.53695  1.0000
  C   C564      1.0  0.00077  0.93353  0.69513  1.0000
  H   H956      1.0  0.10653  0.89410  0.86428  1.0000
  H   H957      1.0  0.04366  0.90216  0.89879  1.0000
  C   C565      1.0  0.29334  0.90517  0.61651  1.0000
  C   C566      1.0  0.26341  0.88161  0.78781  1.0000
  H   H958      1.0  0.41237  0.85549  0.53409  1.0000
  H   H959      1.0  0.06126  0.92194  0.59693  1.0000
  H   H960      1.0  0.45912  0.87344  0.79600  1.0000
  H   H961      1.0  0.47371  0.67779  0.82183  1.0000
  H   H962      1.0  0.28254  0.93867  0.70625  1.0000
  H   H963      1.0  0.44658  0.69312  0.88333  1.0000
  N   N33       1.0  0.06839  0.69924  0.80331  1.0000
  C   C567      1.0  0.07729  0.69416  0.83469  1.0000
  C   C568      1.0  0.06540  0.67305  0.78930  1.0000
  C   C569      1.0  0.09012  0.71632  0.78408  1.0000
  C   C570      1.0  0.04292  0.71430  0.80321  1.0000
  C   C571      1.0  0.01863  0.70204  0.82435  1.0000
  C   C572      1.0  0.08161  0.71901  0.85209  1.0000
  H   H964      1.0  0.00820  0.93084  0.75906  1.0000
  H   H965      1.0  0.45631  0.80316  0.84313  1.0000
  Fe  Fe65      1.0  0.99606  0.79869  0.91420  1.0000
  C   C573      1.0  0.09247  0.71092  0.88238  1.0000
  H   H966      1.0  0.09630  0.68327  0.83344  1.0000
  H   H967      1.0  0.06268  0.68083  0.84970  1.0000
  H   H968      1.0  0.05122  0.67502  0.77158  1.0000
  C   C574      1.0  0.98149  0.82033  0.76392  1.0000
  H   H969      1.0  0.04652  0.73501  0.80893  1.0000
  H   H970      1.0  0.03627  0.71653  0.78008  1.0000
  H   H971      1.0  0.02319  0.69998  0.84821  1.0000
  H   H972      1.0  0.04326  0.94602  0.97795  1.0000
  H   H973      1.0  0.06249  0.72900  0.85677  1.0000
  H   H974      1.0  0.06878  0.73555  0.74743  1.0000
  H   H975      1.0  0.08228  0.70392  0.73913  1.0000
  H   H976      1.0  0.44075  0.86099  0.84978  1.0000
  H   H977      1.0  0.43003  0.89485  0.85214  1.0000
  H   H978      1.0  0.98789  0.97553  0.74062  1.0000
  H   H979      1.0  0.46727  0.88724  0.97087  1.0000
  C   C575      1.0  0.99460  0.71984  0.82244  1.0000
  H   H980      1.0  0.01567  0.93655  0.59454  1.0000
  C   C576      1.0  0.28694  0.96091  0.81664  1.0000
  H   H981      1.0  0.44857  0.90705  0.79877  1.0000
  H   H982      1.0  0.11216  0.70169  0.87869  1.0000
  H   H983      1.0  0.09528  0.72895  0.89452  1.0000
  H   H984      1.0  0.07843  0.69658  0.89691  1.0000
  H   H985      1.0  0.25586  0.86492  0.80492  1.0000
  H   H986      1.0  0.03001  0.85890  0.84286  1.0000
  H   H987      1.0  0.98976  0.85656  0.70209  1.0000
  H   H988      1.0  0.24615  0.89016  0.77699  1.0000
  Fe  Fe66      1.0  0.00130  0.73744  0.91481  1.0000
  H   H989      1.0  0.29457  0.94989  0.64910  1.0000
  C   C577      1.0  0.47785  0.97260  0.76841  1.0000
  H   H990      1.0  0.43446  0.75654  0.94312  1.0000
  C   C578      1.0  0.45605  0.96711  0.99689  1.0000
  C   C579      1.0  0.05254  0.90478  0.61273  1.0000
  H   H991      1.0  0.11506  0.75611  0.74275  1.0000
  H   H992      1.0  0.02447  0.85577  0.90633  1.0000
  H   H993      1.0  0.21007  0.91095  0.52503  1.0000
  C   C580      1.0  0.45624  0.88933  0.81152  1.0000
  C   C581      1.0  0.27814  0.90289  0.80301  1.0000
  H   H994      1.0  0.05809  0.84959  0.81823  1.0000
  C   C582      1.0  0.03772  0.84328  0.82871  1.0000
  H   H995      1.0  0.98963  0.96882  0.57456  1.0000
  C   C583      1.0  0.43429  0.74333  0.99124  1.0000
  H   H996      1.0  0.99145  0.94800  0.53383  1.0000
  C   C584      1.0  0.43445  0.87919  0.83659  1.0000
  H   H997      1.0  0.32574  0.86353  0.63046  1.0000
  H   H998      1.0  0.38062  0.92087  0.80837  1.0000
  H   H999      1.0  0.36841  0.93463  0.84303  1.0000
  S   S132      1.0  0.41110  0.95132  0.67489  1.0000
  H   H1000     1.0  0.42010  0.88226  0.60297  1.0000
  H   H1001     1.0  0.23539  0.95270  0.70761  1.0000
  C   C585      1.0  0.47576  0.68137  0.79672  1.0000
  H   H1002     1.0  0.30294  0.83616  0.62604  1.0000
  H   H1003     1.0  0.07320  0.88113  0.86048  1.0000
  H   H1004     1.0  0.35072  0.97327  0.81175  1.0000
  H   H1005     1.0  0.03913  0.82446  0.84356  1.0000
  H   H1006     1.0  0.45388  0.97685  0.94786  1.0000
  H   H1007     1.0  0.19368  0.91808  0.63349  1.0000
  C   C586      1.0  0.45122  0.66861  0.00523  1.0000
  H   H1008     1.0  0.47050  0.97169  0.65553  1.0000
  H   H1009     1.0  0.10185  0.86509  0.84420  1.0000
  H   H1010     1.0  0.26420  0.90878  0.82183  1.0000
  N   N34       1.0  0.30370  0.94916  0.79164  1.0000
  C   C587      1.0  0.08595  0.72244  0.75007  1.0000
  H   H1011     1.0  0.32318  0.92739  0.82725  1.0000
  H   H1012     1.0  0.01240  0.68234  0.81761  1.0000
  H   H1013     1.0  0.00484  0.91696  0.00288  1.0000
  C   C588      1.0  0.19042  0.87298  0.54441  1.0000
  C   C589      1.0  0.19487  0.88042  0.57600  1.0000
  C   C590      1.0  0.41428  0.96858  0.96914  1.0000
  H   H1014     1.0  0.11868  0.95496  0.54756  1.0000
  N   N35       1.0  0.45354  0.69803  0.00978  1.0000
  C   C591      1.0  0.02459  0.94426  0.96680  1.0000
  S   S133      1.0  0.46154  0.87075  0.91056  1.0000
  H   H1015     1.0  0.99509  0.90513  0.78802  1.0000
  H   H1016     1.0  0.12816  0.72458  0.73283  1.0000
  H   H1017     1.0  0.40308  0.95427  0.98675  1.0000
  C   C592      1.0  0.42162  0.75757  0.96466  1.0000
  C   C593      1.0  0.36970  0.90866  0.52147  1.0000
  H   H1018     1.0  0.41914  0.77895  0.96835  1.0000
  H   H1019     1.0  0.46261  0.84931  0.51857  1.0000
  H   H1020     1.0  0.17013  0.86338  0.54570  1.0000
  C   C594      1.0  0.44406  0.96308  0.96678  1.0000
  H   H1021     1.0  0.19085  0.86254  0.59268  1.0000
  H   H1022     1.0  0.21583  0.88755  0.57646  1.0000
  H   H1023     1.0  0.18111  0.89617  0.58281  1.0000
  H   H1024     1.0  0.09236  0.73630  0.79252  1.0000
  H   H1025     1.0  0.44968  0.90285  0.60570  1.0000
  C   C595      1.0  0.11050  0.73730  0.73264  1.0000
  S   S134      1.0  0.37115  0.92119  0.73304  1.0000
  Fe  Fe67      1.0  0.38082  0.93720  0.64536  1.0000
  H   H1026     1.0  0.32331  0.96007  0.74668  1.0000
  H   H1027     1.0  0.39380  0.95268  0.81700  1.0000
  C   C596      1.0  0.37543  0.93957  0.81870  1.0000
  H   H1028     1.0  0.29610  0.87188  0.58770  1.0000
  H   H1029     1.0  0.05033  0.91079  0.63614  1.0000
  H   H1030     1.0  0.45594  0.96725  0.88480  1.0000
  H   H1031     1.0  0.98111  0.77739  0.75846  1.0000
  H   H1032     1.0  0.27456  0.97157  0.74247  1.0000
  H   H1033     1.0  0.10662  0.74269  0.70876  1.0000
  H   H1034     1.0  0.45219  0.91613  0.55072  1.0000
  H   H1035     1.0  0.18570  0.95096  0.61786  1.0000
  H   H1036     1.0  0.08477  0.66798  0.77720  1.0000
  H   H1037     1.0  0.29544  0.89334  0.81265  1.0000
  H   H1038     1.0  0.45592  0.68581  0.78891  1.0000
  H   H1039     1.0  0.41588  0.87405  0.82646  1.0000
  C   C597      1.0  0.46869  0.95134  0.89166  1.0000
  H   H1040     1.0  0.36242  0.95879  0.77817  1.0000
  H   H1041     1.0  0.01835  0.87766  0.61940  1.0000
  H   H1042     1.0  0.13566  0.95731  0.72181  1.0000
  H   H1043     1.0  0.98826  0.72156  0.79918  1.0000
  H   H1044     1.0  0.07513  0.68542  0.98464  1.0000
  H   H1045     1.0  0.47275  0.80169  0.00730  1.0000
  H   H1046     1.0  0.26738  0.96687  0.80895  1.0000
  C   C598      1.0  0.28703  0.92751  0.78007  1.0000
  H   H1047     1.0  0.08905  0.96924  0.73516  1.0000
  H   H1048     1.0  0.04097  0.69378  0.99381  1.0000
  C   C599      1.0  0.98463  0.90792  0.55780  1.0000
  C   C600      1.0  0.99013  0.65186  0.99224  1.0000
  S   S135      1.0  0.98232  0.76384  0.94848  1.0000
  H   H1049     1.0  0.99176  0.88310  0.97534  1.0000
  H   H1050     1.0  0.46731  0.73499  0.78924  1.0000
  H   H1051     1.0  0.40643  0.96625  0.94705  1.0000
  H   H1052     1.0  0.02160  0.93341  0.54598  1.0000
  H   H1053     1.0  0.42857  0.81173  0.51977  1.0000
  H   H1054     1.0  0.12042  0.96041  0.79180  1.0000
  H   H1055     1.0  0.04808  0.96976  0.82243  1.0000
  C   C601      1.0  0.22683  0.94075  0.60620  1.0000
  H   H1056     1.0  0.03887  0.65044  0.82663  1.0000
  C   C602      1.0  0.31188  0.96975  0.76514  1.0000
  H   H1057     1.0  0.99496  0.70495  0.00596  1.0000
  C   C603      1.0  0.46683  0.68883  0.88787  1.0000
  H   H1058     1.0  0.46976  0.94759  0.81000  1.0000
  C   C604      1.0  0.98517  0.86685  0.89602  1.0000
  H   H1059     1.0  0.45745  0.97127  0.61914  1.0000
  H   H1060     1.0  0.00051  0.95188  0.00708  1.0000
  H   H1061     1.0  0.98095  0.83749  0.96703  1.0000
  S   S136      1.0  0.47342  0.74296  0.89075  1.0000
  H   H1062     1.0  0.46148  0.96341  0.75736  1.0000
  C   C605      1.0  0.47546  0.66240  0.88767  1.0000
  H   H1063     1.0  0.47589  0.82758  0.81672  1.0000
  H   H1064     1.0  0.44388  0.95378  0.01454  1.0000
  C   C606      1.0  0.99603  0.79418  0.75819  1.0000
  H   H1065     1.0  0.00960  0.78860  0.77562  1.0000
  C   C607      1.0  0.01261  0.79695  0.72738  1.0000
  H   H1066     1.0  0.31599  0.97776  0.84375  1.0000
  C   C608      1.0  0.29665  0.91043  0.51758  1.0000
  H   H1067     1.0  0.43912  0.94639  0.51701  1.0000
  H   H1068     1.0  0.99491  0.83779  0.75454  1.0000
  C   C609      1.0  0.47888  0.91083  0.00618  1.0000
  H   H1069     1.0  0.99975  0.80202  0.70892  1.0000
  H   H1070     1.0  0.98708  0.82908  0.83888  1.0000
  H   H1071     1.0  0.03080  0.82969  0.78573  1.0000
  H   H1072     1.0  0.01766  0.86548  0.01504  1.0000
  C   C610      1.0  0.97251  0.28197  0.02511  1.0000
  H   H1073     1.0  0.57501  0.06226  0.24260  1.0000
  H   H1074     1.0  0.87477  0.00467  0.29293  1.0000
  S   S137      1.0  0.52732  0.04861  0.15836  1.0000
  H   H1075     1.0  0.54451  0.11335  0.22723  1.0000
  Fe  Fe68      1.0  0.51134  0.02405  0.12404  1.0000
  S   S138      1.0  0.52048  0.03736  0.07430  1.0000
  Fe  Fe69      1.0  0.53632  0.00915  0.18252  1.0000
  H   H1076     1.0  0.56074  0.15528  0.29058  1.0000
  C   C611      1.0  0.48275  0.28451  0.07441  1.0000
  H   H1077     1.0  0.51747  0.17563  0.30012  1.0000
  H   H1078     1.0  0.54194  0.19378  0.03315  1.0000
  H   H1079     1.0  0.48235  0.04419  0.30177  1.0000
  H   H1080     1.0  0.56808  0.09356  0.18137  1.0000
  H   H1081     1.0  0.61889  0.06058  0.32117  1.0000
  H   H1082     1.0  0.94139  0.13799  0.21569  1.0000
  H   H1083     1.0  0.52213  0.29944  0.05639  1.0000
  C   C612      1.0  0.49467  0.04069  0.05050  1.0000
  S   S139      1.0  0.94712  0.25255  0.17012  1.0000
  H   H1084     1.0  0.49968  0.03292  0.26806  1.0000
  H   H1085     1.0  0.49640  0.29838  0.27735  1.0000
  C   C613      1.0  0.97800  0.12468  0.19377  1.0000
  H   H1086     1.0  0.84275  0.30978  0.38126  1.0000
  C   C614      1.0  0.96307  0.01125  0.04527  1.0000
  H   H1087     1.0  0.54428  0.12151  0.09020  1.0000
  H   H1088     1.0  0.94220  0.00744  0.05330  1.0000
  H   H1089     1.0  0.88744  0.00211  0.32940  1.0000
  C   C615      1.0  0.90305  0.01017  0.21090  1.0000
  H   H1090     1.0  0.92346  0.01354  0.19891  1.0000
  C   C616      1.0  0.52857  0.07690  0.28462  1.0000
  H   H1091     1.0  0.49713  0.09586  0.13397  1.0000
  H   H1092     1.0  0.97151  0.00999  0.27779  1.0000
  H   H1093     1.0  0.92653  0.28121  0.32760  1.0000
  H   H1094     1.0  0.93016  0.27527  0.27268  1.0000
  H   H1095     1.0  0.56031  0.10349  0.31919  1.0000
  H   H1096     1.0  0.59425  0.07698  0.34403  1.0000
  H   H1097     1.0  0.88942  0.00399  0.19445  1.0000
  S   S140      1.0  0.48962  0.26089  0.15313  1.0000
  C   C617      1.0  0.50634  0.14471  0.19410  1.0000
  H   H1098     1.0  0.83835  0.99588  0.33383  1.0000
  S   S141      1.0  0.97649  0.02701  0.15212  1.0000
  H   H1099     1.0  0.58289  0.11906  0.28888  1.0000
  H   H1100     1.0  0.51367  0.10294  0.18962  1.0000
  H   H1101     1.0  0.52730  0.15085  0.19093  1.0000
  H   H1102     1.0  0.53874  0.05831  0.27999  1.0000
  C   C618      1.0  0.53066  0.12570  0.27951  1.0000
  H   H1103     1.0  0.51772  0.30463  0.24227  1.0000
  C   C619      1.0  0.55850  0.00752  0.25771  1.0000
  H   H1104     1.0  0.55698  0.15573  0.25064  1.0000
  S   S142      1.0  0.57642  0.00057  0.19895  1.0000
  C   C620      1.0  0.55814  0.10272  0.24206  1.0000
  H   H1105     1.0  0.57706  0.11520  0.23849  1.0000
  H   H1106     1.0  0.95765  0.18529  0.21491  1.0000
  C   C621      1.0  0.52713  0.17615  0.27658  1.0000
  C   C622      1.0  0.56356  0.07587  0.22830  1.0000
  C   C623      1.0  0.49870  0.11758  0.19343  1.0000
  C   C624      1.0  0.50259  0.29294  0.05101  1.0000
  H   H1107     1.0  0.49536  0.22985  0.05188  1.0000
  C   C625      1.0  0.97052  0.17083  0.20514  1.0000
  H   H1108     1.0  0.54664  0.21525  0.08099  1.0000
  H   H1109     1.0  0.50521  0.08078  0.24512  1.0000
  H   H1110     1.0  0.52342  0.07504  0.30965  1.0000
  H   H1111     1.0  0.58236  0.06125  0.18749  1.0000
  H   H1112     1.0  0.95232  0.28684  0.02088  1.0000
  C   C626      1.0  0.52496  0.21899  0.08171  1.0000
  C   C627      1.0  0.50182  0.07618  0.27000  1.0000
  C   C628      1.0  0.57924  0.08068  0.19704  1.0000
  H   H1113     1.0  0.59994  0.07726  0.27479  1.0000
  H   H1114     1.0  0.53510  0.08623  0.09631  1.0000
  H   H1115     1.0  0.52089  0.23642  0.09483  1.0000
  C   C629      1.0  0.96954  0.99641  0.29897  1.0000
  C   C630      1.0  0.48727  0.04884  0.27697  1.0000
  H   H1116     1.0  0.50053  0.12832  0.07138  1.0000
  S   S143      1.0  0.49792  0.19725  0.20273  1.0000
  S   S144      1.0  0.96634  0.09064  0.19698  1.0000
  C   C631      1.0  0.92193  0.99643  0.26050  1.0000
  H   H1117     1.0  0.54450  0.06517  0.22548  1.0000
  H   H1118     1.0  0.89621  0.02926  0.21916  1.0000
  H   H1119     1.0  0.51336  0.20133  0.09366  1.0000
  C   C632      1.0  0.58714  0.07712  0.29650  1.0000
  C   C633      1.0  0.49723  0.29346  0.02084  1.0000
  C   C634      1.0  0.53460  0.10538  0.10678  1.0000
  H   H1120     1.0  0.52847  0.24338  0.03943  1.0000
  C   C635      1.0  0.56145  0.00727  0.28869  1.0000
  C   C636      1.0  0.57932  0.99952  0.23797  1.0000
  H   H1121     1.0  0.49919  0.98722  0.03069  1.0000
  C   C637      1.0  0.50065  0.05367  0.02135  1.0000
  H   H1122     1.0  0.91598  0.01620  0.26777  1.0000
  C   C638      1.0  0.92124  0.29291  0.28083  1.0000
  C   C639      1.0  0.93973  0.98930  0.30977  1.0000
  N   N36       1.0  0.54683  0.10123  0.27490  1.0000
  Fe  Fe70      1.0  0.48652  0.04193  0.18330  1.0000
  H   H1123     1.0  0.52037  0.12418  0.30296  1.0000
  C   C640      1.0  0.96138  0.14394  0.20567  1.0000
  H   H1124     1.0  0.51140  0.17488  0.26093  1.0000
  H   H1125     1.0  0.50108  0.00022  0.32342  1.0000
  H   H1126     1.0  0.48699  0.28523  0.09744  1.0000
  H   H1127     1.0  0.50770  0.18470  0.04172  1.0000
  H   H1128     1.0  0.59915  0.09028  0.19866  1.0000
  C   C641      1.0  0.58480  0.99820  0.30028  1.0000
  Fe  Fe71      1.0  0.48420  0.98233  0.17193  1.0000
  H   H1129     1.0  0.48814  0.09109  0.27913  1.0000
  H   H1130     1.0  0.81327  0.29519  0.36853  1.0000
  Fe  Fe72      1.0  0.96711  0.28167  0.13262  1.0000
  H   H1131     1.0  0.54606  0.98890  0.50193  1.0000
  C   C642      1.0  0.54619  0.15317  0.27372  1.0000
  H   H1132     1.0  0.54047  0.01452  0.24892  1.0000
  S   S145      1.0  0.95559  0.28571  0.08464  1.0000
  C   C643      1.0  0.60587  0.07808  0.32142  1.0000
  Fe  Fe73      1.0  0.48266  0.29558  0.18081  1.0000
  H   H1133     1.0  0.61877  0.09665  0.31781  1.0000
  C   C644      1.0  0.91909  0.29628  0.31190  1.0000
  Fe  Fe74      1.0  0.94374  0.28806  0.19766  1.0000
  H   H1134     1.0  0.62372  0.98299  0.28939  1.0000
  H   H1135     1.0  0.93065  0.00828  0.31561  1.0000
  H   H1136     1.0  0.94190  0.00031  0.24747  1.0000
  H   H1137     1.0  0.61906  0.98448  0.23420  1.0000
  C   C645      1.0  0.48710  0.16395  0.19912  1.0000
  S   S146      1.0  0.49658  0.00395  0.21060  1.0000
  H   H1138     1.0  0.54573  0.01435  0.30380  1.0000
  C   C646      1.0  0.56895  0.10146  0.29554  1.0000
  H   H1139     1.0  0.51461  0.12699  0.26394  1.0000
  H   H1140     1.0  0.54634  0.10344  0.12666  1.0000
  S   S147      1.0  0.58868  0.00075  0.33866  1.0000
  H   H1141     1.0  0.53837  0.19561  0.27069  1.0000
  H   H1142     1.0  0.95989  0.08740  0.03462  1.0000
  C   C647      1.0  0.50588  0.11205  0.11690  1.0000
  H   H1143     1.0  0.57548  0.05797  0.30124  1.0000
  H   H1144     1.0  0.95887  0.30474  0.36144  1.0000
  C   C648      1.0  0.52155  0.20113  0.03057  1.0000
  S   S148      1.0  0.90815  0.30551  0.22272  1.0000
  C   C649      1.0  0.51684  0.22516  0.04971  1.0000
  H   H1145     1.0  0.50744  0.13082  0.12786  1.0000
  C   C650      1.0  0.87837  0.99060  0.31268  1.0000
  C   C651      1.0  0.90293  0.98830  0.23722  1.0000
  C   C652      1.0  0.60284  0.99064  0.24945  1.0000
  H   H1146     1.0  0.97510  0.01512  0.08983  1.0000
  H   H1147     1.0  0.53491  0.31313  0.51324  1.0000
  H   H1148     1.0  0.88206  0.98497  0.24765  1.0000
  H   H1149     1.0  0.48808  0.09485  0.08108  1.0000
  S   S149      1.0  0.52444  0.98515  0.14562  1.0000
  C   C653      1.0  0.48887  0.11490  0.08964  1.0000
  C   C654      1.0  0.50999  0.31345  0.26318  1.0000
  C   C655      1.0  0.91014  0.31142  0.26071  1.0000
  C   C656      1.0  0.60544  0.98960  0.28066  1.0000
  C   C657      1.0  0.50227  0.98280  0.34044  1.0000
  H   H1150     1.0  0.97252  0.02935  0.32725  1.0000
  H   H1151     1.0  0.48731  0.98497  0.35998  1.0000
  C   C658      1.0  0.97949  0.27927  0.05491  1.0000
  H   H1152     1.0  0.51029  0.14901  0.01588  1.0000
  H   H1153     1.0  0.97953  0.09449  0.26304  1.0000
  H   H1154     1.0  0.48048  0.16459  0.09526  1.0000
  H   H1155     1.0  0.52245  0.98266  0.34863  1.0000
  H   H1156     1.0  0.97946  0.13168  0.02196  1.0000
  C   C659      1.0  0.82336  0.31437  0.37234  1.0000
  H   H1157     1.0  0.94283  0.99795  0.66009  1.0000
  H   H1158     1.0  0.56562  0.00999  0.95442  1.0000
  Fe  Fe75      1.0  0.49484  0.27888  0.89190  1.0000
  H   H1159     1.0  0.63812  0.23480  0.77226  1.0000
  H   H1160     1.0  0.53659  0.17295  0.89659  1.0000
  H   H1161     1.0  0.54795  0.18680  0.77111  1.0000
  H   H1162     1.0  0.91099  0.09497  0.95193  1.0000
  H   H1163     1.0  0.60495  0.26524  0.79431  1.0000
  Fe  Fe76      1.0  0.93902  0.00747  0.87719  1.0000
  C   C660      1.0  0.95211  0.27839  0.79483  1.0000
  H   H1164     1.0  0.94752  0.98673  0.71394  1.0000
  H   H1165     1.0  0.52413  0.18617  0.95674  1.0000
  H   H1166     1.0  0.91630  0.30007  0.80541  1.0000
  C   C661      1.0  0.54036  0.25290  0.78990  1.0000
  C   C662      1.0  0.89765  0.99274  0.82090  1.0000
  H   H1167     1.0  0.48546  0.15969  0.99123  1.0000
  S   S150      1.0  0.88305  0.99641  0.72071  1.0000
  S   S151      1.0  0.94254  0.04188  0.90571  1.0000
  S   S152      1.0  0.49314  0.05290  0.92078  1.0000
  H   H1168     1.0  0.84898  0.99569  0.61342  1.0000
  S   S153      1.0  0.53312  0.27632  0.91352  1.0000
  H   H1169     1.0  0.90647  0.09036  0.99300  1.0000
  C   C663      1.0  0.91645  0.08275  0.97236  1.0000
  C   C664      1.0  0.94672  0.08349  0.97322  1.0000
  Fe  Fe77      1.0  0.51530  0.30577  0.94375  1.0000
  H   H1170     1.0  0.94790  0.02970  0.73283  1.0000
  H   H1171     1.0  0.94450  0.25749  0.84027  1.0000
  C   C665      1.0  0.96208  0.15003  0.88701  1.0000
  H   H1172     1.0  0.53403  0.23087  0.95736  1.0000
  H   H1173     1.0  0.49119  0.23058  0.94786  1.0000
  H   H1174     1.0  0.95594  0.98905  0.79930  1.0000
  H   H1175     1.0  0.57083  0.26484  0.83082  1.0000
  H   H1176     1.0  0.52120  0.21959  0.89601  1.0000
  H   H1177     1.0  0.59378  0.25941  0.87995  1.0000
  C   C666      1.0  0.81389  0.99286  0.58864  1.0000
  H   H1178     1.0  0.49328  0.00411  0.98013  1.0000
  C   C667      1.0  0.50030  0.98398  0.97518  1.0000
  H   H1179     1.0  0.90972  0.30397  0.69324  1.0000
  H   H1180     1.0  0.91958  0.25060  0.81498  1.0000
  H   H1181     1.0  0.62280  0.23826  0.73695  1.0000
  H   H1182     1.0  0.58331  0.20646  0.85294  1.0000
  C   C668      1.0  0.58721  0.22842  0.85004  1.0000
  H   H1183     1.0  0.94128  0.15351  0.89339  1.0000
  S   S154      1.0  0.50966  0.31306  0.85731  1.0000
  C   C669      1.0  0.56475  0.24318  0.83446  1.0000
  H   H1184     1.0  0.60678  0.23270  0.83642  1.0000
  H   H1185     1.0  0.51378  0.26136  0.82978  1.0000
  H   H1186     1.0  0.94425  0.98547  0.56906  1.0000
  C   C670      1.0  0.89781  0.01766  0.77141  1.0000
  C   C671      1.0  0.90311  0.01649  0.80194  1.0000
  H   H1187     1.0  0.72679  0.98957  0.59178  1.0000
  H   H1188     1.0  0.52695  0.24897  0.98893  1.0000
  C   C672      1.0  0.58206  0.22910  0.78435  1.0000
  H   H1189     1.0  0.90150  0.03620  0.75697  1.0000
  H   H1190     1.0  0.91061  0.03412  0.81105  1.0000
  C   C673      1.0  0.49774  0.27878  0.79001  1.0000
  H   H1191     1.0  0.92928  0.02394  0.68143  1.0000
  S   S155      1.0  0.94722  0.00776  0.98874  1.0000
  H   H1192     1.0  0.94327  0.30728  0.82640  1.0000
  S   S156      1.0  0.51160  0.12372  0.88400  1.0000
  S   S157      1.0  0.51045  0.98916  0.88331  1.0000
  H   H1193     1.0  0.49480  0.27416  0.76665  1.0000
  H   H1194     1.0  0.90917  0.06176  0.97148  1.0000
  H   H1195     1.0  0.81736  0.99777  0.63623  1.0000
  H   H1196     1.0  0.55058  0.27302  0.78705  1.0000
  H   H1197     1.0  0.54989  0.99683  0.60119  1.0000
  H   H1198     1.0  0.91891  0.29220  0.74582  1.0000
  H   H1199     1.0  0.57638  0.22197  0.76290  1.0000
  H   H1200     1.0  0.95911  0.03146  0.78103  1.0000
  H   H1201     1.0  0.94945  0.27388  0.77151  1.0000
  H   H1202     1.0  0.57403  0.21104  0.98005  1.0000
  C   C674      1.0  0.82855  0.00355  0.61372  1.0000
  S   S158      1.0  0.90190  0.99091  0.85978  1.0000
  H   H1203     1.0  0.82557  0.00011  0.56687  1.0000
  H   H1204     1.0  0.53197  0.98768  0.55706  1.0000
  H   H1205     1.0  0.97388  0.28011  0.79662  1.0000
  H   H1206     1.0  0.50701  0.15834  0.77939  1.0000
  H   H1207     1.0  0.95127  0.07015  0.99305  1.0000
  H   H1208     1.0  0.52553  0.15339  0.81198  1.0000
  C   C675      1.0  0.50699  0.15623  0.99231  1.0000
  C   C676      1.0  0.51653  0.17728  0.89136  1.0000
  C   C677      1.0  0.51404  0.16805  0.79870  1.0000
  H   H1209     1.0  0.49959  0.23770  0.80745  1.0000
  C   C678      1.0  0.51425  0.13377  0.97248  1.0000
  C   C679      1.0  0.96774  0.02450  0.72202  1.0000
  Fe  Fe78      1.0  0.54661  0.31245  0.88167  1.0000
  H   H1210     1.0  0.58995  0.26870  0.75922  1.0000
  H   H1211     1.0  0.95170  0.07638  0.79623  1.0000
  H   H1212     1.0  0.62456  0.99553  0.59065  1.0000
  N   N37       1.0  0.55747  0.23283  0.80546  1.0000
  H   H1213     1.0  0.56744  0.23006  0.01202  1.0000
  H   H1214     1.0  0.48585  0.06625  0.97894  1.0000
  H   H1215     1.0  0.53562  0.12901  0.97302  1.0000
  C   C680      1.0  0.94798  0.01416  0.67398  1.0000
  S   S159      1.0  0.52295  0.30440  0.99263  1.0000
  C   C681      1.0  0.52445  0.18194  0.98169  1.0000
  C   C682      1.0  0.88791  0.99486  0.75948  1.0000
  C   C683      1.0  0.56476  0.22929  0.98772  1.0000
  C   C684      1.0  0.97022  0.12367  0.88394  1.0000
  H   H1216     1.0  0.63853  0.26692  0.75036  1.0000
  C   C685      1.0  0.58981  0.23743  0.88142  1.0000
  H   H1217     1.0  0.52575  0.20788  0.83106  1.0000
  C   C686      1.0  0.60012  0.25467  0.77468  1.0000
  H   H1218     1.0  0.57967  0.25320  0.94565  1.0000
  C   C687      1.0  0.54262  0.20616  0.81343  1.0000
  H   H1219     1.0  0.51036  0.13960  0.94871  1.0000
  C   C688      1.0  0.94125  0.25427  0.81654  1.0000
  H   H1220     1.0  0.54692  0.24221  0.85138  1.0000
  H   H1221     1.0  0.60673  0.22742  0.89142  1.0000
  H   H1222     1.0  0.52058  0.06210  0.01434  1.0000
  C   C689      1.0  0.60424  0.99468  0.60300  1.0000
  C   C690      1.0  0.53129  0.98490  0.97417  1.0000
  C   C691      1.0  0.48109  0.05566  0.00104  1.0000
  C   C692      1.0  0.95806  0.11259  0.97343  1.0000
  C   C693      1.0  0.62648  0.24808  0.75754  1.0000
  H   H1223     1.0  0.95191  0.23610  0.81071  1.0000
  H   H1224     1.0  0.51133  0.99692  0.63084  1.0000
  H   H1225     1.0  0.79396  0.00175  0.58948  1.0000
  H   H1226     1.0  0.59713  0.01539  0.60330  1.0000
  C   C694      1.0  0.50791  0.20374  0.89092  1.0000
  C   C695      1.0  0.93828  0.30439  0.80303  1.0000
  C   C696      1.0  0.53475  0.22969  0.98227  1.0000
  H   H1227     1.0  0.50927  0.29812  0.78898  1.0000
  Fe  Fe79      1.0  0.48447  0.08623  0.88619  1.0000
  H   H1228     1.0  0.54537  0.17665  0.98478  1.0000
  H   H1229     1.0  0.57128  0.23197  0.89662  1.0000
  C   C697      1.0  0.95306  0.98568  0.59095  1.0000
  C   C698      1.0  0.53141  0.19306  0.78690  1.0000
  H   H1230     1.0  0.51889  0.20684  0.77401  1.0000
  H   H1231     1.0  0.53651  0.02830  0.96512  1.0000
  H   H1232     1.0  0.50188  0.11540  0.98074  1.0000
  H   H1233     1.0  0.95552  0.07487  0.95267  1.0000
  C   C699      1.0  0.49943  0.15640  0.88482  1.0000
  H   H1234     1.0  0.53791  0.24815  0.76642  1.0000
  H   H1235     1.0  0.48444  0.23263  0.00422  1.0000
  H   H1236     1.0  0.55566  0.19121  0.82388  1.0000
  H   H1237     1.0  0.95440  0.12254  0.95085  1.0000
  C   C700      1.0  0.51226  0.25630  0.80637  1.0000
  H   H1238     1.0  0.53806  0.01050  0.93156  1.0000
  C   C701      1.0  0.58038  0.25347  0.97042  1.0000
  H   H1239     1.0  0.60562  0.98593  0.62663  1.0000
  H   H1240     1.0  0.83039  0.02573  0.61017  1.0000
  C   C702      1.0  0.96138  0.00245  0.70134  1.0000
  H   H1241     1.0  0.59429  0.21303  0.79425  1.0000
  H   H1242     1.0  0.95570  0.10709  0.88788  1.0000
  H   H1243     1.0  0.58537  0.98681  0.56371  1.0000
  Fe  Fe80      1.0  0.48433  0.02472  0.88671  1.0000
  H   H1244     1.0  0.49626  0.17345  0.81334  1.0000
  Fe  Fe81      1.0  0.96032  0.01240  0.93854  1.0000
  H   H1245     1.0  0.94532  0.12273  0.99041  1.0000
  H   H1246     1.0  0.60162  0.25304  0.97519  1.0000
  H   H1247     1.0  0.96162  0.02901  0.65960  1.0000
  N   N38       1.0  0.51728  0.20639  0.99753  1.0000
  S   S160      1.0  0.96937  0.20492  0.88459  1.0000
  H   H1248     1.0  0.49867  0.99627  0.59439  1.0000
  H   H1249     1.0  0.94095  0.98594  0.76475  1.0000
  C   C703      1.0  0.48844  0.21302  0.99534  1.0000
  H   H1250     1.0  0.94748  0.30940  0.72352  1.0000
  C   C704      1.0  0.48235  0.20966  0.88302  1.0000
  C   C705      1.0  0.54351  0.00998  0.95514  1.0000
  C   C706      1.0  0.97952  0.16730  0.96958  1.0000
  H   H1251     1.0  0.96178  0.16671  0.95660  1.0000
  H   H1252     1.0  0.97230  0.16731  0.99382  1.0000
  H   H1253     1.0  0.96252  0.00579  0.59197  1.0000
  H   H1254     1.0  0.57210  0.27242  0.97752  1.0000
  H   H1255     1.0  0.97750  0.31310  0.75436  1.0000
  H   H1256     1.0  0.53821  0.98520  0.99699  1.0000
  C   C707      1.0  0.49928  0.98498  0.61691  1.0000
  H   H1257     1.0  0.97324  0.07277  0.74401  1.0000
  S   S161      1.0  0.97980  0.01469  0.85187  1.0000
  H   H1258     1.0  0.97503  0.04287  0.70721  1.0000
  C   C708      1.0  0.97125  0.01242  0.01419  1.0000
  H   H1259     1.0  0.48059  0.19571  0.95317  1.0000
  C   C709      1.0  0.97348  0.08069  0.79050  1.0000
  H   H1260     1.0  0.97928  0.99249  0.69269  1.0000
  H   H1261     1.0  0.97684  0.10261  0.78477  1.0000
  C   C710      1.0  0.92708  0.31172  0.73446  1.0000
  H   H1262     1.0  0.93676  0.98208  0.60969  1.0000
  C   C711      1.0  0.98029  0.03510  0.77143  1.0000
  C   C712      1.0  0.50358  0.49615  0.32227  1.0000
  Fe  Fe82      1.0  0.63215  0.46653  0.36646  1.0000
  S   S162      1.0  0.63058  0.42316  0.35735  1.0000
  S   S163      1.0  0.62223  0.50201  0.33478  1.0000
  Fe  Fe83      1.0  0.64194  0.45307  0.43279  1.0000
  S   S164      1.0  0.64009  0.40921  0.42821  1.0000
  S   S165      1.0  0.64716  0.46858  0.47796  1.0000
  Fe  Fe84      1.0  0.66622  0.41964  0.38474  1.0000
  S   S166      1.0  0.70191  0.39289  0.37915  1.0000
  Fe  Fe85      1.0  0.60501  0.41748  0.40195  1.0000
  S   S167      1.0  0.56719  0.39163  0.41424  1.0000
  S   S168      1.0  0.66964  0.46351  0.39047  1.0000
  S   S169      1.0  0.60494  0.46072  0.40970  1.0000
  Fe  Fe86      1.0  0.88353  0.38451  0.44031  1.0000
  S   S170      1.0  0.88426  0.42623  0.41740  1.0000
  S   S171      1.0  0.89257  0.39945  0.35278  1.0000
  Fe  Fe87      1.0  0.91861  0.41321  0.38689  1.0000
  S   S172      1.0  0.95542  0.44013  0.37309  1.0000
  Fe  Fe88      1.0  0.85791  0.40858  0.38573  1.0000
  S   S173      1.0  0.82369  0.43344  0.37085  1.0000
  H   H1263     1.0  0.83919  0.35094  0.34774  1.0000
  C   C713      1.0  0.53636  0.40617  0.40849  1.0000
  C   C714      1.0  0.53492  0.43262  0.39591  1.0000
  H   H1264     1.0  0.55745  0.47325  0.01903  1.0000
  H   H1265     1.0  0.78697  0.40181  0.48263  1.0000
  H   H1266     1.0  0.62484  0.34475  0.45931  1.0000
  C   C715      1.0  0.51268  0.39083  0.41697  1.0000
  H   H1267     1.0  0.55304  0.44467  0.38919  1.0000
  C   C716      1.0  0.80149  0.33950  0.32977  1.0000
  C   C717      1.0  0.56111  0.41208  0.49899  1.0000
  H   H1268     1.0  0.51359  0.37032  0.42660  1.0000
  C   C718      1.0  0.73542  0.40486  0.37870  1.0000
  C   C719      1.0  0.74288  0.43187  0.37110  1.0000
  C   C720      1.0  0.76996  0.44038  0.36924  1.0000
  C   C721      1.0  0.78976  0.42210  0.37554  1.0000
  C   C722      1.0  0.78222  0.39525  0.38422  1.0000
  C   C723      1.0  0.75522  0.38663  0.38535  1.0000
  H   H1269     1.0  0.72787  0.44608  0.36576  1.0000
  H   H1270     1.0  0.77560  0.46120  0.36249  1.0000
  H   H1271     1.0  0.79725  0.38102  0.38930  1.0000
  H   H1272     1.0  0.74957  0.36573  0.39144  1.0000
  H   H1273     1.0  0.70753  0.45206  0.46349  1.0000
  H   H1274     1.0  0.93928  0.50063  0.14012  1.0000
  H   H1275     1.0  0.78963  0.34938  0.34761  1.0000
  C   C724      1.0  0.77439  0.44065  0.46220  1.0000
  C   C725      1.0  0.51287  0.38731  0.17107  1.0000
  C   C726      1.0  0.50209  0.41288  0.16999  1.0000
  H   H1276     1.0  0.52803  0.44667  0.32691  1.0000
  H   H1277     1.0  0.88720  0.35505  0.31067  1.0000
  H   H1278     1.0  0.53432  0.38547  0.16818  1.0000
  H   H1279     1.0  0.51528  0.43046  0.16651  1.0000
  C   C727      1.0  0.60829  0.49591  0.30112  1.0000
  C   C728      1.0  0.60101  0.46744  0.26137  1.0000
  C   C729      1.0  0.61141  0.47151  0.28878  1.0000
  H   H1280     1.0  0.60396  0.44867  0.25168  1.0000
  H   H1281     1.0  0.62241  0.45600  0.29992  1.0000
  H   H1282     1.0  0.95904  0.35364  0.23996  1.0000
  H   H1283     1.0  0.66581  0.41469  0.47863  1.0000
  H   H1284     1.0  0.64837  0.36381  0.47776  1.0000
  H   H1285     1.0  0.97335  0.61985  0.08931  1.0000
  S   S174      1.0  0.52921  0.48605  0.15003  1.0000
  C   C730      1.0  0.82831  0.33261  0.34275  1.0000
  S   S175      1.0  0.53609  0.54547  0.17419  1.0000
  H   H1286     1.0  0.95973  0.51982  0.06141  1.0000
  Fe  Fe89      1.0  0.52072  0.52820  0.13401  1.0000
  S   S176      1.0  0.53361  0.54589  0.08607  1.0000
  Fe  Fe90      1.0  0.54032  0.50260  0.19241  1.0000
  S   S177      1.0  0.57465  0.48140  0.21190  1.0000
  H   H1287     1.0  0.76783  0.33797  0.28693  1.0000
  H   H1288     1.0  0.57768  0.47907  0.47361  1.0000
  C   C731      1.0  0.89834  0.33406  0.27152  1.0000
  C   C732      1.0  0.50365  0.61516  0.20671  1.0000
  H   H1289     1.0  0.96174  0.36896  0.12756  1.0000
  H   H1290     1.0  0.51965  0.60145  0.20383  1.0000
  C   C733      1.0  0.77580  0.35841  0.28991  1.0000
  C   C734      1.0  0.59432  0.51608  0.28607  1.0000
  C   C735      1.0  0.58336  0.51177  0.25896  1.0000
  C   C736      1.0  0.58680  0.48744  0.24650  1.0000
  H   H1291     1.0  0.59211  0.53511  0.29536  1.0000
  H   H1292     1.0  0.57287  0.52742  0.24732  1.0000
  H   H1293     1.0  0.53098  0.36934  0.48036  1.0000
  H   H1294     1.0  0.55468  0.45648  0.45910  1.0000
  H   H1295     1.0  0.55322  0.47363  0.32219  1.0000
  H   H1296     1.0  0.90649  0.40321  0.23217  1.0000
  S   S178      1.0  0.85488  0.36748  0.41074  1.0000
  H   H1297     1.0  0.95316  0.35370  0.28060  1.0000
  H   H1298     1.0  0.93189  0.40634  0.08545  1.0000
  S   S179      1.0  0.91997  0.37294  0.41254  1.0000
  H   H1299     1.0  0.82005  0.41575  0.43902  1.0000
  H   H1300     1.0  0.49126  0.42620  0.49906  1.0000
  H   H1301     1.0  0.96939  0.45368  0.12950  1.0000
  H   H1302     1.0  0.49059  0.54047  0.34854  1.0000
  H   H1303     1.0  0.53893  0.53631  0.29835  1.0000
  H   H1304     1.0  0.72224  0.52054  0.42227  1.0000
  H   H1305     1.0  0.75530  0.39281  0.44804  1.0000
  H   H1306     1.0  0.81092  0.32433  0.38963  1.0000
  C   C737      1.0  0.79410  0.42304  0.47917  1.0000
  C   C738      1.0  0.73514  0.48607  0.44945  1.0000
  C   C739      1.0  0.71766  0.49866  0.42626  1.0000
  H   H1307     1.0  0.87868  0.42467  0.23932  1.0000
  C   C740      1.0  0.95821  0.45074  0.05534  1.0000
  C   C741      1.0  0.48165  0.47721  0.48606  1.0000
  H   H1308     1.0  0.53432  0.49903  0.02252  1.0000
  H   H1309     1.0  0.77439  0.43441  0.43887  1.0000
  H   H1310     1.0  0.96390  0.40078  0.44663  1.0000
  H   H1311     1.0  0.73157  0.44723  0.43329  1.0000
  C   C742      1.0  0.56381  0.46134  0.47975  1.0000
  C   C743      1.0  0.58951  0.58963  0.13539  1.0000
  S   S180      1.0  0.90180  0.32062  0.36214  1.0000
  H   H1312     1.0  0.97267  0.35499  0.49498  1.0000
  H   H1313     1.0  0.94070  0.36692  0.48512  1.0000
  H   H1314     1.0  0.72224  0.40348  0.44151  1.0000
  H   H1315     1.0  0.51394  0.59387  0.11599  1.0000
  C   C744      1.0  0.96429  0.46287  0.10719  1.0000
  S   S181      1.0  0.49881  0.49777  0.21604  1.0000
  C   C745      1.0  0.52379  0.32961  0.50244  1.0000
  H   H1316     1.0  0.73104  0.49622  0.47035  1.0000
  H   H1317     1.0  0.75625  0.49052  0.44034  1.0000
  C   C746      1.0  0.61012  0.35402  0.50465  1.0000
  C   C747      1.0  0.55883  0.61782  0.10441  1.0000
  H   H1318     1.0  0.69619  0.49550  0.43474  1.0000
  H   H1319     1.0  0.55662  0.59865  0.09408  1.0000
  H   H1320     1.0  0.53523  0.56448  0.02308  1.0000
  H   H1321     1.0  0.88045  0.39342  0.26225  1.0000
  H   H1322     1.0  0.96029  0.50328  0.27652  1.0000
  H   H1323     1.0  0.97485  0.48292  0.10404  1.0000
  C   C748      1.0  0.93331  0.50744  0.24112  1.0000
  C   C749      1.0  0.94544  0.40328  0.10349  1.0000
  H   H1324     1.0  0.72153  0.48990  0.40435  1.0000
  C   C750      1.0  0.49506  0.33868  0.25463  1.0000
  H   H1325     1.0  0.91320  0.50860  0.25316  1.0000
  H   H1326     1.0  0.79687  0.43011  0.50150  1.0000
  S   S182      1.0  0.87856  0.37250  0.49060  1.0000
  C   C751      1.0  0.98002  0.52618  0.05302  1.0000
  C   C752      1.0  0.50944  0.64292  0.20507  1.0000
  H   H1327     1.0  0.89743  0.42838  0.48227  1.0000
  H   H1328     1.0  0.52006  0.56197  0.31495  1.0000
  H   H1329     1.0  0.94304  0.59931  0.09524  1.0000
  H   H1330     1.0  0.72372  0.35454  0.44993  1.0000
  N   N39       1.0  0.74624  0.44069  0.47739  1.0000
  H   H1331     1.0  0.61301  0.39627  0.49170  1.0000
  H   H1332     1.0  0.64196  0.32874  0.48944  1.0000
  H   H1333     1.0  0.59556  0.33677  0.50765  1.0000
  H   H1334     1.0  0.79767  0.33644  0.24007  1.0000
  C   C753      1.0  0.83889  0.33660  0.22282  1.0000
  H   H1335     1.0  0.81451  0.36876  0.23559  1.0000
  H   H1336     1.0  0.51616  0.50631  0.41834  1.0000
  C   C754      1.0  0.90651  0.31851  0.32283  1.0000
  H   H1337     1.0  0.54222  0.41693  0.51210  1.0000
  C   C755      1.0  0.53403  0.57122  0.26815  1.0000
  C   C756      1.0  0.51564  0.40503  0.26590  1.0000
  H   H1338     1.0  0.83541  0.41155  0.47388  1.0000
  C   C757      1.0  0.48777  0.40164  0.41254  1.0000
  C   C758      1.0  0.53243  0.42202  0.24025  1.0000
  C   C759      1.0  0.93416  0.46900  0.11050  1.0000
  C   C760      1.0  0.72327  0.36670  0.46953  1.0000
  H   H1339     1.0  0.93668  0.44577  0.06152  1.0000
  H   H1340     1.0  0.49794  0.52358  0.44696  1.0000
  C   C761      1.0  0.81649  0.34742  0.24340  1.0000
  H   H1341     1.0  0.52682  0.38685  0.27144  1.0000
  C   C762      1.0  0.72854  0.37480  0.29709  1.0000
  H   H1342     1.0  0.95511  0.41060  0.18764  1.0000
  H   H1343     1.0  0.57651  0.62831  0.14521  1.0000
  H   H1344     1.0  0.50912  0.46403  0.38247  1.0000
  H   H1345     1.0  0.95914  0.47246  0.04743  1.0000
  C   C763      1.0  0.51630  0.55376  0.02965  1.0000
  H   H1346     1.0  0.52234  0.44073  0.23359  1.0000
  H   H1347     1.0  0.55213  0.42750  0.24768  1.0000
  C   C764      1.0  0.50992  0.44347  0.39167  1.0000
  H   H1348     1.0  0.51735  0.44034  0.04305  1.0000
  C   C765      1.0  0.63269  0.34751  0.48131  1.0000
  H   H1349     1.0  0.78350  0.46129  0.45895  1.0000
  H   H1350     1.0  0.95406  0.36362  0.08971  1.0000
  H   H1351     1.0  0.57582  0.62927  0.09057  1.0000
  Fe  Fe91      1.0  0.89176  0.35976  0.38047  1.0000
  C   C766      1.0  0.49801  0.34964  0.09146  1.0000
  H   H1352     1.0  0.85755  0.34902  0.22231  1.0000
  H   H1353     1.0  0.92954  0.48310  0.09111  1.0000
  C   C767      1.0  0.89678  0.33782  0.30246  1.0000
  H   H1354     1.0  0.96893  0.33788  0.36978  1.0000
  C   C768      1.0  0.74674  0.45413  0.50621  1.0000
  H   H1355     1.0  0.84282  0.31553  0.23063  1.0000
  N   N40       1.0  0.57346  0.38826  0.51462  1.0000
  C   C769      1.0  0.81535  0.38376  0.30475  1.0000
  C   C770      1.0  0.81620  0.40576  0.27792  1.0000
  C   C771      1.0  0.75479  0.37127  0.31134  1.0000
  H   H1356     1.0  0.58189  0.57091  0.12719  1.0000
  H   H1357     1.0  0.55265  0.61278  0.04475  1.0000
  C   C772      1.0  0.50906  0.50529  0.44283  1.0000
  C   C773      1.0  0.82494  0.43288  0.28744  1.0000
  H   H1358     1.0  0.96272  0.35206  0.45765  1.0000
  C   C774      1.0  0.95849  0.60808  0.04805  1.0000
  H   H1359     1.0  0.50933  0.35252  0.23975  1.0000
  H   H1360     1.0  0.50147  0.35374  0.29662  1.0000
  H   H1361     1.0  0.58795  0.44370  0.51269  1.0000
  H   H1362     1.0  0.73159  0.38848  0.27586  1.0000
  C   C775      1.0  0.51037  0.61534  0.11884  1.0000
  H   H1363     1.0  0.53035  0.36361  0.11606  1.0000
  H   H1364     1.0  0.80464  0.39154  0.32489  1.0000
  H   H1365     1.0  0.83633  0.38209  0.31038  1.0000
  H   H1366     1.0  0.79639  0.40824  0.26938  1.0000
  H   H1367     1.0  0.83091  0.40090  0.25930  1.0000
  C   C776      1.0  0.82179  0.34314  0.27725  1.0000
  H   H1368     1.0  0.76185  0.39133  0.31641  1.0000
  H   H1369     1.0  0.75760  0.47396  0.50170  1.0000
  H   H1370     1.0  0.97640  0.31913  0.30665  1.0000
  H   H1371     1.0  0.72010  0.35518  0.29217  1.0000
  H   H1372     1.0  0.48971  0.39176  0.23364  1.0000
  C   C777      1.0  0.89760  0.42102  0.50582  1.0000
  C   C778      1.0  0.94739  0.37314  0.11051  1.0000
  H   H1373     1.0  0.59148  0.37919  0.47072  1.0000
  H   H1374     1.0  0.80969  0.43965  0.30452  1.0000
  H   H1375     1.0  0.84433  0.43164  0.29733  1.0000
  H   H1376     1.0  0.82714  0.44804  0.26747  1.0000
  H   H1377     1.0  0.53732  0.56134  0.24690  1.0000
  H   H1378     1.0  0.59604  0.43471  0.47494  1.0000
  S   S183      1.0  0.51028  0.33237  0.17689  1.0000
  C   C779      1.0  0.96492  0.44577  0.27911  1.0000
  C   C780      1.0  0.48424  0.35173  0.28329  1.0000
  H   H1379     1.0  0.97123  0.38516  0.38354  1.0000
  H   H1380     1.0  0.90539  0.48772  0.14054  1.0000
  H   H1381     1.0  0.92923  0.46814  0.15971  1.0000
  H   H1382     1.0  0.53567  0.48567  0.07899  1.0000
  Fe  Fe92      1.0  0.49351  0.53964  0.19467  1.0000
  N   N41       1.0  0.80363  0.35669  0.29984  1.0000
  C   C781      1.0  0.96733  0.49553  0.42545  1.0000
  H   H1383     1.0  0.52679  0.50471  0.45587  1.0000
  H   H1384     1.0  0.92756  0.36405  0.11983  1.0000
  C   C782      1.0  0.92663  0.48220  0.13951  1.0000
  C   C783      1.0  0.52325  0.55094  0.29461  1.0000
  C   C784      1.0  0.53041  0.64164  0.07049  1.0000
  N   N42       1.0  0.94163  0.46391  0.27589  1.0000
  C   C785      1.0  0.92268  0.45053  0.25714  1.0000
  C   C786      1.0  0.95237  0.49058  0.25995  1.0000
  H   H1385     1.0  0.97841  0.44222  0.43710  1.0000
  C   C787      1.0  0.92882  0.46725  0.30725  1.0000
  C   C788      1.0  0.90343  0.48385  0.30922  1.0000
  C   C789      1.0  0.90795  0.42445  0.27244  1.0000
  C   C790      1.0  0.49691  0.53697  0.28774  1.0000
  C   C791      1.0  0.94456  0.53603  0.23276  1.0000
  C   C792      1.0  0.88937  0.48090  0.34141  1.0000
  C   C793      1.0  0.89248  0.41068  0.25004  1.0000
  C   C794      1.0  0.53853  0.46248  0.31055  1.0000
  H   H1386     1.0  0.93354  0.44622  0.23520  1.0000
  H   H1387     1.0  0.90658  0.46383  0.25069  1.0000
  H   H1388     1.0  0.93105  0.49832  0.21966  1.0000
  H   H1389     1.0  0.52980  0.49560  0.27949  1.0000
  H   H1390     1.0  0.53614  0.41061  0.22023  1.0000
  H   H1391     1.0  0.95862  0.42720  0.29403  1.0000
  H   H1392     1.0  0.92407  0.44735  0.32015  1.0000
  H   H1393     1.0  0.94307  0.47724  0.32052  1.0000
  H   H1394     1.0  0.88880  0.47758  0.29397  1.0000
  H   H1395     1.0  0.90905  0.50538  0.30336  1.0000
  H   H1396     1.0  0.92174  0.40989  0.28187  1.0000
  H   H1397     1.0  0.89333  0.42922  0.29124  1.0000
  H   H1398     1.0  0.94709  0.62649  0.04554  1.0000
  H   H1399     1.0  0.79049  0.32022  0.32784  1.0000
  H   H1400     1.0  0.94597  0.49484  0.43464  1.0000
  C   C795      1.0  0.96199  0.36494  0.47662  1.0000
  H   H1401     1.0  0.87194  0.49396  0.34266  1.0000
  H   H1402     1.0  0.88194  0.45992  0.34794  1.0000
  H   H1403     1.0  0.90320  0.48673  0.35786  1.0000
  H   H1404     1.0  0.49049  0.36078  0.37249  1.0000
  C   C796      1.0  0.97506  0.39239  0.46538  1.0000
  C   C797      1.0  0.66062  0.41891  0.50165  1.0000
  H   H1405     1.0  0.82041  0.32096  0.28273  1.0000
  C   C798      1.0  0.52764  0.35476  0.09463  1.0000
  H   H1406     1.0  0.55339  0.58026  0.27292  1.0000
  H   H1407     1.0  0.95267  0.38434  0.25625  1.0000
  H   H1408     1.0  0.93150  0.54722  0.21772  1.0000
  H   H1409     1.0  0.96891  0.41400  0.03391  1.0000
  H   H1410     1.0  0.71356  0.41313  0.49471  1.0000
  C   C799      1.0  0.49610  0.36419  0.17606  1.0000
  H   H1411     1.0  0.96975  0.48763  0.24335  1.0000
  H   H1412     1.0  0.51380  0.41689  0.28567  1.0000
  H   H1413     1.0  0.74476  0.40202  0.50392  1.0000
  C   C800      1.0  0.73469  0.41260  0.48536  1.0000
  H   H1414     1.0  0.77594  0.36982  0.26738  1.0000
  C   C801      1.0  0.82153  0.42393  0.46112  1.0000
  H   H1415     1.0  0.55320  0.45533  0.07320  1.0000
  H   H1416     1.0  0.83317  0.33722  0.19933  1.0000
  H   H1417     1.0  0.50309  0.38630  0.32430  1.0000
  H   H1418     1.0  0.95279  0.45195  0.46370  1.0000
  H   H1419     1.0  0.54967  0.45266  0.29225  1.0000
  H   H1420     1.0  0.94565  0.54667  0.25337  1.0000
  C   C802      1.0  0.97343  0.41676  0.09421  1.0000
  H   H1421     1.0  0.49453  0.39171  0.07926  1.0000
  H   H1422     1.0  0.84153  0.32204  0.32680  1.0000
  C   C803      1.0  0.56789  0.61037  0.13635  1.0000
  C   C804      1.0  0.73478  0.39484  0.45880  1.0000
  S   S184      1.0  0.95962  0.31707  0.15852  1.0000
  C   C805      1.0  0.51045  0.54197  0.05943  1.0000
  H   H1423     1.0  0.55091  0.60208  0.15255  1.0000
  H   H1424     1.0  0.71379  0.38369  0.31306  1.0000
  C   C806      1.0  0.53328  0.46431  0.07482  1.0000
  H   H1425     1.0  0.51577  0.32262  0.48206  1.0000
  H   H1426     1.0  0.89026  0.34854  0.25583  1.0000
  C   C807      1.0  0.51982  0.46186  0.04590  1.0000
  H   H1427     1.0  0.53799  0.33551  0.09500  1.0000
  H   H1428     1.0  0.96528  0.46544  0.51039  1.0000
  H   H1429     1.0  0.51976  0.58745  0.26484  1.0000
  H   H1430     1.0  0.92119  0.45077  0.11105  1.0000
  H   H1431     1.0  0.83005  0.44476  0.45704  1.0000
  H   H1432     1.0  0.73520  0.35677  0.48676  1.0000
  H   H1433     1.0  0.52074  0.45364  0.09443  1.0000
  H   H1434     1.0  0.93642  0.41113  0.12444  1.0000
  H   H1435     1.0  0.53706  0.36846  0.07525  1.0000
  H   H1436     1.0  0.95273  0.41345  0.49898  1.0000
  C   C808      1.0  0.48619  0.42795  0.39970  1.0000
  C   C809      1.0  0.65149  0.44400  0.50774  1.0000
  C   C810      1.0  0.51860  0.48143  0.29710  1.0000
  C   C811      1.0  0.72919  0.45543  0.45569  1.0000
  H   H1437     1.0  0.59555  0.58465  0.15852  1.0000
  H   H1438     1.0  0.52727  0.31830  0.27569  1.0000
  H   H1439     1.0  0.49995  0.47349  0.49759  1.0000
  H   H1440     1.0  0.50277  0.46282  0.44602  1.0000
  H   H1441     1.0  0.97434  0.58428  0.08533  1.0000
  H   H1442     1.0  0.55515  0.40730  0.47666  1.0000
  H   H1443     1.0  0.60738  0.59757  0.12025  1.0000
  H   H1444     1.0  0.94569  0.59139  0.04209  1.0000
  H   H1445     1.0  0.79312  0.35918  0.50968  1.0000
  H   H1446     1.0  0.48429  0.37705  0.51235  1.0000
  H   H1447     1.0  0.75012  0.35832  0.33289  1.0000
  N   N43       1.0  0.53345  0.63314  0.10335  1.0000
  C   C812      1.0  0.48182  0.38660  0.33301  1.0000
  C   C813      1.0  0.53170  0.61888  0.04926  1.0000
  H   H1448     1.0  0.49013  0.33423  0.10995  1.0000
  H   H1449     1.0  0.50447  0.46922  0.28593  1.0000
  H   H1450     1.0  0.51949  0.60107  0.05968  1.0000
  C   C814      1.0  0.59695  0.38039  0.49415  1.0000
  H   H1451     1.0  0.97263  0.36546  0.18293  1.0000
  C   C815      1.0  0.49099  0.48026  0.45172  1.0000
  H   H1452     1.0  0.51860  0.50548  0.33527  1.0000
  H   H1453     1.0  0.49970  0.47029  0.04939  1.0000
  C   C816      1.0  0.53596  0.47761  0.01807  1.0000
  Fe  Fe93      1.0  0.48753  0.48366  0.17266  1.0000
  H   H1454     1.0  0.96927  0.48541  0.40433  1.0000
  H   H1455     1.0  0.70218  0.36747  0.47922  1.0000
  C   C817      1.0  0.96269  0.60252  0.08150  1.0000
  H   H1456     1.0  0.50894  0.61651  0.14373  1.0000
  H   H1457     1.0  0.84307  0.34896  0.27892  1.0000
  C   C818      1.0  0.48752  0.39824  0.25687  1.0000
  C   C819      1.0  0.54236  0.35424  0.49308  1.0000
  N   N44       1.0  0.97411  0.44592  0.08229  1.0000
  H   H1458     1.0  0.48295  0.55322  0.28279  1.0000
  C   C820      1.0  0.97416  0.41103  0.49126  1.0000
  H   H1459     1.0  0.96485  0.53596  0.22063  1.0000
  H   H1460     1.0  0.49299  0.48008  0.33824  1.0000
  C   C821      1.0  0.52175  0.62782  0.01873  1.0000
  C   C822      1.0  0.96256  0.36502  0.25951  1.0000
  H   H1461     1.0  0.54800  0.46649  0.49712  1.0000
  H   H1462     1.0  0.97228  0.43915  0.25668  1.0000
  C   C823      1.0  0.97557  0.31714  0.36805  1.0000
  H   H1463     1.0  0.96806  0.63789  0.23048  1.0000
  C   C824      1.0  0.96700  0.43563  0.02744  1.0000
  H   H1464     1.0  0.49319  0.38252  0.03229  1.0000
  H   H1465     1.0  0.50100  0.52807  0.26600  1.0000
  H   H1466     1.0  0.55895  0.34801  0.47739  1.0000
  H   H1467     1.0  0.82602  0.34600  0.50824  1.0000
  C   C825      1.0  0.48228  0.62046  0.10836  1.0000
  C   C826      1.0  0.97646  0.40810  0.18504  1.0000
  H   H1468     1.0  0.50021  0.63191  0.02186  1.0000
  H   H1469     1.0  0.49668  0.34170  0.06938  1.0000
  C   C827      1.0  0.48616  0.52770  0.06756  1.0000
  H   H1470     1.0  0.70502  0.46764  0.50883  1.0000
  N   N45       1.0  0.48399  0.51639  0.31207  1.0000
  C   C828      1.0  0.57934  0.43781  0.49223  1.0000
  H   H1471     1.0  0.97412  0.51679  0.41974  1.0000
  C   C829      1.0  0.97491  0.45254  0.45800  1.0000
  C   C830      1.0  0.48229  0.37554  0.09326  1.0000
  H   H1472     1.0  0.48121  0.61465  0.08510  1.0000
  H   H1473     1.0  0.48162  0.51809  0.09024  1.0000
  H   H1474     1.0  0.48202  0.38100  0.11689  1.0000
  S   S185      1.0  0.90317  0.39387  0.65232  1.0000
  S   S186      1.0  0.83301  0.38688  0.69820  1.0000
  Fe  Fe94      1.0  0.93427  0.40322  0.68321  1.0000
  S   S187      1.0  0.96842  0.37618  0.69304  1.0000
  H   H1475     1.0  0.86182  0.42795  0.76457  1.0000
  Fe  Fe95      1.0  0.67759  0.40879  0.68685  1.0000
  S   S188      1.0  0.67650  0.36834  0.66916  1.0000
  S   S189      1.0  0.71522  0.43094  0.69823  1.0000
  Fe  Fe96      1.0  0.61817  0.41759  0.67695  1.0000
  S   S190      1.0  0.61388  0.37859  0.65734  1.0000
  S   S191      1.0  0.58304  0.44488  0.68223  1.0000
  Fe  Fe97      1.0  0.63609  0.36237  0.69574  1.0000
  C   C831      1.0  0.78594  0.47463  0.79741  1.0000
  Fe  Fe98      1.0  0.65422  0.38868  0.63264  1.0000
  S   S192      1.0  0.66404  0.37986  0.58427  1.0000
  S   S193      1.0  0.63868  0.40100  0.71696  1.0000
  S   S194      1.0  0.65711  0.42941  0.64878  1.0000
  H   H1476     1.0  0.53034  0.46528  0.80193  1.0000
  H   H1477     1.0  0.86331  0.47488  0.75926  1.0000
  C   C832      1.0  0.72146  0.47500  0.54978  1.0000
  H   H1478     1.0  0.63952  0.46918  0.54281  1.0000
  C   C833      1.0  0.65879  0.40493  0.55550  1.0000
  C   C834      1.0  0.48389  0.45697  0.87685  1.0000
  H   H1479     1.0  0.91217  0.44713  0.82609  1.0000
  C   C835      1.0  0.58329  0.39474  0.54414  1.0000
  C   C836      1.0  0.64998  0.43015  0.56180  1.0000
  H   H1480     1.0  0.70996  0.43810  0.53347  1.0000
  H   H1481     1.0  0.64589  0.43463  0.58498  1.0000
  H   H1482     1.0  0.58816  0.48750  0.88109  1.0000
  C   C837      1.0  0.83650  0.39999  0.79524  1.0000
  N   N46       1.0  0.79911  0.39703  0.59031  1.0000
  H   H1483     1.0  0.86289  0.37728  0.76612  1.0000
  H   H1484     1.0  0.80734  0.34347  0.60732  1.0000
  S   S195      1.0  0.97358  0.47715  0.92370  1.0000
  H   H1485     1.0  0.83535  0.47366  0.87252  1.0000
  H   H1486     1.0  0.49020  0.48048  0.94122  1.0000
  H   H1487     1.0  0.86438  0.49232  0.80975  1.0000
  C   C838      1.0  0.59666  0.49208  0.85715  1.0000
  S   S196      1.0  0.52615  0.49210  0.88132  1.0000
  S   S197      1.0  0.48713  0.55784  0.85472  1.0000
  H   H1488     1.0  0.48551  0.45201  0.68765  1.0000
  H   H1489     1.0  0.60176  0.40783  0.53997  1.0000
  H   H1490     1.0  0.51163  0.48411  0.75532  1.0000
  C   C839      1.0  0.52842  0.44872  0.68495  1.0000
  H   H1491     1.0  0.51464  0.37370  0.67650  1.0000
  H   H1492     1.0  0.86219  0.44494  0.81415  1.0000
  C   C840      1.0  0.90504  0.42896  0.55754  1.0000
  C   C841      1.0  0.89756  0.40227  0.56706  1.0000
  C   C842      1.0  0.88995  0.38507  0.54614  1.0000
  H   H1493     1.0  0.72882  0.49561  0.54105  1.0000
  C   C843      1.0  0.84689  0.48230  0.82404  1.0000
  H   H1494     1.0  0.56476  0.37984  0.82036  1.0000
  H   H1495     1.0  0.89733  0.39487  0.59055  1.0000
  H   H1496     1.0  0.88404  0.36445  0.55372  1.0000
  H   H1497     1.0  0.91719  0.33884  0.69625  1.0000
  H   H1498     1.0  0.62398  0.44413  0.76640  1.0000
  H   H1499     1.0  0.96655  0.57991  0.95840  1.0000
  C   C844      1.0  0.92646  0.33290  0.75754  1.0000
  C   C845      1.0  0.54481  0.40470  0.67851  1.0000
  C   C846      1.0  0.55001  0.43176  0.68165  1.0000
  H   H1500     1.0  0.57135  0.51173  0.98646  1.0000
  H   H1501     1.0  0.82761  0.37122  0.76367  1.0000
  H   H1502     1.0  0.94394  0.45959  0.99655  1.0000
  H   H1503     1.0  0.56107  0.39129  0.67645  1.0000
  C   C847      1.0  0.80057  0.39945  0.69550  1.0000
  C   C848      1.0  0.77826  0.38150  0.70072  1.0000
  C   C849      1.0  0.75207  0.39071  0.70031  1.0000
  C   C850      1.0  0.74786  0.41813  0.69548  1.0000
  C   C851      1.0  0.77021  0.43605  0.68973  1.0000
  C   C852      1.0  0.79642  0.42673  0.68912  1.0000
  H   H1504     1.0  0.73510  0.37668  0.70485  1.0000
  H   H1505     1.0  0.76718  0.45728  0.68573  1.0000
  H   H1506     1.0  0.81332  0.44070  0.68408  1.0000
  Fe  Fe99      1.0  0.91054  0.45565  0.69700  1.0000
  S   S198      1.0  0.90372  0.41394  0.71982  1.0000
  S   S199      1.0  0.91896  0.49168  0.72207  1.0000
  Fe  Fe100     1.0  0.90928  0.43685  0.63349  1.0000
  S   S200      1.0  0.91356  0.45131  0.58352  1.0000
  Fe  Fe101     1.0  0.87313  0.40960  0.68647  1.0000
  S   S201      1.0  0.87786  0.45223  0.66610  1.0000
  S   S202      1.0  0.94244  0.44513  0.66182  1.0000
  H   H1507     1.0  0.95841  0.38171  0.58843  1.0000
  H   H1508     1.0  0.84032  0.38659  0.59380  1.0000
  S   S203      1.0  0.92667  0.48746  0.86357  1.0000
  C   C853      1.0  0.84103  0.47428  0.76190  1.0000
  C   C854      1.0  0.95375  0.58569  0.97826  1.0000
  H   H1509     1.0  0.90911  0.44807  0.77065  1.0000
  H   H1510     1.0  0.84275  0.35732  0.79626  1.0000
  H   H1511     1.0  0.53219  0.46967  0.68747  1.0000
  H   H1512     1.0  0.58952  0.37623  0.55696  1.0000
  H   H1513     1.0  0.54159  0.38091  0.98155  1.0000
  N   N47       1.0  0.52751  0.47346  0.98706  1.0000
  H   H1514     1.0  0.84775  0.43291  0.58706  1.0000
  C   C855      1.0  0.50194  0.43876  0.68494  1.0000
  S   S204      1.0  0.96254  0.54114  0.91255  1.0000
  H   H1515     1.0  0.48870  0.39345  0.74395  1.0000
  N   N48       1.0  0.94526  0.32960  0.78195  1.0000
  H   H1516     1.0  0.73523  0.46615  0.56560  1.0000
  C   C856      1.0  0.62037  0.48058  0.73770  1.0000
  H   H1517     1.0  0.95517  0.35207  0.81879  1.0000
  H   H1518     1.0  0.78119  0.36033  0.70552  1.0000
  C   C857      1.0  0.92345  0.48907  0.76105  1.0000
  C   C858      1.0  0.93302  0.51165  0.77358  1.0000
  C   C859      1.0  0.93536  0.51093  0.80483  1.0000
  C   C860      1.0  0.92771  0.48773  0.82388  1.0000
  C   C861      1.0  0.91831  0.46504  0.81136  1.0000
  C   C862      1.0  0.91652  0.46557  0.77999  1.0000
  H   H1519     1.0  0.91981  0.59229  0.95196  1.0000
  H   H1520     1.0  0.94181  0.52871  0.81442  1.0000
  H   H1521     1.0  0.54725  0.43943  0.88723  1.0000
  C   C863      1.0  0.82094  0.38577  0.60808  1.0000
  H   H1522     1.0  0.88853  0.32199  0.71859  1.0000
  H   H1523     1.0  0.80131  0.35646  0.64351  1.0000
  H   H1524     1.0  0.50310  0.50339  0.78686  1.0000
  S   S205      1.0  0.51468  0.62469  0.88886  1.0000
  C   C864      1.0  0.59603  0.32223  0.82205  1.0000
  H   H1525     1.0  0.85876  0.50172  0.86242  1.0000
  H   H1526     1.0  0.51467  0.35904  0.79395  1.0000
  H   H1527     1.0  0.49510  0.44533  0.94956  1.0000
  H   H1528     1.0  0.55651  0.37633  0.76684  1.0000
  H   H1529     1.0  0.85100  0.35712  0.64776  1.0000
  H   H1530     1.0  0.91097  0.58461  0.99238  1.0000
  C   C865      1.0  0.83535  0.43387  0.56767  1.0000
  C   C866      1.0  0.81764  0.37197  0.54409  1.0000
  C   C867      1.0  0.51357  0.37743  0.77828  1.0000
  C   C868      1.0  0.51979  0.49750  0.77096  1.0000
  C   C869      1.0  0.59419  0.41263  0.80633  1.0000
  C   C870      1.0  0.90951  0.31969  0.70917  1.0000
  H   H1531     1.0  0.56414  0.45396  0.97421  1.0000
  C   C871      1.0  0.48717  0.40850  0.88076  1.0000
  H   H1532     1.0  0.94305  0.36837  0.96263  1.0000
  C   C872      1.0  0.53490  0.49887  0.96662  1.0000
  H   H1533     1.0  0.78079  0.39186  0.54896  1.0000
  H   H1534     1.0  0.55803  0.42822  0.55588  1.0000
  C   C873      1.0  0.54224  0.45097  0.97359  1.0000
  H   H1535     1.0  0.70760  0.41552  0.60888  1.0000
  C   C874      1.0  0.56470  0.50865  0.96400  1.0000
  H   H1536     1.0  0.83299  0.36253  0.55727  1.0000
  H   H1537     1.0  0.74760  0.45356  0.81215  1.0000
  H   H1538     1.0  0.75823  0.44233  0.52249  1.0000
  C   C875      1.0  0.54642  0.40116  0.96958  1.0000
  C   C876      1.0  0.56924  0.53526  0.94423  1.0000
  C   C877      1.0  0.62250  0.32731  0.80952  1.0000
  H   H1539     1.0  0.52257  0.51548  0.97422  1.0000
  H   H1540     1.0  0.53028  0.49660  0.94317  1.0000
  C   C878      1.0  0.84107  0.49933  0.70969  1.0000
  H   H1541     1.0  0.61879  0.49218  0.85624  1.0000
  H   H1542     1.0  0.48683  0.43082  0.76788  1.0000
  H   H1543     1.0  0.57888  0.39252  0.60764  1.0000
  H   H1544     1.0  0.86320  0.50168  0.70756  1.0000
  H   H1545     1.0  0.79337  0.43326  0.80714  1.0000
  H   H1546     1.0  0.48748  0.48703  0.99667  1.0000
  C   C879      1.0  0.97366  0.33057  0.76737  1.0000
  H   H1547     1.0  0.92205  0.39819  0.82662  1.0000
  H   H1548     1.0  0.57773  0.49403  0.95331  1.0000
  H   H1549     1.0  0.64939  0.33282  0.76850  1.0000
  S   S206      1.0  0.58932  0.31695  0.86156  1.0000
  C   C880      1.0  0.77381  0.39620  0.61173  1.0000
  C   C881      1.0  0.75021  0.41157  0.59917  1.0000
  C   C882      1.0  0.49685  0.41168  0.68173  1.0000
  H   H1550     1.0  0.59341  0.42478  0.59164  1.0000
  H   H1551     1.0  0.51337  0.41849  0.99308  1.0000
  C   C883      1.0  0.49756  0.55216  0.00843  1.0000
  H   H1552     1.0  0.55978  0.34907  0.53610  1.0000
  H   H1553     1.0  0.56346  0.53317  0.92109  1.0000
  H   H1554     1.0  0.55739  0.55105  0.95443  1.0000
  H   H1555     1.0  0.59070  0.54163  0.94232  1.0000
  H   H1556     1.0  0.92180  0.55859  0.96938  1.0000
  C   C884      1.0  0.57467  0.41215  0.59575  1.0000
  H   H1557     1.0  0.74783  0.40815  0.57540  1.0000
  C   C885      1.0  0.53516  0.42245  0.98910  1.0000
  H   H1558     1.0  0.65449  0.49263  0.70513  1.0000
  C   C886      1.0  0.80584  0.42608  0.57917  1.0000
  C   C887      1.0  0.58207  0.32237  0.77148  1.0000
  H   H1559     1.0  0.78916  0.47844  0.82090  1.0000
  H   H1560     1.0  0.63993  0.46025  0.70122  1.0000
  H   H1561     1.0  0.53970  0.39829  0.74127  1.0000
  C   C888      1.0  0.95929  0.61563  0.98223  1.0000
  C   C889      1.0  0.97205  0.37041  0.60267  1.0000
  C   C890      1.0  0.83164  0.47388  0.72990  1.0000
  H   H1562     1.0  0.71854  0.38185  0.61550  1.0000
  H   H1563     1.0  0.56652  0.31992  0.75673  1.0000
  H   H1564     1.0  0.74570  0.48915  0.80302  1.0000
  H   H1565     1.0  0.54397  0.41979  0.01101  1.0000
  S   S207      1.0  0.53245  0.34169  0.91396  1.0000
  C   C891      1.0  0.56308  0.40820  0.56598  1.0000
  H   H1566     1.0  0.78129  0.36231  0.57338  1.0000
  H   H1567     1.0  0.89293  0.38134  0.84744  1.0000
  H   H1568     1.0  0.56848  0.40381  0.96503  1.0000
  Fe  Fe102     1.0  0.48976  0.58579  0.89143  1.0000
  H   H1569     1.0  0.92726  0.42856  0.01335  1.0000
  C   C892      1.0  0.51099  0.46006  0.88074  1.0000
  H   H1570     1.0  0.82959  0.49505  0.82146  1.0000
  C   C893      1.0  0.81570  0.35665  0.62293  1.0000
  H   H1571     1.0  0.95822  0.57264  0.99845  1.0000
  H   H1572     1.0  0.53950  0.45122  0.94904  1.0000
  N   N49       1.0  0.58610  0.46018  0.78190  1.0000
  C   C894      1.0  0.57401  0.43331  0.79537  1.0000
  C   C895      1.0  0.56476  0.47598  0.76749  1.0000
  C   C896      1.0  0.60738  0.45522  0.75692  1.0000
  C   C897      1.0  0.59874  0.47574  0.80466  1.0000
  C   C898      1.0  0.58635  0.47102  0.83807  1.0000
  C   C899      1.0  0.54050  0.48322  0.78890  1.0000
  H   H1573     1.0  0.87007  0.46820  0.86093  1.0000
  C   C900      1.0  0.80045  0.44926  0.78895  1.0000
  C   C901      1.0  0.58073  0.39111  0.82992  1.0000
  H   H1574     1.0  0.56291  0.42395  0.77841  1.0000
  H   H1575     1.0  0.55860  0.43543  0.81444  1.0000
  H   H1576     1.0  0.57320  0.49553  0.75631  1.0000
  H   H1577     1.0  0.55714  0.46508  0.74914  1.0000
  H   H1578     1.0  0.59914  0.44201  0.74109  1.0000
  H   H1579     1.0  0.59871  0.49761  0.79753  1.0000
  H   H1580     1.0  0.59151  0.45114  0.84843  1.0000
  Fe  Fe103     1.0  0.96083  0.50516  0.88589  1.0000
  H   H1581     1.0  0.60622  0.48928  0.72217  1.0000
  H   H1582     1.0  0.50192  0.56207  0.98587  1.0000
  H   H1583     1.0  0.57201  0.40017  0.85023  1.0000
  C   C902      1.0  0.75578  0.47093  0.79631  1.0000
  H   H1584     1.0  0.90411  0.33909  0.82630  1.0000
  C   C903      1.0  0.80872  0.35125  0.52367  1.0000
  C   C904      1.0  0.79347  0.38079  0.56453  1.0000
  H   H1585     1.0  0.51498  0.39507  0.79130  1.0000
  H   H1586     1.0  0.59582  0.37682  0.83717  1.0000
  C   C905      1.0  0.51838  0.39471  0.67867  1.0000
  S   S208      1.0  0.61704  0.32439  0.72032  1.0000
  C   C906      1.0  0.84292  0.37499  0.77927  1.0000
  C   C907      1.0  0.52627  0.43726  0.88423  1.0000
  C   C908      1.0  0.90536  0.43822  0.52679  1.0000
  H   H1587     1.0  0.83687  0.32429  0.64457  1.0000
  H   H1588     1.0  0.75117  0.46770  0.77300  1.0000
  H   H1589     1.0  0.83461  0.49815  0.68671  1.0000
  C   C909      1.0  0.94218  0.35356  0.79997  1.0000
  H   H1590     1.0  0.85955  0.46805  0.54582  1.0000
  C   C910      1.0  0.94682  0.43821  0.00392  1.0000
  H   H1591     1.0  0.67112  0.38000  0.52057  1.0000
  C   C911      1.0  0.91352  0.35797  0.81450  1.0000
  H   H1592     1.0  0.54697  0.49725  0.80481  1.0000
  Fe  Fe104     1.0  0.49440  0.33987  0.89221  1.0000
  H   H1593     1.0  0.56440  0.47157  0.83988  1.0000
  H   H1594     1.0  0.50674  0.33436  0.51852  1.0000
  C   C912      1.0  0.66404  0.39939  0.52543  1.0000
  H   H1595     1.0  0.80097  0.43900  0.59786  1.0000
  H   H1596     1.0  0.55525  0.31678  0.81249  1.0000
  H   H1597     1.0  0.97630  0.46158  0.80307  1.0000
  C   C913      1.0  0.91367  0.37859  0.83760  1.0000
  H   H1598     1.0  0.75361  0.43339  0.60025  1.0000
  H   H1599     1.0  0.97155  0.34922  0.59748  1.0000
  H   H1600     1.0  0.54436  0.39580  0.57156  1.0000
  C   C914      1.0  0.83811  0.46250  0.55237  1.0000
  H   H1601     1.0  0.49012  0.45234  0.00539  1.0000
  H   H1602     1.0  0.92567  0.37168  0.85631  1.0000
  H   H1603     1.0  0.96518  0.34505  0.94584  1.0000
  H   H1604     1.0  0.90084  0.36568  0.79686  1.0000
  C   C915      1.0  0.85310  0.48130  0.85700  1.0000
  H   H1605     1.0  0.79269  0.49247  0.78170  1.0000
  N   N50       1.0  0.83061  0.45130  0.78474  1.0000
  H   H1606     1.0  0.48781  0.35833  0.75053  1.0000
  C   C916      1.0  0.71904  0.45780  0.52364  1.0000
  H   H1607     1.0  0.85011  0.40093  0.81331  1.0000
  H   H1608     1.0  0.80955  0.47238  0.73079  1.0000
  C   C917      1.0  0.84016  0.42571  0.77263  1.0000
  H   H1609     1.0  0.93812  0.52999  0.75914  1.0000
  H   H1610     1.0  0.82999  0.47681  0.56813  1.0000
  H   H1611     1.0  0.85576  0.34250  0.61221  1.0000
  H   H1612     1.0  0.53454  0.37258  0.53442  1.0000
  H   H1613     1.0  0.82949  0.44174  0.83336  1.0000
  H   H1614     1.0  0.53707  0.36239  0.73998  1.0000
  H   H1615     1.0  0.94907  0.37224  0.78545  1.0000
  H   H1616     1.0  0.80078  0.33263  0.53749  1.0000
  H   H1617     1.0  0.96617  0.41312  0.80619  1.0000
  C   C918      1.0  0.64636  0.44968  0.53790  1.0000
  H   H1618     1.0  0.52642  0.39420  0.88648  1.0000
  H   H1619     1.0  0.48032  0.44372  0.59910  1.0000
  H   H1620     1.0  0.72472  0.40619  0.64171  1.0000
  H   H1621     1.0  0.83567  0.49387  0.76978  1.0000
  Fe  Fe105     1.0  0.97979  0.51369  0.94790  1.0000
  H   H1622     1.0  0.62025  0.47122  0.80519  1.0000
  H   H1623     1.0  0.61082  0.42235  0.81638  1.0000
  H   H1624     1.0  0.62620  0.49600  0.75231  1.0000
  H   H1625     1.0  0.60304  0.40252  0.78676  1.0000
  C   C919      1.0  0.72371  0.40321  0.61755  1.0000
  H   H1626     1.0  0.59026  0.51225  0.84898  1.0000
  H   H1627     1.0  0.84378  0.42052  0.55128  1.0000
  H   H1628     1.0  0.52877  0.51595  0.75765  1.0000
  C   C920      1.0  0.62880  0.32975  0.77804  1.0000
  H   H1629     1.0  0.96456  0.37135  0.62680  1.0000
  C   C921      1.0  0.64534  0.47401  0.71788  1.0000
  H   H1630     1.0  0.56011  0.42225  0.61078  1.0000
  H   H1631     1.0  0.70148  0.47620  0.56251  1.0000
  C   C922      1.0  0.51442  0.41156  0.88412  1.0000
  H   H1632     1.0  0.84009  0.45670  0.71896  1.0000
  H   H1633     1.0  0.66039  0.46467  0.73177  1.0000
  H   H1634     1.0  0.97722  0.34828  0.75030  1.0000
  H   H1635     1.0  0.94183  0.62264  0.99596  1.0000
  S   S209      1.0  0.96608  0.51453  0.99776  1.0000
  H   H1636     1.0  0.77775  0.40473  0.63315  1.0000
  C   C923      1.0  0.84145  0.34447  0.63241  1.0000
  C   C924      1.0  0.55253  0.36580  0.52120  1.0000
  H   H1637     1.0  0.82452  0.39853  0.62660  1.0000
  H   H1638     1.0  0.79240  0.44271  0.76829  1.0000
  H   H1639     1.0  0.63826  0.32880  0.82422  1.0000
  H   H1640     1.0  0.82749  0.46423  0.53161  1.0000
  H   H1641     1.0  0.96302  0.42862  0.76855  1.0000
  H   H1642     1.0  0.97812  0.38175  0.99471  1.0000
  H   H1643     1.0  0.82984  0.42146  0.75249  1.0000
  H   H1644     1.0  0.81576  0.39715  0.80613  1.0000
  C   C925      1.0  0.84208  0.45370  0.81459  1.0000
  C   C926      1.0  0.53813  0.37865  0.75511  1.0000
  C   C927      1.0  0.92474  0.58010  0.97266  1.0000
  S   S210      1.0  0.50479  0.55378  0.92353  1.0000
  H   H1645     1.0  0.83236  0.51722  0.71908  1.0000
  H   H1646     1.0  0.79320  0.43292  0.56102  1.0000
  H   H1647     1.0  0.93024  0.35296  0.74450  1.0000
  H   H1648     1.0  0.53742  0.40226  0.94771  1.0000
  H   H1649     1.0  0.61877  0.35576  0.52640  1.0000
  H   H1650     1.0  0.82681  0.38926  0.52904  1.0000
  Fe  Fe106     1.0  0.49757  0.52529  0.88923  1.0000
  C   C928      1.0  0.57570  0.32046  0.80299  1.0000
  H   H1651     1.0  0.95425  0.42826  0.98370  1.0000
  H   H1652     1.0  0.53314  0.64603  0.00778  1.0000
  H   H1653     1.0  0.96868  0.34675  0.00153  1.0000
  C   C929      1.0  0.97925  0.36234  0.98484  1.0000
  C   C930      1.0  0.49752  0.46917  0.98855  1.0000
  H   H1654     1.0  0.90537  0.33243  0.76769  1.0000
  H   H1655     1.0  0.97321  0.38065  0.93976  1.0000
  C   C931      1.0  0.48624  0.46326  0.95861  1.0000
  H   H1656     1.0  0.96958  0.39616  0.86312  1.0000
  H   H1657     1.0  0.96318  0.42809  0.54772  1.0000
  C   C932      1.0  0.48745  0.37681  0.76241  1.0000
  H   H1658     1.0  0.91111  0.45889  0.51930  1.0000
  H   H1659     1.0  0.95899  0.62689  0.95949  1.0000
  H   H1660     1.0  0.76662  0.37514  0.61886  1.0000
  C   C933      1.0  0.60868  0.32667  0.75903  1.0000
  H   H1661     1.0  0.97215  0.60418  0.88923  1.0000
  H   H1662     1.0  0.96930  0.47446  0.56479  1.0000
  C   C934      1.0  0.97540  0.64569  0.89816  1.0000
  C   C935      1.0  0.96433  0.36420  0.95649  1.0000
  H   H1663     1.0  0.49319  0.46010  0.54583  1.0000
  H   H1664     1.0  0.52436  0.61169  0.00341  1.0000
  C   C936      1.0  0.97734  0.42337  0.78545  1.0000
  H   H1665     1.0  0.48370  0.38381  0.97870  1.0000
  H   H1666     1.0  0.95403  0.64814  0.89998  1.0000
  C   C937      1.0  0.88973  0.39442  0.51556  1.0000
  H   H1667     1.0  0.71638  0.93107  0.44244  1.0000
  C   C938      1.0  0.94849  0.93399  0.02545  1.0000
  S   S211      1.0  0.60548  0.92293  0.35170  1.0000
  C   C939      1.0  0.48601  0.92045  0.27980  1.0000
  Fe  Fe107     1.0  0.60842  0.94572  0.43221  1.0000
  S   S212      1.0  0.61147  0.90298  0.42264  1.0000
  S   S213      1.0  0.61177  0.95970  0.47829  1.0000
  Fe  Fe108     1.0  0.63908  0.91935  0.38205  1.0000
  S   S214      1.0  0.67695  0.89589  0.37557  1.0000
  Fe  Fe109     1.0  0.57780  0.91063  0.39376  1.0000
  S   S215      1.0  0.54309  0.88056  0.39372  1.0000
  Fe  Fe110     1.0  0.60188  0.96440  0.36644  1.0000
  S   S216      1.0  0.57257  0.95219  0.40694  1.0000
  Fe  Fe111     1.0  0.85502  0.88312  0.44630  1.0000
  S   S217      1.0  0.85938  0.92580  0.42629  1.0000
  Fe  Fe112     1.0  0.85680  0.86217  0.38373  1.0000
  S   S218      1.0  0.86085  0.90350  0.35948  1.0000
  S   S219      1.0  0.84999  0.82491  0.36028  1.0000
  Fe  Fe113     1.0  0.89041  0.91061  0.39301  1.0000
  S   S220      1.0  0.92953  0.93391  0.37913  1.0000
  Fe  Fe114     1.0  0.82924  0.91409  0.39537  1.0000
  S   S221      1.0  0.79470  0.94120  0.38694  1.0000
  S   S222      1.0  0.88805  0.86853  0.41526  1.0000
  S   S223      1.0  0.82311  0.87225  0.41735  1.0000
  H   H1668     1.0  0.84090  0.96765  0.31175  1.0000
  S   S224      1.0  0.95792  0.80613  0.20453  1.0000
  S   S225      1.0  0.49844  0.82804  0.20983  1.0000
  H   H1669     1.0  0.52997  0.65040  0.20098  1.0000
  C   C940      1.0  0.69308  0.92184  0.48719  1.0000
  C   C941      1.0  0.53714  0.65785  0.11959  1.0000
  H   H1670     1.0  0.92158  0.90246  0.05126  1.0000
  S   S226      1.0  0.95396  0.78314  0.12325  1.0000
  Fe  Fe115     1.0  0.95641  0.76949  0.23769  1.0000
  S   S227      1.0  0.92589  0.75720  0.27737  1.0000
  H   H1671     1.0  0.54637  0.65688  0.06109  1.0000
  H   H1672     1.0  0.57012  0.78386  0.12965  1.0000
  C   C942      1.0  0.87312  0.80790  0.33744  1.0000
  C   C943      1.0  0.86873  0.78029  0.33775  1.0000
  C   C944      1.0  0.88527  0.76544  0.31924  1.0000
  C   C945      1.0  0.90619  0.77796  0.29955  1.0000
  C   C946      1.0  0.91086  0.80575  0.29894  1.0000
  C   C947      1.0  0.89437  0.82076  0.31813  1.0000
  H   H1673     1.0  0.85236  0.77023  0.35244  1.0000
  H   H1674     1.0  0.88158  0.74404  0.31994  1.0000
  H   H1675     1.0  0.92704  0.81558  0.28378  1.0000
  H   H1676     1.0  0.89773  0.84218  0.31758  1.0000
  C   C948      1.0  0.51024  0.89208  0.39709  1.0000
  C   C949      1.0  0.50543  0.91885  0.40075  1.0000
  H   H1677     1.0  0.49780  0.91932  0.46591  1.0000
  Fe  Fe116     1.0  0.96987  0.77846  0.16917  1.0000
  H   H1678     1.0  0.74301  0.87991  0.29710  1.0000
  H   H1679     1.0  0.78447  0.88268  0.47208  1.0000
  H   H1680     1.0  0.52181  0.93283  0.40190  1.0000
  H   H1681     1.0  0.53989  0.91062  0.49200  1.0000
  H   H1682     1.0  0.94254  0.87802  0.39336  1.0000
  H   H1683     1.0  0.48488  0.90187  0.26813  1.0000
  C   C950      1.0  0.70872  0.90947  0.38135  1.0000
  C   C951      1.0  0.71564  0.93668  0.37436  1.0000
  C   C952      1.0  0.74191  0.94626  0.37671  1.0000
  C   C953      1.0  0.76141  0.92879  0.38626  1.0000
  C   C954      1.0  0.75412  0.90184  0.39455  1.0000
  C   C955      1.0  0.72799  0.89219  0.39180  1.0000
  H   H1684     1.0  0.70098  0.95022  0.36629  1.0000
  H   H1685     1.0  0.93545  0.85286  0.15610  1.0000
  H   H1686     1.0  0.76884  0.88842  0.40247  1.0000
  H   H1687     1.0  0.72259  0.87123  0.39768  1.0000
  C   C956      1.0  0.80237  0.94192  0.51225  1.0000
  H   H1688     1.0  0.56052  0.93735  0.14330  1.0000
  H   H1689     1.0  0.65771  0.83242  0.46209  1.0000
  H   H1690     1.0  0.87736  0.92220  0.48640  1.0000
  C   C957      1.0  0.50488  0.88279  0.19924  1.0000
  C   C958      1.0  0.81442  0.95541  0.48162  1.0000
  H   H1691     1.0  0.78204  0.81783  0.42806  1.0000
  H   H1692     1.0  0.58486  0.91228  0.13782  1.0000
  H   H1693     1.0  0.52507  0.87989  0.20491  1.0000
  H   H1694     1.0  0.51009  0.92592  0.19069  1.0000
  H   H1695     1.0  0.48470  0.94476  0.23629  1.0000
  H   H1696     1.0  0.55573  0.83595  0.04777  1.0000
  C   C959      1.0  0.69582  0.93270  0.45320  1.0000
  H   H1697     1.0  0.90612  0.82295  0.38177  1.0000
  C   C960      1.0  0.48733  0.86045  0.19981  1.0000
  C   C961      1.0  0.60318  0.90822  0.50510  1.0000
  H   H1698     1.0  0.79523  0.88087  0.35362  1.0000
  H   H1699     1.0  0.77834  0.80075  0.27094  1.0000
  C   C962      1.0  0.94339  0.93029  0.30186  1.0000
  C   C963      1.0  0.50988  0.78212  0.31842  1.0000
  H   H1700     1.0  0.80983  0.92132  0.51433  1.0000
  H   H1701     1.0  0.48870  0.90683  0.02734  1.0000
  C   C964      1.0  0.53214  0.77779  0.29370  1.0000
  H   H1702     1.0  0.51326  0.95522  0.03126  1.0000
  H   H1703     1.0  0.73643  0.81833  0.30748  1.0000
  H   H1704     1.0  0.74195  0.91031  0.49960  1.0000
  H   H1705     1.0  0.94754  0.78538  0.05949  1.0000
  S   S228      1.0  0.96329  0.74126  0.20149  1.0000
  H   H1706     1.0  0.97518  0.91286  0.27419  1.0000
  H   H1707     1.0  0.75938  0.84289  0.41648  1.0000
  H   H1708     1.0  0.59375  0.90390  0.48529  1.0000
  C   C965      1.0  0.79569  0.80546  0.28341  1.0000
  C   C966      1.0  0.48894  0.66104  0.20943  1.0000
  H   H1709     1.0  0.70345  0.97455  0.46023  1.0000
  H   H1710     1.0  0.66858  0.96521  0.45899  1.0000
  C   C967      1.0  0.96691  0.90188  0.20912  1.0000
  H   H1711     1.0  0.92438  0.77967  0.36483  1.0000
  C   C968      1.0  0.73168  0.86122  0.30661  1.0000
  H   H1712     1.0  0.65122  0.89199  0.47133  1.0000
  H   H1713     1.0  0.97716  0.72520  0.12969  1.0000
  H   H1714     1.0  0.83349  0.78712  0.29103  1.0000
  H   H1715     1.0  0.48078  0.81569  0.36081  1.0000
  H   H1716     1.0  0.82475  0.90355  0.30915  1.0000
  H   H1717     1.0  0.94623  0.82027  0.34260  1.0000
  H   H1718     1.0  0.50391  0.94326  0.08668  1.0000
  C   C969      1.0  0.48742  0.95743  0.08579  1.0000
  C   C970      1.0  0.95998  0.91788  0.38336  1.0000
  H   H1719     1.0  0.53690  0.77252  0.12295  1.0000
  H   H1720     1.0  0.71350  0.85800  0.26449  1.0000
  N   N51       1.0  0.92386  0.97642  0.28761  1.0000
  H   H1721     1.0  0.54581  0.77292  0.16107  1.0000
  H   H1722     1.0  0.96047  0.89152  0.30688  1.0000
  H   H1723     1.0  0.90808  0.92846  0.09453  1.0000
  C   C971      1.0  0.68927  0.96225  0.44919  1.0000
  C   C972      1.0  0.78788  0.88332  0.33089  1.0000
  H   H1724     1.0  0.80430  0.80703  0.32940  1.0000
  C   C973      1.0  0.74605  0.86754  0.49560  1.0000
  H   H1725     1.0  0.94534  0.90214  0.21255  1.0000
  N   N52       1.0  0.51426  0.92609  0.28668  1.0000
  C   C974      1.0  0.53245  0.92727  0.25762  1.0000
  C   C975      1.0  0.54058  0.85156  0.04636  1.0000
  C   C976      1.0  0.51697  0.95252  0.29981  1.0000
  C   C977      1.0  0.52164  0.90412  0.30957  1.0000
  C   C978      1.0  0.52431  0.87597  0.29815  1.0000
  C   C979      1.0  0.56282  0.92843  0.26107  1.0000
  C   C980      1.0  0.89663  0.96779  0.30332  1.0000
  S   S229      1.0  0.63770  0.96202  0.39316  1.0000
  H   H1726     1.0  0.96637  0.92994  0.03776  1.0000
  C   C981      1.0  0.53514  0.85640  0.32192  1.0000
  C   C982      1.0  0.57914  0.92702  0.23057  1.0000
  C   C983      1.0  0.49645  0.90879  0.19119  1.0000
  H   H1727     1.0  0.52861  0.94529  0.24229  1.0000
  H   H1728     1.0  0.52804  0.91004  0.24478  1.0000
  C   C984      1.0  0.74958  0.83685  0.30329  1.0000
  H   H1729     1.0  0.95228  0.70745  0.11206  1.0000
  H   H1730     1.0  0.77292  0.79098  0.32584  1.0000
  C   C985      1.0  0.93494  0.79152  0.38021  1.0000
  H   H1731     1.0  0.54051  0.90968  0.31907  1.0000
  H   H1732     1.0  0.90931  0.96974  0.22746  1.0000
  H   H1733     1.0  0.53818  0.87627  0.27726  1.0000
  H   H1734     1.0  0.51143  0.65180  0.06790  1.0000
  H   H1735     1.0  0.56844  0.94728  0.27019  1.0000
  H   H1736     1.0  0.56886  0.91169  0.27664  1.0000
  S   S230      1.0  0.84867  0.87033  0.49650  1.0000
  H   H1737     1.0  0.53580  0.87571  0.48615  1.0000
  C   C986      1.0  0.65975  0.87237  0.47747  1.0000
  C   C987      1.0  0.80314  0.90743  0.31292  1.0000
  H   H1738     1.0  0.73866  0.90002  0.46345  1.0000
  H   H1739     1.0  0.52086  0.84129  0.04625  1.0000
  H   H1740     1.0  0.92485  0.92245  0.31572  1.0000
  H   H1741     1.0  0.55424  0.86440  0.32877  1.0000
  H   H1742     1.0  0.52047  0.85264  0.34225  1.0000
  H   H1743     1.0  0.53924  0.83717  0.31242  1.0000
  H   H1744     1.0  0.57343  0.94281  0.21350  1.0000
  H   H1745     1.0  0.50254  0.76223  0.32923  1.0000
  H   H1746     1.0  0.57596  0.90714  0.22225  1.0000
  H   H1747     1.0  0.49090  0.82197  0.09383  1.0000
  H   H1748     1.0  0.94382  0.92636  0.08927  1.0000
  H   H1749     1.0  0.88563  0.95496  0.28922  1.0000
  H   H1750     1.0  0.96567  0.75704  0.36048  1.0000
  H   H1751     1.0  0.89746  0.79396  0.40822  1.0000
  C   C988      1.0  0.78616  0.80876  0.31700  1.0000
  H   H1752     1.0  0.51880  0.79280  0.33597  1.0000
  H   H1753     1.0  0.54845  0.76682  0.30384  1.0000
  C   C989      1.0  0.49435  0.96572  0.02837  1.0000
  H   H1754     1.0  0.49415  0.69121  0.01936  1.0000
  C   C990      1.0  0.96806  0.78084  0.06245  1.0000
  H   H1755     1.0  0.69719  0.85392  0.48119  1.0000
  H   H1756     1.0  0.54122  0.90074  0.45432  1.0000
  C   C991      1.0  0.93731  0.95212  0.27682  1.0000
  H   H1757     1.0  0.69094  0.96930  0.42468  1.0000
  H   H1758     1.0  0.53660  0.71525  0.11345  1.0000
  H   H1759     1.0  0.55852  0.90715  0.16867  1.0000
  H   H1760     1.0  0.49214  0.85344  0.39293  1.0000
  C   C992      1.0  0.51376  0.67719  0.12098  1.0000
  H   H1761     1.0  0.96145  0.77054  0.32335  1.0000
  H   H1762     1.0  0.92476  0.94207  0.26172  1.0000
  C   C993      1.0  0.54858  0.78365  0.13796  1.0000
  H   H1763     1.0  0.81295  0.85139  0.31981  1.0000
  C   C994      1.0  0.65014  0.85264  0.45641  1.0000
  H   H1764     1.0  0.49843  0.87887  0.11264  1.0000
  H   H1765     1.0  0.69825  0.87936  0.45075  1.0000
  H   H1766     1.0  0.68189  0.92160  0.44058  1.0000
  H   H1767     1.0  0.69512  0.87698  0.29138  1.0000
  N   N53       1.0  0.70253  0.89390  0.49434  1.0000
  S   S231      1.0  0.48448  0.76350  0.16948  1.0000
  C   C995      1.0  0.92628  0.93473  0.07904  1.0000
  H   H1768     1.0  0.65700  0.85960  0.43243  1.0000
  H   H1769     1.0  0.54026  0.65232  0.14369  1.0000
  N   N54       1.0  0.53406  0.85635  0.10478  1.0000
  C   C996      1.0  0.54322  0.82793  0.10722  1.0000
  C   C997      1.0  0.54136  0.86949  0.07291  1.0000
  C   C998      1.0  0.54888  0.87154  0.12618  1.0000
  C   C999      1.0  0.50457  0.85775  0.11422  1.0000
  C   C1000     1.0  0.53898  0.81220  0.13903  1.0000
  C   C1001     1.0  0.54555  0.90236  0.12407  1.0000
  H   H1770     1.0  0.67174  0.92332  0.49596  1.0000
  C   C1002     1.0  0.56348  0.91546  0.14476  1.0000
  H   H1771     1.0  0.56497  0.82783  0.09949  1.0000
  H   H1772     1.0  0.52846  0.88676  0.06828  1.0000
  H   H1773     1.0  0.56228  0.87798  0.07052  1.0000
  H   H1774     1.0  0.57068  0.86798  0.12270  1.0000
  H   H1775     1.0  0.54229  0.86412  0.15015  1.0000
  H   H1776     1.0  0.49999  0.85041  0.13855  1.0000
  C   C1003     1.0  0.49624  0.95681  0.32678  1.0000
  H   H1777     1.0  0.55040  0.82168  0.15551  1.0000
  H   H1778     1.0  0.51754  0.81095  0.14759  1.0000
  H   H1779     1.0  0.52466  0.90716  0.13123  1.0000
  H   H1780     1.0  0.55099  0.91199  0.10078  1.0000
  S   S232      1.0  0.96539  0.95649  0.19848  1.0000
  C   C1004     1.0  0.48852  0.87422  0.39553  1.0000
  C   C1005     1.0  0.48680  0.89672  0.51023  1.0000
  H   H1781     1.0  0.53243  0.70089  0.15247  1.0000
  C   C1006     1.0  0.61346  0.93401  0.50743  1.0000
  C   C1007     1.0  0.95671  0.81033  0.36128  1.0000
  H   H1782     1.0  0.89863  0.95495  0.32468  1.0000
  H   H1783     1.0  0.96795  0.85909  0.21894  1.0000
  H   H1784     1.0  0.53321  0.81566  0.09185  1.0000
  H   H1785     1.0  0.95734  0.93820  0.31694  1.0000
  C   C1008     1.0  0.95851  0.85824  0.11185  1.0000
  H   H1786     1.0  0.97062  0.66474  0.03424  1.0000
  C   C1009     1.0  0.69067  0.87451  0.47501  1.0000
  H   H1787     1.0  0.55559  0.66942  0.10932  1.0000
  H   H1788     1.0  0.60072  0.93009  0.23314  1.0000
  H   H1789     1.0  0.80689  0.97586  0.47748  1.0000
  N   N55       1.0  0.77238  0.83438  0.32298  1.0000
  S   S233      1.0  0.49758  0.69562  0.20887  1.0000
  C   C1010     1.0  0.53130  0.89643  0.47769  1.0000
  C   C1011     1.0  0.81481  0.78250  0.28085  1.0000
  H   H1790     1.0  0.82020  0.77970  0.25663  1.0000
  H   H1791     1.0  0.65150  0.86493  0.50083  1.0000
  C   C1012     1.0  0.92386  0.92462  0.04809  1.0000
  H   H1792     1.0  0.75053  0.80784  0.41558  1.0000
  H   H1793     1.0  0.85357  0.96609  0.34850  1.0000
  H   H1794     1.0  0.94588  0.88721  0.14379  1.0000
  H   H1795     1.0  0.50598  0.68176  0.09883  1.0000
  C   C1013     1.0  0.76720  0.82316  0.41180  1.0000
  C   C1014     1.0  0.70729  0.85905  0.28894  1.0000
  H   H1796     1.0  0.80538  0.76351  0.29246  1.0000
  H   H1797     1.0  0.91915  0.87136  0.12703  1.0000
  H   H1798     1.0  0.53710  0.95483  0.30789  1.0000
  C   C1015     1.0  0.95621  0.90649  0.28823  1.0000
  H   H1799     1.0  0.74727  0.96721  0.37051  1.0000
  H   H1800     1.0  0.48450  0.72437  0.02320  1.0000
  H   H1801     1.0  0.76667  0.88834  0.33408  1.0000
  H   H1802     1.0  0.94242  0.89692  0.27407  1.0000
  H   H1803     1.0  0.69459  0.84106  0.29796  1.0000
  H   H1804     1.0  0.94800  0.95619  0.02129  1.0000
  H   H1805     1.0  0.92341  0.81745  0.41537  1.0000
  C   C1016     1.0  0.50116  0.89936  0.47757  1.0000
  H   H1806     1.0  0.49545  0.97797  0.08776  1.0000
  H   H1807     1.0  0.72404  0.86306  0.33045  1.0000
  H   H1808     1.0  0.79514  0.91189  0.29071  1.0000
  C   C1017     1.0  0.96078  0.89017  0.39036  1.0000
  H   H1809     1.0  0.75189  0.85037  0.36209  1.0000
  H   H1810     1.0  0.80077  0.92532  0.32560  1.0000
  C   C1018     1.0  0.78068  0.82403  0.37945  1.0000
  H   H1811     1.0  0.79767  0.83874  0.37684  1.0000
  C   C1019     1.0  0.93866  0.86811  0.13621  1.0000
  H   H1812     1.0  0.95635  0.95805  0.26262  1.0000
  H   H1813     1.0  0.80629  0.82389  0.27199  1.0000
  C   C1020     1.0  0.91426  0.80750  0.39744  1.0000
  H   H1814     1.0  0.75719  0.83846  0.27891  1.0000
  C   C1021     1.0  0.76093  0.83168  0.35578  1.0000
  H   H1815     1.0  0.80874  0.94352  0.46327  1.0000
  H   H1816     1.0  0.94324  0.77732  0.39702  1.0000
  H   H1817     1.0  0.52610  0.76501  0.06692  1.0000
  H   H1818     1.0  0.52436  0.76573  0.27655  1.0000
  H   H1819     1.0  0.78845  0.80384  0.37695  1.0000
  C   C1022     1.0  0.79256  0.85749  0.31489  1.0000
  H   H1820     1.0  0.49692  0.81941  0.29995  1.0000
  H   H1821     1.0  0.74425  0.81625  0.35947  1.0000
  H   H1822     1.0  0.62796  0.85112  0.45895  1.0000
  H   H1823     1.0  0.79441  0.86313  0.29000  1.0000
  C   C1023     1.0  0.50191  0.78375  0.03428  1.0000
  H   H1824     1.0  0.54054  0.79724  0.28221  1.0000
  H   H1825     1.0  0.50456  0.86799  0.29331  1.0000
  C   C1024     1.0  0.50627  0.77116  0.06269  1.0000
  C   C1025     1.0  0.73255  0.89440  0.48792  1.0000
  H   H1826     1.0  0.95949  0.87228  0.09100  1.0000
  C   C1026     1.0  0.48538  0.84291  0.09582  1.0000
  H   H1827     1.0  0.50479  0.71611  0.13568  1.0000
  H   H1828     1.0  0.55313  0.95818  0.48575  1.0000
  H   H1829     1.0  0.93884  0.97649  0.33164  1.0000
  C   C1027     1.0  0.97587  0.76980  0.34087  1.0000
  H   H1830     1.0  0.83658  0.95667  0.48067  1.0000
  C   C1028     1.0  0.54115  0.96705  0.50427  1.0000
  H   H1831     1.0  0.49655  0.94027  0.34471  1.0000
  H   H1832     1.0  0.96173  0.82670  0.37515  1.0000
  H   H1833     1.0  0.49729  0.66836  0.13772  1.0000
  C   C1029     1.0  0.77637  0.87160  0.49397  1.0000
  H   H1834     1.0  0.78192  0.88280  0.51286  1.0000
  H   H1835     1.0  0.95001  0.83912  0.10558  1.0000
  C   C1030     1.0  0.52256  0.70396  0.13125  1.0000
  H   H1836     1.0  0.51595  0.96956  0.28215  1.0000
  H   H1837     1.0  0.97814  0.81262  0.30222  1.0000
  H   H1838     1.0  0.74176  0.85325  0.47898  1.0000
  H   H1839     1.0  0.50645  0.90157  0.32958  1.0000
  H   H1840     1.0  0.90536  0.93290  0.03994  1.0000
  C   C1031     1.0  0.87467  0.91611  0.51041  1.0000
  H   H1841     1.0  0.92831  0.95696  0.07688  1.0000
  H   H1842     1.0  0.70420  0.93632  0.49918  1.0000
  C   C1032     1.0  0.85119  0.97927  0.32753  1.0000
  H   H1843     1.0  0.49382  0.88400  0.46381  1.0000
  H   H1844     1.0  0.97051  0.68986  0.14021  1.0000
  C   C1033     1.0  0.97205  0.70586  0.12105  1.0000
  C   C1034     1.0  0.97660  0.77867  0.09160  1.0000
  H   H1845     1.0  0.48391  0.79225  0.28283  1.0000
  H   H1846     1.0  0.48852  0.75638  0.10728  1.0000
  C   C1035     1.0  0.48505  0.76640  0.08564  1.0000
  H   H1847     1.0  0.78583  0.85189  0.49603  1.0000
  H   H1848     1.0  0.78044  0.94058  0.51175  1.0000
  H   H1849     1.0  0.51967  0.96357  0.50153  1.0000
  H   H1850     1.0  0.48525  0.85360  0.07290  1.0000
  C   C1036     1.0  0.48755  0.79898  0.30524  1.0000
  H   H1851     1.0  0.96494  0.88741  0.02264  1.0000
  H   H1852     1.0  0.97775  0.72948  0.30184  1.0000
  H   H1853     1.0  0.97991  0.71436  0.33995  1.0000
  C   C1037     1.0  0.54728  0.86805  0.01582  1.0000
  C   C1038     1.0  0.97970  0.87739  0.21248  1.0000
  H   H1854     1.0  0.98025  0.79104  0.41482  1.0000
  S   S234      1.0  0.87527  0.89380  0.65757  1.0000
  S   S235      1.0  0.80337  0.88521  0.69597  1.0000
  Fe  Fe117     1.0  0.90369  0.90530  0.69042  1.0000
  S   S236      1.0  0.93833  0.87921  0.70092  1.0000
  H   H1855     1.0  0.74538  0.93246  0.60637  1.0000
  Fe  Fe118     1.0  0.65293  0.90912  0.67295  1.0000
  S   S237      1.0  0.65231  0.86673  0.66095  1.0000
  S   S238      1.0  0.69070  0.93420  0.67591  1.0000
  Fe  Fe119     1.0  0.59151  0.91167  0.67701  1.0000
  S   S239      1.0  0.58690  0.86968  0.66503  1.0000
  S   S240      1.0  0.55614  0.93793  0.68499  1.0000
  Fe  Fe120     1.0  0.61769  0.86038  0.69719  1.0000
  S   S241      1.0  0.61075  0.82279  0.72946  1.0000
  Fe  Fe121     1.0  0.62156  0.88055  0.63020  1.0000
  S   S242      1.0  0.61916  0.86757  0.58350  1.0000
  S   S243      1.0  0.62037  0.90196  0.71153  1.0000
  S   S244      1.0  0.62421  0.92346  0.63977  1.0000
  H   H1856     1.0  0.94099  0.92121  0.93368  1.0000
  S   S245      1.0  0.53832  0.77767  0.92074  1.0000
  C   C1039     1.0  0.96935  0.66848  0.00949  1.0000
  H   H1857     1.0  0.90915  0.77903  0.87287  1.0000
  S   S246      1.0  0.53003  0.84077  0.93328  1.0000
  H   H1858     1.0  0.72985  0.89528  0.54902  1.0000
  Fe  Fe122     1.0  0.54501  0.81813  0.89435  1.0000
  S   S247      1.0  0.58301  0.83611  0.86846  1.0000
  H   H1859     1.0  0.95797  0.93498  0.69581  1.0000
  H   H1860     1.0  0.68587  0.95166  0.73791  1.0000
  Fe  Fe123     1.0  0.49041  0.83718  0.91492  1.0000
  H   H1861     1.0  0.51466  0.91104  0.57425  1.0000
  S   S248      1.0  0.91141  0.94678  0.66792  1.0000
  N   N56       1.0  0.97950  0.91282  0.59075  1.0000
  C   C1040     1.0  0.61653  0.89348  0.55477  1.0000
  H   H1862     1.0  0.97780  0.87008  0.60434  1.0000
  S   S249      1.0  0.88901  0.94867  0.58727  1.0000
  C   C1041     1.0  0.62493  0.93961  0.53361  1.0000
  C   C1042     1.0  0.62657  0.91936  0.55718  1.0000
  H   H1863     1.0  0.93803  0.83802  0.61296  1.0000
  H   H1864     1.0  0.63617  0.92369  0.57685  1.0000
  C   C1043     1.0  0.60240  0.82697  0.76791  1.0000
  C   C1044     1.0  0.60745  0.85134  0.77938  1.0000
  C   C1045     1.0  0.60108  0.85406  0.81022  1.0000
  C   C1046     1.0  0.58855  0.83279  0.82954  1.0000
  C   C1047     1.0  0.58286  0.80858  0.81801  1.0000
  C   C1048     1.0  0.59046  0.80548  0.78738  1.0000
  H   H1865     1.0  0.61707  0.86783  0.76477  1.0000
  H   H1866     1.0  0.60608  0.87261  0.81920  1.0000
  H   H1867     1.0  0.57374  0.79201  0.83308  1.0000
  H   H1868     1.0  0.58737  0.78641  0.77866  1.0000
  S   S250      1.0  0.97066  0.83396  0.90164  1.0000
  C   C1049     1.0  0.54106  0.89474  0.83984  1.0000
  C   C1050     1.0  0.50183  0.90959  0.90769  1.0000
  C   C1051     1.0  0.48245  0.70746  0.00893  1.0000
  H   H1869     1.0  0.63287  0.95957  0.53549  1.0000
  Fe  Fe124     1.0  0.51964  0.80034  0.95806  1.0000
  H   H1870     1.0  0.94863  0.93278  0.61669  1.0000
  H   H1871     1.0  0.48160  0.72694  0.82334  1.0000
  C   C1052     1.0  0.96569  0.88793  0.60774  1.0000
  Fe  Fe125     1.0  0.84281  0.90931  0.68889  1.0000
  H   H1872     1.0  0.49593  0.98169  0.95159  1.0000
  H   H1873     1.0  0.96385  0.88979  0.63261  1.0000
  H   H1874     1.0  0.91546  0.83972  0.79951  1.0000
  H   H1875     1.0  0.65235  0.93912  0.75155  1.0000
  H   H1876     1.0  0.53325  0.94022  0.90339  1.0000
  C   C1053     1.0  0.50190  0.65682  0.89228  1.0000
  H   H1877     1.0  0.55441  0.92467  0.61961  1.0000
  C   C1054     1.0  0.87973  0.92581  0.56213  1.0000
  C   C1055     1.0  0.86794  0.90072  0.57278  1.0000
  C   C1056     1.0  0.85937  0.88346  0.55232  1.0000
  H   H1878     1.0  0.93028  0.82002  0.84491  1.0000
  H   H1879     1.0  0.88223  0.95201  0.82389  1.0000
  C   C1057     1.0  0.55682  0.97599  0.60367  1.0000
  H   H1880     1.0  0.86490  0.89470  0.59674  1.0000
  H   H1881     1.0  0.84997  0.86420  0.56072  1.0000
  S   S251      1.0  0.84680  0.95141  0.66672  1.0000
  C   C1058     1.0  0.88257  0.97115  0.77848  1.0000
  H   H1882     1.0  0.94859  0.88461  0.88441  1.0000
  C   C1059     1.0  0.54721  0.92881  0.59678  1.0000
  C   C1060     1.0  0.51902  0.89560  0.69053  1.0000
  C   C1061     1.0  0.52361  0.92305  0.69159  1.0000
  H   H1883     1.0  0.51540  0.69841  0.79383  1.0000
  C   C1062     1.0  0.51138  0.95713  0.61409  1.0000
  H   H1884     1.0  0.96546  0.90659  0.54741  1.0000
  H   H1885     1.0  0.53549  0.88304  0.68543  1.0000
  C   C1063     1.0  0.77297  0.89955  0.68741  1.0000
  C   C1064     1.0  0.76950  0.92711  0.68674  1.0000
  C   C1065     1.0  0.74431  0.93752  0.68251  1.0000
  C   C1066     1.0  0.72248  0.92054  0.67862  1.0000
  C   C1067     1.0  0.72620  0.89312  0.67814  1.0000
  C   C1068     1.0  0.75130  0.88266  0.68275  1.0000
  H   H1886     1.0  0.67517  0.89428  0.58660  1.0000
  H   H1887     1.0  0.70960  0.87988  0.67497  1.0000
  H   H1888     1.0  0.75385  0.86132  0.68315  1.0000
  N   N57       1.0  0.69818  0.87308  0.77567  1.0000
  C   C1069     1.0  0.68658  0.89717  0.75952  1.0000
  C   C1070     1.0  0.70371  0.85267  0.75335  1.0000
  C   C1071     1.0  0.67830  0.86210  0.80171  1.0000
  C   C1072     1.0  0.72401  0.88042  0.78796  1.0000
  C   C1073     1.0  0.74615  0.89410  0.76437  1.0000
  C   C1074     1.0  0.68369  0.92220  0.77732  1.0000
  C   C1075     1.0  0.68540  0.83552  0.81928  1.0000
  C   C1076     1.0  0.67886  0.83972  0.74156  1.0000
  C   C1077     1.0  0.68717  0.82027  0.71832  1.0000
  C   C1078     1.0  0.77033  0.90318  0.77954  1.0000
  H   H1889     1.0  0.49609  0.88009  0.52327  1.0000
  C   C1079     1.0  0.66212  0.82465  0.84218  1.0000
  H   H1890     1.0  0.66628  0.89201  0.75341  1.0000
  H   H1891     1.0  0.69843  0.90333  0.73747  1.0000
  H   H1892     1.0  0.71628  0.86197  0.73304  1.0000
  H   H1893     1.0  0.71592  0.83640  0.76281  1.0000
  H   H1894     1.0  0.65826  0.85927  0.79382  1.0000
  H   H1895     1.0  0.67556  0.87679  0.81880  1.0000
  H   H1896     1.0  0.72034  0.89334  0.80677  1.0000
  H   H1897     1.0  0.73292  0.86220  0.79835  1.0000
  H   H1898     1.0  0.73900  0.91195  0.75142  1.0000
  H   H1899     1.0  0.75326  0.87978  0.74819  1.0000
  H   H1900     1.0  0.67010  0.91768  0.79841  1.0000
  H   H1901     1.0  0.70330  0.92955  0.78329  1.0000
  H   H1902     1.0  0.70293  0.83881  0.83197  1.0000
  H   H1903     1.0  0.69000  0.81975  0.80401  1.0000
  H   H1904     1.0  0.66590  0.82830  0.76024  1.0000
  H   H1905     1.0  0.66680  0.85512  0.73035  1.0000
  H   H1906     1.0  0.69946  0.83087  0.69848  1.0000
  H   H1907     1.0  0.69870  0.80388  0.72862  1.0000
  H   H1908     1.0  0.66907  0.81127  0.71023  1.0000
  H   H1909     1.0  0.78597  0.91227  0.76192  1.0000
  H   H1910     1.0  0.90509  0.85099  0.61146  1.0000
  H   H1911     1.0  0.77890  0.88588  0.79215  1.0000
  H   H1912     1.0  0.93779  0.87733  0.57488  1.0000
  N   N58       1.0  0.50587  0.75478  0.79085  1.0000
  H   H1913     1.0  0.50326  0.79937  0.70612  1.0000
  H   H1914     1.0  0.64472  0.81897  0.83028  1.0000
  H   H1915     1.0  0.66812  0.80651  0.85572  1.0000
  H   H1916     1.0  0.97786  0.92717  0.95410  1.0000
  C   C1080     1.0  0.92204  0.88116  0.78347  1.0000
  H   H1917     1.0  0.76469  0.91841  0.79527  1.0000
  H   H1918     1.0  0.49549  0.94402  0.60679  1.0000
  C   C1081     1.0  0.49593  0.95682  0.89307  1.0000
  H   H1919     1.0  0.56012  0.92582  0.86258  1.0000
  H   H1920     1.0  0.49232  0.91505  0.52080  1.0000
  H   H1921     1.0  0.95599  0.85564  0.82130  1.0000
  H   H1922     1.0  0.49252  0.70517  0.95957  1.0000
  H   H1923     1.0  0.53428  0.69738  0.98460  1.0000
  H   H1924     1.0  0.95829  0.93924  0.76438  1.0000
  H   H1925     1.0  0.87458  0.95363  0.76971  1.0000
  H   H1926     1.0  0.92303  0.94916  0.97750  1.0000
  H   H1927     1.0  0.90786  0.91852  0.99541  1.0000
  H   H1928     1.0  0.53206  0.77911  0.69917  1.0000
  H   H1929     1.0  0.96159  0.78088  0.80675  1.0000
  C   C1082     1.0  0.48437  0.70974  0.89328  1.0000
  H   H1930     1.0  0.54431  0.93233  0.53545  1.0000
  H   H1931     1.0  0.89777  0.91712  0.91356  1.0000
  H   H1932     1.0  0.77129  0.87061  0.60424  1.0000
  H   H1933     1.0  0.69880  0.86791  0.58791  1.0000
  C   C1083     1.0  0.49601  0.70440  0.78601  1.0000
  H   H1934     1.0  0.80686  0.86685  0.59547  1.0000
  H   H1935     1.0  0.81546  0.91040  0.61715  1.0000
  H   H1936     1.0  0.96966  0.95697  0.96999  1.0000
  H   H1937     1.0  0.54334  0.73490  0.78377  1.0000
  C   C1084     1.0  0.96698  0.84710  0.98319  1.0000
  H   H1938     1.0  0.73904  0.85814  0.51860  1.0000
  C   C1085     1.0  0.96100  0.93580  0.59442  1.0000
  H   H1939     1.0  0.92086  0.88860  0.80623  1.0000
  C   C1086     1.0  0.48266  0.89651  0.82480  1.0000
  C   C1087     1.0  0.48671  0.73084  0.79837  1.0000
  C   C1088     1.0  0.54058  0.87980  0.58815  1.0000
  H   H1940     1.0  0.54058  0.90233  0.74685  1.0000
  C   C1089     1.0  0.92572  0.92710  0.98075  1.0000
  C   C1090     1.0  0.48093  0.88590  0.98901  1.0000
  N   N59       1.0  0.97140  0.82314  0.79641  1.0000
  C   C1091     1.0  0.96937  0.88835  0.88758  1.0000
  H   H1941     1.0  0.51460  0.93280  0.98737  1.0000
  H   H1942     1.0  0.88023  0.91910  0.95049  1.0000
  H   H1943     1.0  0.70734  0.90020  0.59959  1.0000
  H   H1944     1.0  0.78597  0.94030  0.69053  1.0000
  H   H1945     1.0  0.78020  0.91430  0.62352  1.0000
  H   H1946     1.0  0.53974  0.67351  0.90184  1.0000
  H   H1947     1.0  0.92420  0.85774  0.64222  1.0000
  H   H1948     1.0  0.65600  0.83977  0.85789  1.0000
  C   C1092     1.0  0.72348  0.96765  0.59756  1.0000
  H   H1949     1.0  0.54635  0.76694  0.79652  1.0000
  H   H1950     1.0  0.54459  0.92574  0.80185  1.0000
  C   C1093     1.0  0.69666  0.88981  0.58311  1.0000
  C   C1094     1.0  0.75009  0.95409  0.60011  1.0000
  H   H1951     1.0  0.93612  0.89434  0.76749  1.0000
  C   C1095     1.0  0.53342  0.74846  0.79939  1.0000
  H   H1952     1.0  0.83183  0.95417  0.59203  1.0000
  H   H1953     1.0  0.48269  0.66274  0.78742  1.0000
  S   S252      1.0  0.97868  0.69880  0.90792  1.0000
  H   H1954     1.0  0.56917  0.71161  0.82329  1.0000
  H   H1955     1.0  0.94873  0.66382  0.00438  1.0000
  H   H1956     1.0  0.67208  0.88819  0.53238  1.0000
  S   S253      1.0  0.87076  0.91631  0.72437  1.0000
  H   H1957     1.0  0.92116  0.89335  0.95364  1.0000
  C   C1096     1.0  0.50185  0.93914  0.69794  1.0000
  H   H1958     1.0  0.51628  0.93485  0.76348  1.0000
  C   C1097     1.0  0.79644  0.91880  0.57512  1.0000
  Fe  Fe126     1.0  0.87709  0.95758  0.69977  1.0000
  H   H1959     1.0  0.52128  0.93165  0.83255  1.0000
  C   C1098     1.0  0.52754  0.71789  0.97868  1.0000
  Fe  Fe127     1.0  0.88075  0.93628  0.63741  1.0000
  C   C1099     1.0  0.79597  0.90625  0.60836  1.0000
  H   H1960     1.0  0.52414  0.71985  0.90331  1.0000
  H   H1961     1.0  0.53051  0.85499  0.73559  1.0000
  C   C1100     1.0  0.49305  0.88415  0.69682  1.0000
  H   H1962     1.0  0.51088  0.79388  0.80710  1.0000
  C   C1101     1.0  0.53503  0.73638  0.83243  1.0000
  H   H1963     1.0  0.59716  0.86792  0.52664  1.0000
  H   H1964     1.0  0.54790  0.87719  0.82840  1.0000
  H   H1965     1.0  0.90198  0.88219  0.77510  1.0000
  H   H1966     1.0  0.53956  0.96729  0.96375  1.0000
  C   C1102     1.0  0.88346  0.93328  0.53087  1.0000
  C   C1103     1.0  0.52842  0.91575  0.81829  1.0000
  H   H1967     1.0  0.76799  0.97992  0.56127  1.0000
  H   H1968     1.0  0.50155  0.88368  0.97849  1.0000
  C   C1104     1.0  0.54793  0.95423  0.53497  1.0000
  H   H1969     1.0  0.93167  0.84597  0.76171  1.0000
  H   H1970     1.0  0.74158  0.95877  0.68293  1.0000
  H   H1971     1.0  0.66939  0.96257  0.77200  1.0000
  H   H1972     1.0  0.96787  0.93111  0.87670  1.0000
  C   C1105     1.0  0.52440  0.78891  0.74581  1.0000
  H   H1973     1.0  0.93445  0.88126  0.00747  1.0000
  C   C1106     1.0  0.95565  0.94973  0.78524  1.0000
  N   N60       1.0  0.50601  0.90545  0.80189  1.0000
  H   H1974     1.0  0.81500  0.91143  0.56368  1.0000
  H   H1975     1.0  0.53773  0.72533  0.95616  1.0000
  C   C1107     1.0  0.51925  0.67767  0.89829  1.0000
  C   C1108     1.0  0.86221  0.89132  0.52113  1.0000
  C   C1109     1.0  0.49558  0.77721  0.80848  1.0000
  C   C1110     1.0  0.54693  0.86017  0.74912  1.0000
  C   C1111     1.0  0.58543  0.97743  0.58724  1.0000
  C   C1112     1.0  0.53066  0.96544  0.56124  1.0000
  C   C1113     1.0  0.52672  0.90586  0.59337  1.0000
  H   H1976     1.0  0.52181  0.71827  0.83811  1.0000
  C   C1114     1.0  0.92341  0.91551  0.95010  1.0000
  H   H1977     1.0  0.93557  0.94394  0.79699  1.0000
  H   H1978     1.0  0.50960  0.95972  0.55813  1.0000
  C   C1115     1.0  0.93102  0.85230  0.78489  1.0000
  H   H1979     1.0  0.51647  0.80620  0.75702  1.0000
  H   H1980     1.0  0.77978  0.90940  0.56462  1.0000
  C   C1116     1.0  0.95438  0.89180  0.00201  1.0000
  H   H1981     1.0  0.80781  0.97904  0.53200  1.0000
  C   C1117     1.0  0.95789  0.97999  0.77747  1.0000
  H   H1982     1.0  0.97761  0.71092  0.83837  1.0000
  H   H1983     1.0  0.80220  0.95602  0.61609  1.0000
  H   H1984     1.0  0.48400  0.91998  0.76468  1.0000
  N   N61       1.0  0.79618  0.94900  0.56967  1.0000
  H   H1985     1.0  0.50520  0.96044  0.69866  1.0000
  H   H1986     1.0  0.97142  0.84036  0.00654  1.0000
  H   H1987     1.0  0.57246  0.89287  0.87008  1.0000
  S   S254      1.0  0.95282  0.97766  0.91234  1.0000
  H   H1988     1.0  0.95988  0.70997  0.01390  1.0000
  H   H1989     1.0  0.97195  0.86587  0.78483  1.0000
  C   C1118     1.0  0.81125  0.96183  0.59261  1.0000
  H   H1990     1.0  0.48754  0.76442  0.74929  1.0000
  H   H1991     1.0  0.53354  0.73126  0.99553  1.0000
  H   H1992     1.0  0.55340  0.88199  0.56627  1.0000
  H   H1993     1.0  0.49470  0.97911  0.75104  1.0000
  H   H1994     1.0  0.56946  0.95789  0.53637  1.0000
  S   S255      1.0  0.50586  0.81695  0.87433  1.0000
  H   H1995     1.0  0.55317  0.87415  0.60673  1.0000
  C   C1119     1.0  0.56528  0.90713  0.85237  1.0000
  H   H1996     1.0  0.83257  0.95542  0.53915  1.0000
  H   H1997     1.0  0.92570  0.75861  0.84623  1.0000
  H   H1998     1.0  0.49217  0.77022  0.83300  1.0000
  C   C1120     1.0  0.98023  0.91477  0.88339  1.0000
  H   H1999     1.0  0.52924  0.75124  0.84856  1.0000
  H   H2000     1.0  0.94634  0.93626  0.57719  1.0000
  H   H2001     1.0  0.52541  0.86341  0.58752  1.0000
  N   N62       1.0  0.53684  0.95675  0.59317  1.0000
  C   C1121     1.0  0.95856  0.84989  0.79768  1.0000
  H   H2002     1.0  0.53398  0.88515  0.01348  1.0000
  H   H2003     1.0  0.56507  0.92670  0.58066  1.0000
  H   H2004     1.0  0.69569  0.86305  0.53222  1.0000
  H   H2005     1.0  0.49162  0.73828  0.97055  1.0000
  H   H2006     1.0  0.48624  0.66220  0.97378  1.0000
  H   H2007     1.0  0.55819  0.88947  0.77770  1.0000
  H   H2008     1.0  0.54561  0.78692  0.75017  1.0000
  H   H2009     1.0  0.55847  0.97109  0.62833  1.0000
  C   C1122     1.0  0.76795  0.95833  0.56966  1.0000
  H   H2010     1.0  0.51532  0.86361  0.80106  1.0000
  H   H2011     1.0  0.96479  0.82106  0.74931  1.0000
  H   H2012     1.0  0.49812  0.70651  0.76089  1.0000
  N   N63       1.0  0.95095  0.92157  0.99572  1.0000
  H   H2013     1.0  0.48923  0.93482  0.96299  1.0000
  C   C1123     1.0  0.51231  0.93596  0.90160  1.0000
  H   H2014     1.0  0.89276  0.95259  0.52243  1.0000
  Fe  Fe128     1.0  0.49755  0.77815  0.90421  1.0000
  H   H2015     1.0  0.79298  0.86721  0.63412  1.0000
  C   C1124     1.0  0.79147  0.87587  0.61052  1.0000
  C   C1125     1.0  0.70824  0.89938  0.55077  1.0000
  C   C1126     1.0  0.91740  0.77861  0.84889  1.0000
  H   H2016     1.0  0.51287  0.90208  0.61447  1.0000
  C   C1127     1.0  0.92554  0.85531  0.61762  1.0000
  S   S256      1.0  0.52902  0.78978  0.00621  1.0000
  H   H2017     1.0  0.51480  0.89366  0.91373  1.0000
  H   H2018     1.0  0.70601  0.92132  0.54740  1.0000
  C   C1128     1.0  0.81060  0.95747  0.53868  1.0000
  H   H2019     1.0  0.71098  0.96437  0.61958  1.0000
  C   C1129     1.0  0.67208  0.94521  0.75847  1.0000
  H   H2020     1.0  0.50266  0.96329  0.80410  1.0000
  C   C1130     1.0  0.51045  0.70394  0.89914  1.0000
  H   H2021     1.0  0.93550  0.79942  0.79244  1.0000
  C   C1131     1.0  0.52394  0.79565  0.71172  1.0000
  C   C1132     1.0  0.95173  0.80036  0.80765  1.0000
  H   H2022     1.0  0.75707  0.94795  0.55334  1.0000
  H   H2023     1.0  0.54932  0.84315  0.76627  1.0000
  H   H2024     1.0  0.48769  0.87858  0.83954  1.0000
  H   H2025     1.0  0.56569  0.86338  0.73375  1.0000
  H   H2026     1.0  0.54472  0.85518  0.99728  1.0000
  H   H2027     1.0  0.56423  0.72062  0.86149  1.0000
  C   C1133     1.0  0.93730  0.88082  0.59910  1.0000
  H   H2028     1.0  0.89971  0.94769  0.93133  1.0000
  H   H2029     1.0  0.51715  0.74667  0.74465  1.0000
  H   H2030     1.0  0.48977  0.86278  0.69666  1.0000
  C   C1134     1.0  0.51426  0.88188  0.78504  1.0000
  H   H2031     1.0  0.52641  0.88724  0.85914  1.0000
  C   C1135     1.0  0.97477  0.92218  0.69639  1.0000
  H   H2032     1.0  0.92333  0.89703  0.60343  1.0000
  H   H2033     1.0  0.53660  0.81403  0.70415  1.0000
  N   N64       1.0  0.48557  0.96253  0.99728  1.0000
  C   C1136     1.0  0.60490  0.88794  0.52864  1.0000
  H   H2034     1.0  0.90088  0.78176  0.83428  1.0000
  C   C1137     1.0  0.54112  0.88548  0.76461  1.0000
  C   C1138     1.0  0.49856  0.92762  0.77936  1.0000
  C   C1139     1.0  0.97016  0.87755  0.97680  1.0000
  H   H2035     1.0  0.58172  0.91186  0.83399  1.0000
  C   C1140     1.0  0.97475  0.69850  0.00087  1.0000
  C   C1141     1.0  0.69378  0.88502  0.52724  1.0000
  C   C1142     1.0  0.89875  0.92550  0.93563  1.0000
  C   C1143     1.0  0.48715  0.95277  0.79301  1.0000
  H   H2036     1.0  0.94629  0.84028  0.98018  1.0000
  H   H2037     1.0  0.71236  0.95916  0.58012  1.0000
  H   H2038     1.0  0.51470  0.94864  0.63726  1.0000
  C   C1144     1.0  0.56337  0.72802  0.83735  1.0000
  C   C1145     1.0  0.93921  0.80062  0.84083  1.0000
  C   C1146     1.0  0.97065  0.89436  0.69896  1.0000
  H   H2039     1.0  0.57797  0.74515  0.83151  1.0000
  H   H2040     1.0  0.59407  0.95746  0.58704  1.0000
  H   H2041     1.0  0.56836  0.87580  0.01346  1.0000
  H   H2042     1.0  0.75961  0.96262  0.61863  1.0000
  H   H2043     1.0  0.96367  0.88301  0.95417  1.0000
  C   C1147     1.0  0.49281  0.93565  0.98712  1.0000
  C   C1148     1.0  0.50780  0.76269  0.75718  1.0000
  H   H2044     1.0  0.97067  0.94344  0.80085  1.0000
  C   C1149     1.0  0.97428  0.93571  0.97612  1.0000
  C   C1150     1.0  0.88696  0.97026  0.80918  1.0000
  H   H2045     1.0  0.97297  0.70359  0.97637  1.0000
  H   H2046     1.0  0.49882  0.87683  0.76998  1.0000
  C   C1151     1.0  0.97395  0.96432  0.59364  1.0000
  C   C1152     1.0  0.49727  0.71758  0.97757  1.0000
  H   H2047     1.0  0.95468  0.79692  0.85671  1.0000
  H   H2048     1.0  0.97913  0.77782  0.01481  1.0000
