data_image0
_chemical_formula_structural       FeSHFeS2FeSFeS3FeS2FeS2FeSFeS3HCH6C2NHC2H2CH4CHC6H4C2HC3HC2HC2HCHCHC2HCHCH7CH5CH12NHCHCH2C2H5CNC2HCH2CHC5H2C2H2CH6CHCNHCSH6C2HCH5C2HCH2CH5CH2CH3CH3C2HC2H6C3FeS2FeSHFeSFeS3FeS2FeS2FeSFeS3NCHCSHC3H6C2H6C2SHC6H5CH3CHCHC2HCHNHC2H4CSH3CHCH4CHC3HCH7CH4CHCH2C2HC2H2C2N2C8H2CH5CH4CH5C2H2SHC2H3CHNHC9HC2H9CH13CH7CH2C2HCH2CH4C2HCH3C2HCH4C2H3C2H5CH4CH7CH3CHSCH3C2H2C3HC2H3C2H6CHC2HCFeS2FeNCHS3HSHFeSFeNHFeS2FeS2FeSFeS3FeS2FeS2FeSFeS3C3H2C2H2C7H4CHC7H4CH2C6H13C2H2SHCHC2HCHCSH3C3H4CHC2H2CSCH2CH4CHNC12H34CHCHC3HCH5CH4SCH2C2HCH2C2HCH7CHCH3C2H2NC12H28C3H8CH3C2H5C2H2CHCH4FeHCHFeCH6C3H2CH2C2HCH2C2H3FeH6CHNHFeHCH2C2HCH2CH6CH3SFeS2FeS2FeSFeS3FeS2FeS2FeSFeS3FeS2C2HCS2FeCFeCSH2S2HCH3CH2CHCH2CHC2H3C7H4C2HC7H4C6H4CNH2CH2CNC12H31CNC3HC5HC2H6C2H11CH9CHCHC2H4FeCH2CH8C2H4CHCHCHC4H5CH7CNFeH3CHC3SCHSCHC2H2C2H5FeSH3CHCH2CH2C2HC3H2FeH3CH2C2H3C2H6C2HC2HC2NH6C2H2CSH4CHCH2CH3CH2CHCH7CHNC2H2FeH9NCH2CH2CHSH2SFeS2FeS2FeSFeS3FeS2FeCSFeSFeCS2H2CH5CH3C2H2C2H2C2H2C6H6CH3C2H7CHCHC2HCH5CHNCSH8CHCHCH3C3H3CH2CHCHSHCSH4C2H3C3H3SH3CHCHCH3CH4CH3NCHCH6CH2C6HC3H2CH2C3HCH2CHCH3CNHC2H4C2H4NHC3H2C2H5CH3CH14C2NH5C3H3CHSCH5CNH4CH3CH4CHC2H5CHCH8FeS2FeS2FeSFeS3FeS2FeSHFeSFeS3H2CHC2H4SH2C2HNH4CH2C6H4C3HCHC2H2NC12H26CH5CH4C3H2C3HNH2CHCHCH8C3H5CH2CH5C2H4CH2C4H2CHCH3C3H7C3H5CH3CHCH2C2HFeS2FeS2FeSFeHS2FeS2FeS2FeSFeS3CH6C2HC2HCH3C7H4CHC2H5CH2CHNCH2C3H3CH7CHCHNCH3CHCHCH6C2H3C2H2CH4CH4CH5CH4CH2CHC2HC2H4CHNC3H2C7H2CH5C2H5CH4CH6CH4CH2C2H3CH2C2SCH5CH8C2FeS2FeS2FeSFeS3FeSHFeS2FeSFeS3H2SHSHC2H5C4HCSH2CHCHC8H4C2H2C2H13CHC2HCHCH2FeH2CHCH5C2HC2H2C2H2CH3CHCH3CHCNH5CH3CH2C2H4CH2SH6C2H2C2H3C3H6CHSCH6CHCH6CHCHCHC2H7CH5CH3CNH4SH4CH8CH4C3H3CHCHNC12H4NCH2NHC2H5C6HC2H5NH8CH2SH2C3FeHFeCSHCS3FeSHFeSFeHSFeS2FeSHFeSFeS3FeS2FeS2FeSFeS3C6H4C7H3C6H4CHCH2C3H3C2H4CHNH2C2H5CH4CH2CH8NH6C3HCH2CHCH5CHC5HCSH2FeH2CHSC2HC3H2CHC3H4CH3C2H4CHC2HCH2CHC3HC2HCH3C2H2CFeH6CHCHCH3CH5CNH4CHCH3C2HCHC2H2CH2CH5NH2CH4CHCH6CNHCH5C2H8C3H2CHCSHCH10NHC2HNC2HC2H2C3H3CH3SCH5C2H2CH2C3H2CH2CH2CH2CH4C2H9FeS2FeS2FeSFeHS2FeS2FeSCFeSFeS3FeSFeCSCHS2FeS2FeCFeS3HC2H3C7H3C6H4C6H4C2H3C2HC3H3C2HCHC2H2C2H3CH3CH2CNC2HC3HC4H7CH13NH6C2HCH2CHCH5CSH5CHCHCHCH2C2H4CNCHC2HC2H3CH5CHCH2CHCSCH4CSCH4CHCH5SH4CHCHCH2CHC2HCH5CH3CH2NH2CH7NCHC4H6CH3CH8CHC2H3CHC2H3CH4NCHCH4CH2C2H2CH5CH3C2H3CFeH8CH2CNH2CH3CNH2C3H4CHCSFeS2FeS2FeSFeS3FeS2FeS2FeCFeS4C2FeCNH5CHCH2CHC2H3C6H4CHCHC4H2CHC2H3CH3CH2C2H2C4H2CH4SCHNCHCH2CH3CH6CHCH2CH6C3HC3HCH2C2H2SH2CSH3CHC2H2CH4NH2CHCHC2H4CH4NC10HCH20CH7FeSHC2H5C3HCH5CH2CH6CH4C3HCH2CNHCH3CHCH4CH9CHC3HCH2C2HFeS2FeS2FeSFeS3FeS2FeS2FeHFeSHSHC2H4C4H3CH3C2H2C6H4CHCH3CHCH4CH5CH4CH3CHSH2N2CH2CHC2H9SC3H2CH6C2HC2H4CH3CH5C2H2CHCH3CH2C2H2CH3CHNH2CH4C3H2CHCH3CH2NH2C2H2C3HCH2CNCH2CHC3H5C2HCHCH5CH2CHC2HCH2C
_chemical_formula_sum              "Fe128 S256 H2048 C1152 N64"
_cell_length_a       41.1067
_cell_length_b       41.1223
_cell_length_c       82.8844
_cell_angle_alpha    90.5073
_cell_angle_beta     90.2041
_cell_angle_gamma    90.7408

_space_group_name_H-M_alt    "P 1"
_space_group_IT_number       1

loop_
  _space_group_symop_operation_xyz
  'x, y, z'

loop_
  _atom_site_type_symbol
  _atom_site_label
  _atom_site_symmetry_multiplicity
  _atom_site_fract_x
  _atom_site_fract_y
  _atom_site_fract_z
  _atom_site_occupancy
  Fe  Fe1       1.0  0.20985  0.45184  0.06537  1.0000
  S   S1        1.0  0.21975  0.41155  0.04723  1.0000
  H   H1        1.0  0.02065  0.38426  0.03879  1.0000
  Fe  Fe2       1.0  0.13632  0.44682  0.05870  1.0000
  S   S2        1.0  0.14144  0.40602  0.04091  1.0000
  S   S3        1.0  0.08784  0.47052  0.06398  1.0000
  Fe  Fe3       1.0  0.17716  0.38479  0.05837  1.0000
  S   S4        1.0  0.17576  0.33323  0.06906  1.0000
  Fe  Fe4       1.0  0.18300  0.43633  0.03118  1.0000
  S   S5        1.0  0.18234  0.44242  0.00369  1.0000
  S   S6        1.0  0.16903  0.42409  0.07718  1.0000
  S   S7        1.0  0.17630  0.47807  0.04835  1.0000
  Fe  Fe5       1.0  0.15900  0.13660  0.05258  1.0000
  S   S8        1.0  0.15657  0.12400  0.07889  1.0000
  S   S9        1.0  0.16072  0.18744  0.04113  1.0000
  Fe  Fe6       1.0  0.14563  0.06464  0.04200  1.0000
  S   S10       1.0  0.14127  0.04796  0.06782  1.0000
  S   S11       1.0  0.13007  0.02879  0.02203  1.0000
  Fe  Fe7       1.0  0.11272  0.09350  0.07190  1.0000
  S   S12       1.0  0.06636  0.09875  0.08644  1.0000
  Fe  Fe8       1.0  0.18562  0.07915  0.07265  1.0000
  S   S13       1.0  0.23104  0.06367  0.08703  1.0000
  S   S14       1.0  0.11385  0.10786  0.04598  1.0000
  S   S15       1.0  0.19139  0.09403  0.04646  1.0000
  H   H2        1.0  0.33472  0.04330  0.16418  1.0000
  C   C1        1.0  0.18399  0.47942  0.99273  1.0000
  H   H3        1.0  0.19415  0.04317  0.00794  1.0000
  H   H4        1.0  0.19930  0.05214  0.21997  1.0000
  H   H5        1.0  0.27145  0.43587  0.15865  1.0000
  H   H6        1.0  0.23403  0.44009  0.14748  1.0000
  H   H7        1.0  0.09959  0.39113  0.11165  1.0000
  H   H8        1.0  0.28922  0.05009  0.10488  1.0000
  C   C2        1.0  0.21942  0.00520  0.10339  1.0000
  C   C3        1.0  0.07929  0.40194  0.10474  1.0000
  N   N1        1.0  0.06385  0.35090  0.08757  1.0000
  H   H9        1.0  0.23745  0.08763  0.16532  1.0000
  C   C4        1.0  0.02910  0.06455  0.06409  1.0000
  C   C5        1.0  0.02956  0.08299  0.07835  1.0000
  H   H10       1.0  0.05703  0.28830  0.10312  1.0000
  H   H11       1.0  0.05170  0.05891  0.05809  1.0000
  C   C6        1.0  0.10698  0.27495  0.10549  1.0000
  H   H12       1.0  0.02572  0.09309  0.01021  1.0000
  H   H13       1.0  0.09193  0.22483  0.07874  1.0000
  H   H14       1.0  0.20433  0.08337  0.17953  1.0000
  H   H15       1.0  0.25157  0.05886  0.01649  1.0000
  C   C7        1.0  0.09173  0.33505  0.06057  1.0000
  H   H16       1.0  0.03472  0.20886  0.07034  1.0000
  C   C8        1.0  0.17254  0.29296  0.06083  1.0000
  C   C9        1.0  0.16637  0.28678  0.04446  1.0000
  C   C10       1.0  0.16272  0.25443  0.03872  1.0000
  C   C11       1.0  0.16546  0.22774  0.04918  1.0000
  C   C12       1.0  0.17202  0.23394  0.06551  1.0000
  C   C13       1.0  0.17539  0.26627  0.07126  1.0000
  H   H17       1.0  0.16459  0.30689  0.03620  1.0000
  H   H18       1.0  0.15806  0.25003  0.02603  1.0000
  H   H19       1.0  0.17502  0.21381  0.07367  1.0000
  H   H20       1.0  0.18084  0.27062  0.08388  1.0000
  C   C14       1.0  0.04476  0.21874  0.03409  1.0000
  C   C15       1.0  0.01443  0.20167  0.04132  1.0000
  H   H21       1.0  0.05783  0.42137  0.01099  1.0000
  C   C16       1.0  0.05042  0.42248  0.04929  1.0000
  C   C17       1.0  0.05082  0.45130  0.05834  1.0000
  C   C18       1.0  0.03105  0.34816  0.09564  1.0000
  H   H22       1.0  0.07294  0.41191  0.04537  1.0000
  C   C19       1.0  0.27082  0.03372  0.17349  1.0000
  C   C20       1.0  0.24127  0.04747  0.20407  1.0000
  H   H23       1.0  0.02052  0.32336  0.09372  1.0000
  C   C21       1.0  0.07811  0.18074  0.06570  1.0000
  C   C22       1.0  0.21917  0.49605  0.20045  1.0000
  H   H24       1.0  0.26768  0.04293  0.20576  1.0000
  C   C23       1.0  0.05994  0.33977  0.07026  1.0000
  H   H25       1.0  0.22852  0.02218  0.22627  1.0000
  C   C24       1.0  0.27365  0.03652  0.03762  1.0000
  H   H26       1.0  0.08496  0.15483  0.06633  1.0000
  C   C25       1.0  0.25274  0.45341  0.15474  1.0000
  C   C26       1.0  0.24097  0.03100  0.10023  1.0000
  H   H27       1.0  0.09903  0.48287  0.02744  1.0000
  C   C27       1.0  0.02121  0.46467  0.06338  1.0000
  H   H28       1.0  0.23760  0.06487  0.22880  1.0000
  C   C28       1.0  0.22613  0.02106  0.19274  1.0000
  H   H29       1.0  0.02134  0.48701  0.07037  1.0000
  H   H30       1.0  0.27831  0.46923  0.18479  1.0000
  H   H31       1.0  0.28899  0.04504  0.04795  1.0000
  H   H32       1.0  0.10103  0.38721  0.08241  1.0000
  H   H33       1.0  0.05666  0.39925  0.11183  1.0000
  H   H34       1.0  0.11067  0.46028  0.99265  1.0000
  H   H35       1.0  0.32728  0.05159  0.14317  1.0000
  C   C29       1.0  0.01871  0.12952  0.02898  1.0000
  H   H36       1.0  0.11004  0.28434  0.11802  1.0000
  H   H37       1.0  0.04442  0.46900  0.02360  1.0000
  H   H38       1.0  0.19799  0.08791  0.14260  1.0000
  H   H39       1.0  0.03346  0.35075  0.10897  1.0000
  H   H40       1.0  0.04580  0.31654  0.06948  1.0000
  C   C30       1.0  0.08497  0.45797  0.99679  1.0000
  H   H41       1.0  0.02014  0.26416  0.02874  1.0000
  H   H42       1.0  0.12329  0.40214  0.99605  1.0000
  H   H43       1.0  0.25612  0.08564  0.03389  1.0000
  H   H44       1.0  0.10919  0.44275  0.09655  1.0000
  H   H45       1.0  0.01224  0.39793  0.09234  1.0000
  H   H46       1.0  0.19023  0.11964  0.15715  1.0000
  H   H47       1.0  0.15382  0.49970  0.21015  1.0000
  H   H48       1.0  0.23840  0.07223  0.19920  1.0000
  H   H49       1.0  0.04526  0.35750  0.06348  1.0000
  H   H50       1.0  0.19977  0.49283  0.19123  1.0000
  H   H51       1.0  0.10725  0.35721  0.06098  1.0000
  H   H52       1.0  0.11292  0.33393  0.09155  1.0000
  N   N2        1.0  0.02078  0.17306  0.05207  1.0000
  H   H53       1.0  0.27754  0.48730  0.21212  1.0000
  C   C31       1.0  0.08437  0.32727  0.04285  1.0000
  H   H54       1.0  0.07007  0.30427  0.04174  1.0000
  C   C32       1.0  0.21290  0.07693  0.16726  1.0000
  H   H55       1.0  0.07075  0.34737  0.03721  1.0000
  H   H56       1.0  0.31379  0.49404  0.09397  1.0000
  C   C33       1.0  0.26751  0.06576  0.02685  1.0000
  C   C34       1.0  0.18135  0.02615  0.00011  1.0000
  H   H57       1.0  0.03382  0.16812  0.07738  1.0000
  H   H58       1.0  0.26783  0.04614  0.14753  1.0000
  H   H59       1.0  0.04746  0.08525  0.02863  1.0000
  H   H60       1.0  0.01968  0.45007  0.99557  1.0000
  H   H61       1.0  0.12125  0.19278  0.07961  1.0000
  C   C35       1.0  0.08017  0.29322  0.09668  1.0000
  N   N3        1.0  0.07427  0.48939  0.00457  1.0000
  C   C36       1.0  0.02076  0.40675  0.04566  1.0000
  C   C37       1.0  0.09489  0.19817  0.07981  1.0000
  H   H62       1.0  0.08488  0.18962  0.09149  1.0000
  C   C38       1.0  0.19000  0.09289  0.15518  1.0000
  H   H63       1.0  0.10586  0.31456  0.06545  1.0000
  H   H64       1.0  0.08946  0.44921  0.11565  1.0000
  C   C39       1.0  0.04050  0.18340  0.06678  1.0000
  H   H65       1.0  0.28797  0.01862  0.03065  1.0000
  C   C40       1.0  0.09736  0.39777  0.99919  1.0000
  C   C41       1.0  0.27221  0.03043  0.10728  1.0000
  C   C42       1.0  0.07635  0.38558  0.08782  1.0000
  C   C43       1.0  0.23682  0.46960  0.16934  1.0000
  C   C44       1.0  0.08790  0.33021  0.09646  1.0000
  H   H66       1.0  0.13644  0.06584  0.31038  1.0000
  H   H67       1.0  0.30726  0.43173  0.31324  1.0000
  C   C45       1.0  0.26236  0.48846  0.17978  1.0000
  C   C46       1.0  0.31690  0.05336  0.15551  1.0000
  H   H68       1.0  0.23321  0.03721  0.05414  1.0000
  H   H69       1.0  0.10754  0.32436  0.03619  1.0000
  C   C47       1.0  0.08327  0.42754  0.00767  1.0000
  H   H70       1.0  0.08956  0.33800  0.10932  1.0000
  H   H71       1.0  0.06016  0.20150  0.02728  1.0000
  H   H72       1.0  0.13042  0.27765  0.09899  1.0000
  H   H73       1.0  0.27330  0.05880  0.17839  1.0000
  H   H74       1.0  0.09727  0.43189  0.01889  1.0000
  H   H75       1.0  0.22522  0.45006  0.17660  1.0000
  C   C48       1.0  0.21263  0.03957  0.16498  1.0000
  H   H76       1.0  0.29099  0.07509  0.02205  1.0000
  C   C49       1.0  0.03981  0.10465  0.02022  1.0000
  N   N4        1.0  0.23639  0.02094  0.17517  1.0000
  H   H77       1.0  0.06601  0.45071  0.09727  1.0000
  C   C50       1.0  0.04200  0.48523  0.01299  1.0000
  S   S16       1.0  0.25433  0.47590  0.07790  1.0000
  H   H78       1.0  0.07813  0.28295  0.08431  1.0000
  H   H79       1.0  0.10062  0.24868  0.10609  1.0000
  H   H80       1.0  0.08820  0.19076  0.05440  1.0000
  H   H81       1.0  0.22402  0.47108  0.20494  1.0000
  H   H82       1.0  0.16467  0.08368  0.15671  1.0000
  H   H83       1.0  0.31304  0.07944  0.15841  1.0000
  C   C51       1.0  0.14988  0.01578  0.00411  1.0000
  C   C52       1.0  0.08643  0.43835  0.10341  1.0000
  H   H84       1.0  0.21170  0.49872  0.10415  1.0000
  C   C53       1.0  0.28467  0.03444  0.15611  1.0000
  H   H85       1.0  0.18727  0.03131  0.16746  1.0000
  H   H86       1.0  0.06100  0.40105  0.08006  1.0000
  H   H87       1.0  0.05946  0.23049  0.04382  1.0000
  H   H88       1.0  0.06184  0.11656  0.01510  1.0000
  H   H89       1.0  0.17610  0.47491  0.22430  1.0000
  C   C54       1.0  0.22561  0.04654  0.22077  1.0000
  C   C55       1.0  0.17200  0.50012  0.22010  1.0000
  H   H90       1.0  0.21738  0.48548  0.16482  1.0000
  C   C56       1.0  0.19627  0.01438  0.98593  1.0000
  H   H91       1.0  0.22228  0.02335  0.03478  1.0000
  H   H92       1.0  0.28763  0.01883  0.18094  1.0000
  C   C57       1.0  0.24153  0.02118  0.04411  1.0000
  H   H93       1.0  0.21623  0.03402  0.15192  1.0000
  H   H94       1.0  0.02086  0.23517  0.01213  1.0000
  H   H95       1.0  0.08338  0.39185  0.98804  1.0000
  H   H96       1.0  0.28398  0.46743  0.31795  1.0000
  H   H97       1.0  0.26438  0.47195  0.14690  1.0000
  C   C58       1.0  0.09954  0.49965  0.01697  1.0000
  H   H98       1.0  0.28933  0.00936  0.15179  1.0000
  H   H99       1.0  0.06140  0.15407  0.03833  1.0000
  C   C59       1.0  0.00490  0.37236  0.08972  1.0000
  H   H100      1.0  0.04351  0.12620  0.05183  1.0000
  H   H101      1.0  0.19526  0.00521  0.09817  1.0000
  H   H102      1.0  0.05718  0.25768  0.01765  1.0000
  C   C60       1.0  0.03496  0.24556  0.02245  1.0000
  H   H103      1.0  0.27825  0.50268  0.17146  1.0000
  H   H104      1.0  0.09608  0.37654  0.00738  1.0000
  H   H105      1.0  0.19916  0.02241  0.19377  1.0000
  C   C61       1.0  0.26179  0.49440  0.09716  1.0000
  C   C62       1.0  0.29415  0.50147  0.10178  1.0000
  H   H106      1.0  0.12456  0.49738  0.01200  1.0000
  C   C63       1.0  0.03763  0.14586  0.04319  1.0000
  C   C64       1.0  0.01341  0.47256  0.00225  1.0000
  H   H107      1.0  0.01094  0.14773  0.02003  1.0000
  H   H108      1.0  0.33706  0.49343  0.21823  1.0000
  H   H109      1.0  0.00660  0.49123  0.99335  1.0000
  H   H110      1.0  0.12453  0.02388  0.30734  1.0000
  H   H111      1.0  0.26856  0.00622  0.07127  1.0000
  H   H112      1.0  0.16639  0.03451  0.31227  1.0000
  C   C65       1.0  0.23671  0.50391  0.10750  1.0000
  C   C66       1.0  0.14052  0.04059  0.31451  1.0000
  C   C67       1.0  0.28192  0.00449  0.11722  1.0000
  Fe  Fe9       1.0  0.33148  0.38487  0.41852  1.0000
  S   S17       1.0  0.36776  0.39794  0.39937  1.0000
  S   S18       1.0  0.30460  0.33561  0.41981  1.0000
  Fe  Fe10      1.0  0.33808  0.45308  0.43485  1.0000
  S   S19       1.0  0.37519  0.46983  0.41671  1.0000
  H   H113      1.0  0.40028  0.03728  0.62968  1.0000
  Fe  Fe11      1.0  0.34196  0.44637  0.39795  1.0000
  S   S20       1.0  0.33183  0.47165  0.37365  1.0000
  Fe  Fe12      1.0  0.39703  0.42027  0.41979  1.0000
  S   S21       1.0  0.44829  0.40450  0.42642  1.0000
  S   S22       1.0  0.30390  0.43193  0.41594  1.0000
  S   S23       1.0  0.36165  0.40494  0.43910  1.0000
  Fe  Fe13      1.0  0.31131  0.07510  0.39892  1.0000
  S   S24       1.0  0.30263  0.10916  0.42027  1.0000
  S   S25       1.0  0.26935  0.06125  0.38148  1.0000
  Fe  Fe14      1.0  0.38448  0.07449  0.40541  1.0000
  S   S26       1.0  0.38081  0.10782  0.42667  1.0000
  S   S27       1.0  0.43255  0.05462  0.39655  1.0000
  Fe  Fe15      1.0  0.33776  0.07692  0.43372  1.0000
  S   S28       1.0  0.33757  0.06608  0.46083  1.0000
  Fe  Fe16      1.0  0.34663  0.13766  0.41176  1.0000
  S   S29       1.0  0.36107  0.19193  0.40946  1.0000
  S   S30       1.0  0.34331  0.04139  0.41312  1.0000
  S   S31       1.0  0.35320  0.10565  0.38977  1.0000
  N   N5        1.0  0.25440  0.00715  0.51482  1.0000
  C   C68       1.0  0.26355  0.50399  0.53998  1.0000
  H   H114      1.0  0.19839  0.39228  0.54142  1.0000
  C   C69       1.0  0.24199  0.03102  0.35467  1.0000
  S   S32       1.0  0.23662  0.02185  0.64163  1.0000
  H   H115      1.0  0.46773  0.16642  0.45254  1.0000
  C   C70       1.0  0.01193  0.17911  0.62986  1.0000
  C   C71       1.0  0.17999  0.02964  0.39332  1.0000
  C   C72       1.0  0.28197  0.49642  0.60137  1.0000
  H   H116      1.0  0.25077  0.41299  0.53121  1.0000
  H   H117      1.0  0.28566  0.45711  0.53560  1.0000
  H   H118      1.0  0.21200  0.03053  0.49092  1.0000
  H   H119      1.0  0.24418  0.42466  0.39656  1.0000
  H   H120      1.0  0.39716  0.48711  0.58432  1.0000
  H   H121      1.0  0.38255  0.00845  0.58016  1.0000
  C   C73       1.0  0.46967  0.06911  0.40482  1.0000
  C   C74       1.0  0.47025  0.08826  0.41881  1.0000
  H   H122      1.0  0.22372  0.43802  0.50511  1.0000
  H   H123      1.0  0.44777  0.09467  0.42457  1.0000
  H   H124      1.0  0.37071  0.46718  0.61744  1.0000
  H   H125      1.0  0.40676  0.01652  0.43967  1.0000
  H   H126      1.0  0.17867  0.02541  0.40651  1.0000
  H   H127      1.0  0.36917  0.45930  0.47304  1.0000
  C   C75       1.0  0.35310  0.02825  0.48685  1.0000
  C   C76       1.0  0.34158  0.02829  0.47084  1.0000
  S   S33       1.0  0.23621  0.43859  0.63468  1.0000
  H   H128      1.0  0.36149  0.05084  0.49233  1.0000
  C   C77       1.0  0.32085  0.29575  0.41727  1.0000
  C   C78       1.0  0.30193  0.26837  0.42162  1.0000
  C   C79       1.0  0.31355  0.23638  0.41935  1.0000
  C   C80       1.0  0.34403  0.23135  0.41234  1.0000
  C   C81       1.0  0.36245  0.25872  0.40761  1.0000
  C   C82       1.0  0.35142  0.29065  0.41040  1.0000
  H   H129      1.0  0.27817  0.27191  0.42687  1.0000
  H   H130      1.0  0.29890  0.21569  0.42298  1.0000
  H   H131      1.0  0.38529  0.25515  0.40155  1.0000
  H   H132      1.0  0.36619  0.31131  0.40686  1.0000
  H   H133      1.0  0.22998  0.05396  0.35289  1.0000
  C   C83       1.0  0.33947  0.32715  0.37271  1.0000
  H   H134      1.0  0.20053  0.31474  0.33119  1.0000
  H   H135      1.0  0.23436  0.02848  0.54789  1.0000
  H   H136      1.0  0.46587  0.45609  0.40370  1.0000
  C   C84       1.0  0.23574  0.02504  0.60781  1.0000
  H   H137      1.0  0.20832  0.40296  0.38946  1.0000
  C   C85       1.0  0.48534  0.42429  0.42169  1.0000
  H   H138      1.0  0.42922  0.07271  0.47432  1.0000
  C   C86       1.0  0.34074  0.03816  0.57710  1.0000
  C   C87       1.0  0.36238  0.02061  0.60433  1.0000
  H   H139      1.0  0.37262  0.04583  0.60509  1.0000
  C   C88       1.0  0.48512  0.35517  0.39170  1.0000
  H   H140      1.0  0.35434  0.06163  0.57790  1.0000
  N   N6        1.0  0.26194  0.47102  0.51321  1.0000
  H   H141      1.0  0.31159  0.40321  0.48403  1.0000
  C   C89       1.0  0.48760  0.44820  0.40986  1.0000
  C   C90       1.0  0.28406  0.45227  0.50209  1.0000
  H   H142      1.0  0.32808  0.38011  0.50047  1.0000
  H   H143      1.0  0.44956  0.07907  0.45531  1.0000
  H   H144      1.0  0.49893  0.04525  0.38684  1.0000
  H   H145      1.0  0.50022  0.11291  0.43655  1.0000
  C   C91       1.0  0.26413  0.02801  0.36758  1.0000
  S   S34       1.0  0.16097  0.08906  0.64311  1.0000
  H   H146      1.0  0.14940  0.04326  0.36485  1.0000
  H   H147      1.0  0.21909  0.04427  0.52072  1.0000
  H   H148      1.0  0.46058  0.02466  0.46542  1.0000
  C   C92       1.0  0.43326  0.01651  0.44249  1.0000
  H   H149      1.0  0.13743  0.25265  0.63842  1.0000
  C   C93       1.0  0.23053  0.45242  0.51609  1.0000
  H   H150      1.0  0.21382  0.49161  0.36645  1.0000
  H   H151      1.0  0.00688  0.10074  0.63650  1.0000
  H   H152      1.0  0.21867  0.04469  0.60910  1.0000
  H   H153      1.0  0.44589  0.47638  0.46236  1.0000
  C   C94       1.0  0.38483  0.48428  0.60982  1.0000
  H   H154      1.0  0.48012  0.35817  0.40471  1.0000
  C   C95       1.0  0.29605  0.41895  0.50806  1.0000
  C   C96       1.0  0.26526  0.48463  0.37053  1.0000
  C   C97       1.0  0.02048  0.31510  0.63071  1.0000
  H   H155      1.0  0.06351  0.09449  0.64664  1.0000
  C   C98       1.0  0.45269  0.34644  0.38358  1.0000
  H   H156      1.0  0.17675  0.42329  0.53071  1.0000
  H   H157      1.0  0.28625  0.02243  0.49543  1.0000
  H   H158      1.0  0.27187  0.44683  0.49036  1.0000
  H   H159      1.0  0.36398  0.33375  0.37748  1.0000
  H   H160      1.0  0.15126  0.31047  0.63944  1.0000
  H   H161      1.0  0.30757  0.42073  0.52014  1.0000
  H   H162      1.0  0.06343  0.29365  0.62103  1.0000
  C   C99       1.0  0.46793  0.48684  0.45654  1.0000
  H   H163      1.0  0.49333  0.37902  0.38691  1.0000
  H   H164      1.0  0.24181  0.07961  0.48062  1.0000
  H   H165      1.0  0.50376  0.20949  0.45273  1.0000
  H   H166      1.0  0.17301  0.31315  0.34804  1.0000
  C   C100      1.0  0.49866  0.19600  0.42692  1.0000
  H   H167      1.0  0.26450  0.05459  0.50462  1.0000
  C   C101      1.0  0.19882  0.40797  0.53057  1.0000
  H   H168      1.0  0.27539  0.40134  0.50836  1.0000
  H   H169      1.0  0.42396  0.31887  0.42467  1.0000
  C   C102      1.0  0.33023  0.50128  0.64058  1.0000
  C   C103      1.0  0.23313  0.40021  0.39457  1.0000
  H   H170      1.0  0.46748  0.31607  0.42347  1.0000
  C   C104      1.0  0.24016  0.50021  0.48768  1.0000
  C   C105      1.0  0.25406  0.50278  0.50509  1.0000
  H   H171      1.0  0.45220  0.01011  0.62390  1.0000
  H   H172      1.0  0.30577  0.46747  0.49919  1.0000
  C   C106      1.0  0.26217  0.02878  0.50064  1.0000
  C   C107      1.0  0.29056  0.04419  0.53330  1.0000
  N   N7        1.0  0.09491  0.27172  0.65034  1.0000
  N   N8        1.0  0.27021  0.37688  0.35275  1.0000
  C   C108      1.0  0.29048  0.34804  0.35737  1.0000
  C   C109      1.0  0.24044  0.36504  0.34359  1.0000
  C   C110      1.0  0.29043  0.39734  0.34135  1.0000
  C   C111      1.0  0.26071  0.39766  0.36708  1.0000
  C   C112      1.0  0.25406  0.37982  0.38326  1.0000
  C   C113      1.0  0.32459  0.35647  0.36441  1.0000
  C   C114      1.0  0.27287  0.42588  0.33302  1.0000
  C   C115      1.0  0.21684  0.34186  0.35256  1.0000
  H   H173      1.0  0.22953  0.44346  0.54225  1.0000
  H   H174      1.0  0.44267  0.32330  0.38843  1.0000
  C   C116      1.0  0.20410  0.24723  0.64504  1.0000
  H   H175      1.0  0.42216  0.01645  0.59950  1.0000
  H   H176      1.0  0.29431  0.33195  0.34667  1.0000
  H   H177      1.0  0.27778  0.33234  0.36619  1.0000
  H   H178      1.0  0.22511  0.38589  0.34002  1.0000
  H   H179      1.0  0.49719  0.03408  0.43987  1.0000
  C   C117      1.0  0.23728  0.02802  0.48650  1.0000
  H   H180      1.0  0.31161  0.40851  0.34789  1.0000
  H   H181      1.0  0.28015  0.41598  0.36995  1.0000
  H   H182      1.0  0.23909  0.41248  0.36399  1.0000
  H   H183      1.0  0.11505  0.32120  0.62856  1.0000
  C   C118      1.0  0.27003  0.46952  0.61023  1.0000
  H   H184      1.0  0.34139  0.36397  0.35461  1.0000
  H   H185      1.0  0.32332  0.37676  0.37326  1.0000
  H   H186      1.0  0.26110  0.44183  0.34207  1.0000
  H   H187      1.0  0.25409  0.41680  0.32439  1.0000
  H   H188      1.0  0.30469  0.48967  0.52567  1.0000
  C   C119      1.0  0.38686  0.01369  0.63089  1.0000
  C   C120      1.0  0.32193  0.05908  0.52658  1.0000
  H   H189      1.0  0.20814  0.24797  0.63216  1.0000
  H   H190      1.0  0.33655  0.45450  0.65234  1.0000
  S   S35       1.0  0.31871  0.48962  0.45336  1.0000
  H   H191      1.0  0.47994  0.25582  0.43812  1.0000
  C   C121      1.0  0.24499  0.01406  0.59228  1.0000
  C   C122      1.0  0.50002  0.09858  0.42555  1.0000
  H   H192      1.0  0.17623  0.04255  0.54347  1.0000
  H   H193      1.0  0.27746  0.37505  0.38950  1.0000
  H   H194      1.0  0.32470  0.48948  0.62883  1.0000
  C   C123      1.0  0.19546  0.21762  0.65229  1.0000
  H   H195      1.0  0.03058  0.34033  0.63083  1.0000
  N   N9        1.0  0.46602  0.21200  0.42498  1.0000
  H   H196      1.0  0.22938  0.32038  0.35745  1.0000
  C   C124      1.0  0.45281  0.20386  0.40836  1.0000
  C   C125      1.0  0.47151  0.24844  0.42583  1.0000
  C   C126      1.0  0.44180  0.20252  0.43792  1.0000
  C   C127      1.0  0.44491  0.16827  0.44545  1.0000
  C   C128      1.0  0.18360  0.01726  0.54614  1.0000
  C   C129      1.0  0.44142  0.26950  0.42198  1.0000
  C   C130      1.0  0.44685  0.16736  0.40446  1.0000
  C   C131      1.0  0.43631  0.16222  0.38691  1.0000
  C   C132      1.0  0.41669  0.16132  0.45695  1.0000
  H   H197      1.0  0.16344  0.32049  0.61110  1.0000
  C   C133      1.0  0.44530  0.30432  0.42837  1.0000
  C   C134      1.0  0.49920  0.06024  0.39764  1.0000
  H   H198      1.0  0.34370  0.42033  0.49658  1.0000
  H   H199      1.0  0.42892  0.21561  0.40641  1.0000
  H   H200      1.0  0.46939  0.21386  0.39896  1.0000
  H   H201      1.0  0.20465  0.35519  0.36249  1.0000
  H   H202      1.0  0.31590  0.04131  0.58208  1.0000
  H   H203      1.0  0.44296  0.21994  0.44828  1.0000
  H   H204      1.0  0.41645  0.20449  0.43318  1.0000
  H   H205      1.0  0.49884  0.45221  0.46775  1.0000
  H   H206      1.0  0.44508  0.14885  0.43618  1.0000
  C   C135      1.0  0.24812  0.01016  0.62163  1.0000
  H   H207      1.0  0.35543  0.47483  0.58824  1.0000
  H   H208      1.0  0.41897  0.25914  0.42738  1.0000
  H   H209      1.0  0.43812  0.27079  0.40869  1.0000
  H   H210      1.0  0.43490  0.36596  0.38608  1.0000
  H   H211      1.0  0.42689  0.15765  0.41202  1.0000
  H   H212      1.0  0.43161  0.13588  0.38465  1.0000
  H   H213      1.0  0.41350  0.17550  0.38438  1.0000
  H   H214      1.0  0.45568  0.17057  0.37856  1.0000
  H   H215      1.0  0.41888  0.13647  0.46192  1.0000
  H   H216      1.0  0.41689  0.17904  0.46714  1.0000
  H   H217      1.0  0.39301  0.16279  0.45049  1.0000
  H   H218      1.0  0.17759  0.05612  0.39113  1.0000
  H   H219      1.0  0.44659  0.30462  0.44176  1.0000
  C   C136      1.0  0.06800  0.29562  0.64754  1.0000
  H   H220      1.0  0.50028  0.30467  0.39200  1.0000
  H   H221      1.0  0.08107  0.16939  0.64865  1.0000
  H   H222      1.0  0.41769  0.01596  0.46767  1.0000
  H   H223      1.0  0.31997  0.06264  0.51337  1.0000
  H   H224      1.0  0.34188  0.30650  0.36409  1.0000
  H   H225      1.0  0.07773  0.32098  0.64761  1.0000
  H   H226      1.0  0.30084  0.38180  0.33161  1.0000
  C   C137      1.0  0.21860  0.01158  0.54076  1.0000
  H   H227      1.0  0.45568  0.34416  0.37031  1.0000
  H   H228      1.0  0.32660  0.08315  0.53238  1.0000
  C   C138      1.0  0.15114  0.29729  0.61442  1.0000
  C   C139      1.0  0.28027  0.47920  0.52857  1.0000
  H   H229      1.0  0.02740  0.18540  0.64043  1.0000
  C   C140      1.0  0.23809  0.49662  0.36202  1.0000
  H   H230      1.0  0.22629  0.05408  0.46449  1.0000
  H   H231      1.0  0.23705  0.49903  0.54095  1.0000
  C   C141      1.0  0.13314  0.30182  0.63037  1.0000
  H   H232      1.0  0.18171  0.01348  0.55937  1.0000
  H   H233      1.0  0.46904  0.15286  0.40628  1.0000
  H   H234      1.0  0.49129  0.25591  0.41742  1.0000
  H   H235      1.0  0.19831  0.39204  0.51967  1.0000
  C   C142      1.0  0.27838  0.50353  0.55689  1.0000
  C   C143      1.0  0.35512  0.02052  0.64044  1.0000
  H   H236      1.0  0.13384  0.29031  0.60463  1.0000
  C   C144      1.0  0.22273  0.01769  0.52237  1.0000
  H   H237      1.0  0.07014  0.22829  0.64159  1.0000
  H   H238      1.0  0.24156  0.35608  0.38168  1.0000
  H   H239      1.0  0.49602  0.16919  0.42743  1.0000
  C   C145      1.0  0.35872  0.01160  0.58615  1.0000
  C   C146      1.0  0.42993  0.06511  0.46144  1.0000
  H   H240      1.0  0.38811  0.44674  0.59134  1.0000
  C   C147      1.0  0.15367  0.01678  0.36626  1.0000
  H   H241      1.0  0.27037  0.06139  0.53144  1.0000
  H   H242      1.0  0.38817  0.47125  0.50104  1.0000
  H   H243      1.0  0.49456  0.48983  0.47875  1.0000
  H   H244      1.0  0.27646  0.44516  0.60653  1.0000
  C   C148      1.0  0.24404  0.05549  0.47461  1.0000
  C   C149      1.0  0.49808  0.47905  0.46659  1.0000
  H   H245      1.0  0.33707  0.02188  0.60901  1.0000
  H   H246      1.0  0.29736  0.49254  0.59102  1.0000
  H   H247      1.0  0.46981  0.47615  0.44423  1.0000
  C   C150      1.0  0.24997  0.47378  0.62386  1.0000
  C   C151      1.0  0.29680  0.48980  0.36469  1.0000
  H   H248      1.0  0.23110  0.38796  0.40643  1.0000
  H   H249      1.0  0.14919  0.05541  0.33896  1.0000
  H   H250      1.0  0.31695  0.45582  0.33100  1.0000
  H   H251      1.0  0.22010  0.48193  0.48691  1.0000
  H   H252      1.0  0.16992  0.27826  0.61553  1.0000
  C   C152      1.0  0.36039  0.48049  0.47942  1.0000
  H   H253      1.0  0.23484  0.02551  0.58174  1.0000
  H   H254      1.0  0.25958  0.49319  0.47907  1.0000
  H   H255      1.0  0.01535  0.19766  0.62033  1.0000
  H   H256      1.0  0.34295  0.04322  0.52919  1.0000
  C   C153      1.0  0.19000  0.32915  0.34125  1.0000
  H   H257      1.0  0.40628  0.07107  0.45580  1.0000
  H   H258      1.0  0.03432  0.03302  0.35326  1.0000
  H   H259      1.0  0.33943  0.03799  0.63403  1.0000
  H   H260      1.0  0.44370  0.03524  0.43436  1.0000
  H   H261      1.0  0.17591  0.34963  0.33622  1.0000
  H   H262      1.0  0.20993  0.46941  0.51793  1.0000
  H   H263      1.0  0.00674  0.31128  0.61928  1.0000
  C   C154      1.0  0.22959  0.42924  0.53080  1.0000
  H   H264      1.0  0.32394  0.31943  0.38295  1.0000
  H   H265      1.0  0.26174  0.47077  0.38141  1.0000
  H   H266      1.0  0.10412  0.25811  0.62543  1.0000
  C   C155      1.0  0.32135  0.40488  0.49654  1.0000
  H   H267      1.0  0.03672  0.26575  0.63140  1.0000
  S   S36       1.0  0.18969  0.18235  0.64030  1.0000
  C   C156      1.0  0.04789  0.29044  0.63184  1.0000
  H   H268      1.0  0.29361  0.04235  0.54660  1.0000
  H   H269      1.0  0.24797  0.35277  0.33216  1.0000
  H   H270      1.0  0.33846  0.03116  0.56420  1.0000
  C   C157      1.0  0.13276  0.03809  0.33247  1.0000
  C   C158      1.0  0.29682  0.44640  0.32322  1.0000
  H   H271      1.0  0.09418  0.03482  0.35996  1.0000
  H   H272      1.0  0.10731  0.04603  0.33412  1.0000
  C   C159      1.0  0.43620  0.02865  0.46018  1.0000
  C   C160      1.0  0.37110  0.48734  0.49531  1.0000
  C   C161      1.0  0.28292  0.00963  0.52628  1.0000
  H   H273      1.0  0.27395  0.47959  0.56264  1.0000
  C   C162      1.0  0.38106  0.47265  0.59235  1.0000
  C   C163      1.0  0.01093  0.09420  0.64893  1.0000
  H   H274      1.0  0.38197  0.49051  0.64228  1.0000
  H   H275      1.0  0.21523  0.29837  0.64880  1.0000
  H   H276      1.0  0.41090  0.48231  0.61306  1.0000
  C   C164      1.0  0.33707  0.50013  0.47217  1.0000
  C   C165      1.0  0.11709  0.26942  0.63591  1.0000
  H   H277      1.0  0.26887  0.05331  0.46952  1.0000
  H   H278      1.0  0.01979  0.15521  0.62501  1.0000
  H   H279      1.0  0.21887  0.00777  0.33395  1.0000
  H   H280      1.0  0.12939  0.01774  0.38988  1.0000
  H   H281      1.0  0.20429  0.02176  0.38904  1.0000
  H   H282      1.0  0.20182  0.00585  0.51595  1.0000
  C   C166      1.0  0.03507  0.00615  0.35442  1.0000
  H   H283      1.0  0.23914  0.00490  0.47956  1.0000
  C   C167      1.0  0.09588  0.00783  0.36017  1.0000
  C   C168      1.0  0.23531  0.00470  0.34399  1.0000
  H   H284      1.0  0.17891  0.01322  0.36195  1.0000
  C   C169      1.0  0.15300  0.01030  0.38467  1.0000
  Fe  Fe17      1.0  0.18884  0.42411  0.69273  1.0000
  S   S37       1.0  0.23004  0.40264  0.67867  1.0000
  S   S38       1.0  0.19148  0.44040  0.71921  1.0000
  Fe  Fe18      1.0  0.13636  0.39970  0.66794  1.0000
  N   N10       1.0  0.26333  0.48576  0.92078  1.0000
  C   C170      1.0  0.30462  0.18349  0.72226  1.0000
  H   H285      1.0  0.17090  0.06692  0.89723  1.0000
  S   S39       1.0  0.15758  0.37935  0.69057  1.0000
  S   S40       1.0  0.16468  0.44718  0.67093  1.0000
  S   S41       1.0  0.18251  0.05415  0.67710  1.0000
  H   H286      1.0  0.50229  0.13723  0.82662  1.0000
  S   S42       1.0  0.16275  0.13022  0.67747  1.0000
  H   H287      1.0  0.18121  0.19435  0.72787  1.0000
  Fe  Fe19      1.0  0.20639  0.10139  0.68470  1.0000
  S   S43       1.0  0.22624  0.11983  0.70899  1.0000
  Fe  Fe20      1.0  0.14011  0.08384  0.66823  1.0000
  N   N11       1.0  0.28084  0.22672  0.70287  1.0000
  H   H288      1.0  0.43372  0.34035  0.82704  1.0000
  Fe  Fe21      1.0  0.32060  0.13264  0.81230  1.0000
  S   S44       1.0  0.35658  0.12629  0.79220  1.0000
  S   S45       1.0  0.29369  0.17849  0.81947  1.0000
  Fe  Fe22      1.0  0.32582  0.06190  0.82385  1.0000
  S   S46       1.0  0.36298  0.05034  0.80454  1.0000
  S   S47       1.0  0.31267  0.02736  0.84481  1.0000
  Fe  Fe23      1.0  0.38697  0.09885  0.81023  1.0000
  S   S48       1.0  0.43991  0.11538  0.81537  1.0000
  Fe  Fe24      1.0  0.33022  0.07866  0.78776  1.0000
  S   S49       1.0  0.31867  0.05865  0.76249  1.0000
  S   S50       1.0  0.35212  0.10854  0.83060  1.0000
  S   S51       1.0  0.29192  0.08680  0.80667  1.0000
  Fe  Fe25      1.0  0.31064  0.42276  0.82487  1.0000
  S   S52       1.0  0.34095  0.46040  0.81207  1.0000
  S   S53       1.0  0.27044  0.43254  0.84354  1.0000
  Fe  Fe26      1.0  0.33994  0.36651  0.80494  1.0000
  S   S54       1.0  0.37192  0.40085  0.79098  1.0000
  S   S55       1.0  0.34812  0.31515  0.79556  1.0000
  Fe  Fe27      1.0  0.38263  0.42526  0.81464  1.0000
  S   S56       1.0  0.43348  0.43846  0.82432  1.0000
  Fe  Fe28      1.0  0.32776  0.43231  0.78931  1.0000
  S   S57       1.0  0.31638  0.45421  0.76473  1.0000
  S   S58       1.0  0.35300  0.38908  0.82895  1.0000
  S   S59       1.0  0.29518  0.39669  0.80180  1.0000
  C   C171      1.0  0.47162  0.43484  0.81435  1.0000
  C   C172      1.0  0.29536  0.28841  0.70535  1.0000
  C   C173      1.0  0.47387  0.42689  0.79795  1.0000
  H   H289      1.0  0.10196  0.16164  0.66720  1.0000
  H   H290      1.0  0.45191  0.42303  0.79093  1.0000
  C   C174      1.0  0.47931  0.09830  0.81308  1.0000
  C   C175      1.0  0.48473  0.06930  0.80461  1.0000
  H   H291      1.0  0.24597  0.45408  0.97537  1.0000
  H   H292      1.0  0.46432  0.05597  0.79942  1.0000
  C   C176      1.0  0.10292  0.21239  0.66014  1.0000
  C   C177      1.0  0.30990  0.21663  0.81356  1.0000
  C   C178      1.0  0.33661  0.21861  0.80322  1.0000
  C   C179      1.0  0.34829  0.24908  0.79812  1.0000
  C   C180      1.0  0.33382  0.27791  0.80352  1.0000
  C   C181      1.0  0.30739  0.27609  0.81408  1.0000
  C   C182      1.0  0.29535  0.24548  0.81900  1.0000
  H   H293      1.0  0.34806  0.19666  0.79899  1.0000
  H   H294      1.0  0.36863  0.25028  0.78989  1.0000
  H   H295      1.0  0.29596  0.29816  0.81824  1.0000
  H   H296      1.0  0.27469  0.24414  0.82702  1.0000
  C   C183      1.0  0.19047  0.03026  0.71949  1.0000
  H   H297      1.0  0.34165  0.19333  0.74071  1.0000
  C   C184      1.0  0.24619  0.01187  0.84501  1.0000
  C   C185      1.0  0.25318  0.10301  0.72337  1.0000
  C   C186      1.0  0.27108  0.07505  0.72017  1.0000
  C   C187      1.0  0.29133  0.06207  0.73222  1.0000
  C   C188      1.0  0.29407  0.07696  0.74753  1.0000
  C   C189      1.0  0.27652  0.10524  0.75063  1.0000
  C   C190      1.0  0.25614  0.11811  0.73862  1.0000
  H   H298      1.0  0.26923  0.06331  0.70847  1.0000
  H   H299      1.0  0.30487  0.04021  0.72970  1.0000
  H   H300      1.0  0.27835  0.11690  0.76236  1.0000
  H   H301      1.0  0.24226  0.13965  0.74127  1.0000
  C   C191      1.0  0.04478  0.40074  0.66253  1.0000
  H   H302      1.0  0.24181  0.06202  0.77388  1.0000
  H   H303      1.0  0.29947  0.16349  0.71353  1.0000
  C   C192      1.0  0.22719  0.43981  0.73139  1.0000
  C   C193      1.0  0.25785  0.44724  0.72505  1.0000
  C   C194      1.0  0.28500  0.45090  0.73539  1.0000
  C   C195      1.0  0.28214  0.44603  0.75210  1.0000
  C   C196      1.0  0.25186  0.43679  0.75835  1.0000
  C   C197      1.0  0.22441  0.43438  0.74809  1.0000
  H   H304      1.0  0.26034  0.45181  0.71227  1.0000
  H   H305      1.0  0.30828  0.45812  0.73043  1.0000
  H   H306      1.0  0.24934  0.43302  0.77116  1.0000
  H   H307      1.0  0.20077  0.42883  0.75314  1.0000
  H   H308      1.0  0.32451  0.18577  0.68569  1.0000
  H   H309      1.0  0.20754  0.48548  0.77946  1.0000
  H   H310      1.0  0.29704  0.47582  0.94021  1.0000
  H   H311      1.0  0.33204  0.15091  0.73744  1.0000
  H   H312      1.0  0.18345  0.19443  0.67466  1.0000
  H   H313      1.0  0.18972  0.24443  0.69105  1.0000
  H   H314      1.0  0.27264  0.29414  0.71183  1.0000
  H   H315      1.0  0.17151  0.03599  0.77018  1.0000
  H   H316      1.0  0.28477  0.32337  0.68644  1.0000
  C   C198      1.0  0.19443  0.24518  0.67828  1.0000
  C   C199      1.0  0.21012  0.46600  0.81215  1.0000
  H   H317      1.0  0.13616  0.26748  0.66633  1.0000
  H   H318      1.0  0.01313  0.38027  0.73518  1.0000
  S   S60       1.0  0.08349  0.38183  0.66387  1.0000
  H   H319      1.0  0.11088  0.21903  0.67256  1.0000
  C   C200      1.0  0.22030  0.49641  0.87189  1.0000
  H   H320      1.0  0.20859  0.22141  0.73866  1.0000
  C   C201      1.0  0.30429  0.31826  0.69535  1.0000
  C   C202      1.0  0.13278  0.11832  0.71985  1.0000
  H   H321      1.0  0.35640  0.17236  0.72288  1.0000
  C   C203      1.0  0.33566  0.17467  0.73135  1.0000
  H   H322      1.0  0.28551  0.46857  0.96929  1.0000
  C   C204      1.0  0.20358  0.27460  0.67113  1.0000
  S   S61       1.0  0.21134  0.30855  0.68368  1.0000
  H   H323      1.0  0.28905  0.14250  0.67437  1.0000
  H   H324      1.0  0.47246  0.33040  0.79576  1.0000
  H   H325      1.0  0.36315  0.40112  0.74935  1.0000
  C   C205      1.0  0.08597  0.17912  0.66098  1.0000
  C   C206      1.0  0.26397  0.45387  0.96540  1.0000
  C   C207      1.0  0.43788  0.34262  0.81386  1.0000
  H   H326      1.0  0.22342  0.05496  0.74485  1.0000
  H   H327      1.0  0.46899  0.30142  0.81195  1.0000
  H   H328      1.0  0.16337  0.47280  0.90729  1.0000
  H   H329      1.0  0.23581  0.25286  0.70642  1.0000
  C   C208      1.0  0.17726  0.47879  0.97606  1.0000
  H   H330      1.0  0.32755  0.31450  0.68885  1.0000
  C   C209      1.0  0.22985  0.46879  0.86289  1.0000
  C   C210      1.0  0.24875  0.46818  0.95023  1.0000
  H   H331      1.0  0.18521  0.23614  0.72168  1.0000
  H   H332      1.0  0.01144  0.47128  0.94656  1.0000
  C   C211      1.0  0.04511  0.43536  0.71319  1.0000
  S   S62       1.0  0.08885  0.07377  0.67824  1.0000
  C   C212      1.0  0.45441  0.19777  0.78987  1.0000
  H   H333      1.0  0.43732  0.36873  0.81058  1.0000
  H   H334      1.0  0.18560  0.07676  0.76575  1.0000
  C   C213      1.0  0.07992  0.23848  0.65313  1.0000
  H   H335      1.0  0.04547  0.43547  0.72657  1.0000
  H   H336      1.0  0.18767  0.41804  0.81116  1.0000
  H   H337      1.0  0.21400  0.44759  0.86241  1.0000
  H   H338      1.0  0.00726  0.47427  0.66191  1.0000
  C   C214      1.0  0.47033  0.32766  0.80902  1.0000
  H   H339      1.0  0.24646  0.50121  0.77388  1.0000
  N   N12       1.0  0.25189  0.12121  0.86569  1.0000
  C   C215      1.0  0.23278  0.15219  0.86753  1.0000
  C   C216      1.0  0.24116  0.09628  0.87804  1.0000
  C   C217      1.0  0.28719  0.12987  0.86898  1.0000
  C   C218      1.0  0.24939  0.10726  0.84883  1.0000
  C   C219      1.0  0.21460  0.09869  0.84279  1.0000
  C   C220      1.0  0.24075  0.17955  0.85530  1.0000
  C   C221      1.0  0.31099  0.10095  0.86992  1.0000
  C   C222      1.0  0.20477  0.09578  0.88304  1.0000
  C   C223      1.0  0.19669  0.06609  0.89332  1.0000
  C   C224      1.0  0.21405  0.09137  0.82470  1.0000
  C   C225      1.0  0.21985  0.20943  0.85837  1.0000
  C   C226      1.0  0.34501  0.11245  0.87506  1.0000
  H   H340      1.0  0.23636  0.16238  0.87994  1.0000
  H   H341      1.0  0.20626  0.14756  0.86648  1.0000
  H   H342      1.0  0.24753  0.07129  0.87385  1.0000
  H   H343      1.0  0.25468  0.10005  0.88961  1.0000
  H   H344      1.0  0.28948  0.14389  0.88052  1.0000
  H   H345      1.0  0.29710  0.14591  0.85937  1.0000
  H   H346      1.0  0.26131  0.12384  0.84002  1.0000
  H   H347      1.0  0.26338  0.08437  0.84784  1.0000
  H   H348      1.0  0.19747  0.11881  0.84488  1.0000
  H   H349      1.0  0.20556  0.07655  0.84899  1.0000
  H   H350      1.0  0.26651  0.18770  0.85620  1.0000
  H   H351      1.0  0.23581  0.17120  0.84275  1.0000
  H   H352      1.0  0.31316  0.08942  0.85792  1.0000
  H   H353      1.0  0.30297  0.08210  0.87859  1.0000
  H   H354      1.0  0.19938  0.11777  0.89040  1.0000
  H   H355      1.0  0.18817  0.09535  0.87251  1.0000
  H   H356      1.0  0.16697  0.46099  0.92825  1.0000
  H   H357      1.0  0.20007  0.04335  0.88625  1.0000
  H   H358      1.0  0.21241  0.06553  0.90425  1.0000
  H   H359      1.0  0.22283  0.11281  0.81781  1.0000
  H   H360      1.0  0.22951  0.07018  0.82188  1.0000
  H   H361      1.0  0.18879  0.08543  0.82078  1.0000
  H   H362      1.0  0.22443  0.21944  0.87068  1.0000
  H   H363      1.0  0.22614  0.22854  0.84947  1.0000
  H   H364      1.0  0.19361  0.20317  0.85701  1.0000
  H   H365      1.0  0.36184  0.09153  0.87478  1.0000
  H   H366      1.0  0.35446  0.13127  0.86669  1.0000
  H   H367      1.0  0.34460  0.12260  0.88752  1.0000
  H   H368      1.0  0.32687  0.46176  0.91672  1.0000
  H   H369      1.0  0.26900  0.48055  0.89489  1.0000
  H   H370      1.0  0.16283  0.43045  0.91261  1.0000
  H   H371      1.0  0.05847  0.24008  0.66124  1.0000
  H   H372      1.0  0.05046  0.29502  0.65774  1.0000
  H   H373      1.0  0.32487  0.49492  0.90259  1.0000
  C   C227      1.0  0.21063  0.45335  0.91383  1.0000
  H   H374      1.0  0.50269  0.17413  0.77173  1.0000
  C   C228      1.0  0.20801  0.27575  0.65442  1.0000
  H   H375      1.0  0.33182  0.21726  0.70731  1.0000
  C   C229      1.0  0.19231  0.05071  0.76568  1.0000
  C   C230      1.0  0.32190  0.47684  0.65377  1.0000
  C   C231      1.0  0.49090  0.20342  0.79249  1.0000
  H   H376      1.0  0.49912  0.44621  0.83592  1.0000
  C   C232      1.0  0.22704  0.48658  0.91809  1.0000
  H   H377      1.0  0.31458  0.25462  0.68814  1.0000
  H   H378      1.0  0.01907  0.35474  0.66206  1.0000
  H   H379      1.0  0.02429  0.38762  0.70986  1.0000
  H   H380      1.0  0.27054  0.44330  0.90554  1.0000
  H   H381      1.0  0.27601  0.44096  0.93290  1.0000
  C   C233      1.0  0.31583  0.46996  0.90524  1.0000
  H   H382      1.0  0.09786  0.44025  0.71249  1.0000
  H   H383      1.0  0.26024  0.47743  0.81801  1.0000
  H   H384      1.0  0.21578  0.44675  0.90106  1.0000
  H   H385      1.0  0.21995  0.43368  0.92159  1.0000
  S   S63       1.0  0.23130  0.10837  0.66090  1.0000
  C   C234      1.0  0.30282  0.19306  0.67869  1.0000
  H   H386      1.0  0.32074  0.42216  0.89384  1.0000
  H   H387      1.0  0.11909  0.06800  0.72051  1.0000
  C   C235      1.0  0.25031  0.23371  0.71243  1.0000
  C   C236      1.0  0.27395  0.20142  0.68994  1.0000
  H   H388      1.0  0.25326  0.47274  0.79728  1.0000
  C   C237      1.0  0.29395  0.16490  0.66734  1.0000
  H   H389      1.0  0.29777  0.49882  0.79057  1.0000
  H   H390      1.0  0.30285  0.49603  0.84900  1.0000
  C   C238      1.0  0.22044  0.04715  0.77766  1.0000
  C   C239      1.0  0.29098  0.25772  0.69444  1.0000
  H   H391      1.0  0.27134  0.42832  0.96320  1.0000
  C   C240      1.0  0.36277  0.03543  0.65700  1.0000
  H   H392      1.0  0.44829  0.19783  0.77681  1.0000
  H   H393      1.0  0.33968  0.04022  0.66349  1.0000
  H   H394      1.0  0.31740  0.45548  0.87983  1.0000
  H   H395      1.0  0.44054  0.21736  0.79595  1.0000
  H   H396      1.0  0.04221  0.46061  0.70888  1.0000
  H   H397      1.0  0.01897  0.41319  0.69318  1.0000
  H   H398      1.0  0.28499  0.18440  0.73134  1.0000
  C   C241      1.0  0.09595  0.28579  0.68086  1.0000
  H   H399      1.0  0.24092  0.49308  0.95323  1.0000
  C   C242      1.0  0.19861  0.21505  0.72655  1.0000
  H   H400      1.0  0.19733  0.49631  0.87822  1.0000
  H   H401      1.0  0.12501  0.30796  0.66259  1.0000
  H   H402      1.0  0.26514  0.17819  0.69518  1.0000
  C   C243      1.0  0.27980  0.49598  0.85527  1.0000
  C   C244      1.0  0.50463  0.42442  0.79054  1.0000
  H   H403      1.0  0.41762  0.32990  0.80741  1.0000
  H   H404      1.0  0.21442  0.49685  0.92873  1.0000
  N   N13       1.0  0.27537  0.32592  0.75538  1.0000
  C   C245      1.0  0.27132  0.28942  0.75415  1.0000
  C   C246      1.0  0.25678  0.34255  0.74199  1.0000
  C   C247      1.0  0.31114  0.33356  0.75313  1.0000
  C   C248      1.0  0.26539  0.33892  0.77167  1.0000
  C   C249      1.0  0.23054  0.33007  0.77729  1.0000
  C   C250      1.0  0.28819  0.26931  0.76749  1.0000
  C   C251      1.0  0.32068  0.37016  0.75271  1.0000
  C   C252      1.0  0.22422  0.32657  0.73629  1.0000
  C   C253      1.0  0.20609  0.34860  0.72466  1.0000
  C   C254      1.0  0.22584  0.33864  0.79509  1.0000
  C   C255      1.0  0.28037  0.23305  0.76552  1.0000
  C   C256      1.0  0.35682  0.37475  0.74899  1.0000
  H   H405      1.0  0.28076  0.28084  0.74233  1.0000
  H   H406      1.0  0.24534  0.28195  0.75430  1.0000
  H   H407      1.0  0.25175  0.36829  0.74540  1.0000
  H   H408      1.0  0.27187  0.34423  0.73086  1.0000
  H   H409      1.0  0.32009  0.32211  0.74177  1.0000
  H   H410      1.0  0.32586  0.32315  0.76303  1.0000
  H   H411      1.0  0.28298  0.33125  0.78113  1.0000
  H   H412      1.0  0.26680  0.36595  0.77186  1.0000
  H   H413      1.0  0.22497  0.30378  0.77592  1.0000
  H   H414      1.0  0.21259  0.34424  0.77032  1.0000
  H   H415      1.0  0.31503  0.27212  0.76696  1.0000
  H   H416      1.0  0.27987  0.27677  0.77967  1.0000
  H   H417      1.0  0.31616  0.38176  0.76460  1.0000
  H   H418      1.0  0.30686  0.38330  0.74335  1.0000
  H   H419      1.0  0.22898  0.30344  0.72976  1.0000
  H   H420      1.0  0.20779  0.32106  0.74646  1.0000
  H   H421      1.0  0.22174  0.35535  0.71427  1.0000
  H   H422      1.0  0.18411  0.33573  0.71989  1.0000
  H   H423      1.0  0.19822  0.37109  0.73095  1.0000
  H   H424      1.0  0.20070  0.33213  0.79884  1.0000
  H   H425      1.0  0.24318  0.32503  0.80275  1.0000
  H   H426      1.0  0.22965  0.36510  0.79714  1.0000
  H   H427      1.0  0.25378  0.22839  0.76654  1.0000
  H   H428      1.0  0.28909  0.22393  0.75369  1.0000
  H   H429      1.0  0.29276  0.21927  0.77518  1.0000
  H   H430      1.0  0.37195  0.36227  0.75813  1.0000
  H   H431      1.0  0.36253  0.36508  0.73679  1.0000
  H   H432      1.0  0.23081  0.41791  0.81476  1.0000
  C   C257      1.0  0.07847  0.42403  0.70743  1.0000
  C   C258      1.0  0.27277  0.46725  0.93576  1.0000
  C   C259      1.0  0.04884  0.08080  0.67054  1.0000
  H   H433      1.0  0.12485  0.20954  0.65257  1.0000
  H   H434      1.0  0.11073  0.50264  0.97528  1.0000
  H   H435      1.0  0.11988  0.12497  0.73112  1.0000
  H   H436      1.0  0.30713  0.33988  0.70339  1.0000
  H   H437      1.0  0.06486  0.01654  0.95112  1.0000
  H   H438      1.0  0.23789  0.18389  0.72032  1.0000
  H   H439      1.0  0.08058  0.26403  0.68316  1.0000
  H   H440      1.0  0.50297  0.15254  0.79024  1.0000
  C   C260      1.0  0.17369  0.45460  0.91564  1.0000
  H   H441      1.0  0.15484  0.13397  0.71855  1.0000
  H   H442      1.0  0.18945  0.47681  0.80555  1.0000
  H   H443      1.0  0.11636  0.12288  0.70945  1.0000
  C   C261      1.0  0.24272  0.48382  0.80830  1.0000
  C   C262      1.0  0.11467  0.28320  0.66469  1.0000
  H   H444      1.0  0.27282  0.26372  0.68488  1.0000
  H   H445      1.0  0.03010  0.50054  0.93332  1.0000
  H   H446      1.0  0.31508  0.28500  0.71432  1.0000
  H   H447      1.0  0.22647  0.45365  0.94744  1.0000
  H   H448      1.0  0.08000  0.30742  0.68067  1.0000
  C   C263      1.0  0.27816  0.46935  0.90619  1.0000
  C   C264      1.0  0.30828  0.21689  0.71390  1.0000
  H   H449      1.0  0.10558  0.29415  0.70636  1.0000
  H   H450      1.0  0.49718  0.22749  0.78739  1.0000
  C   C265      1.0  0.19049  0.21683  0.66894  1.0000
  H   H451      1.0  0.07995  0.42494  0.69406  1.0000
  C   C266      1.0  0.11944  0.28982  0.69509  1.0000
  H   H452      1.0  0.22123  0.50346  0.90806  1.0000
  H   H453      1.0  0.44656  0.17413  0.79507  1.0000
  H   H454      1.0  0.15149  0.08221  0.74542  1.0000
  H   H455      1.0  0.50004  0.23937  0.83051  1.0000
  Fe  Fe29      1.0  0.19729  0.35894  0.67545  1.0000
  H   H456      1.0  0.15381  0.07720  0.70820  1.0000
  C   C267      1.0  0.14201  0.08244  0.71992  1.0000
  H   H457      1.0  0.24570  0.01964  0.83260  1.0000
  Fe  Fe30      1.0  0.20483  0.42272  0.65653  1.0000
  C   C268      1.0  0.16492  0.07487  0.73438  1.0000
  H   H458      1.0  0.02581  0.06795  0.69297  1.0000
  H   H459      1.0  0.18620  0.09182  0.73364  1.0000
  H   H460      1.0  0.21516  0.42632  0.79477  1.0000
  H   H461      1.0  0.20234  0.05164  0.71365  1.0000
  H   H462      1.0  0.25363  0.20958  0.68209  1.0000
  H   H463      1.0  0.17098  0.45591  0.97022  1.0000
  C   C269      1.0  0.04114  0.43452  0.66248  1.0000
  C   C270      1.0  0.32779  0.44789  0.89160  1.0000
  C   C271      1.0  0.25962  0.46833  0.85451  1.0000
  H   H464      1.0  0.08323  0.39881  0.71142  1.0000
  H   H465      1.0  0.13407  0.26753  0.69657  1.0000
  C   C272      1.0  0.50056  0.43995  0.82324  1.0000
  H   H466      1.0  0.21451  0.19738  0.70353  1.0000
  H   H467      1.0  0.25673  0.24398  0.72447  1.0000
  C   C273      1.0  0.04314  0.09058  0.65465  1.0000
  C   C274      1.0  0.02182  0.07558  0.68068  1.0000
  H   H468      1.0  0.31161  0.23504  0.72380  1.0000
  C   C275      1.0  0.22593  0.20518  0.71512  1.0000
  H   H469      1.0  0.13618  0.31082  0.69317  1.0000
  H   H470      1.0  0.12892  0.01976  0.72990  1.0000
  C   C276      1.0  0.49919  0.34476  0.81793  1.0000
  C   C277      1.0  0.21115  0.42986  0.80790  1.0000
  H   H471      1.0  0.20504  0.46809  0.82529  1.0000
  H   H472      1.0  0.30934  0.21409  0.67099  1.0000
  H   H473      1.0  0.00781  0.01891  0.96114  1.0000
  Fe  Fe31      1.0  0.18605  0.13408  0.65328  1.0000
  H   H474      1.0  0.06248  0.45019  0.66293  1.0000
  H   H475      1.0  0.37743  0.01851  0.66435  1.0000
  H   H476      1.0  0.22068  0.02240  0.98298  1.0000
  H   H477      1.0  0.06283  0.18056  0.66782  1.0000
  H   H478      1.0  0.49269  0.34522  0.83089  1.0000
  H   H479      1.0  0.13444  0.02946  0.75050  1.0000
  C   C278      1.0  0.01758  0.41271  0.70657  1.0000
  H   H480      1.0  0.27215  0.17088  0.66001  1.0000
  N   N14       1.0  0.17637  0.04015  0.73564  1.0000
  H   H481      1.0  0.35473  0.44952  0.89081  1.0000
  Fe  Fe32      1.0  0.20520  0.06267  0.65250  1.0000
  H   H482      1.0  0.49938  0.37073  0.81428  1.0000
  C   C279      1.0  0.01730  0.49751  0.94501  1.0000
  H   H483      1.0  0.23515  0.01454  0.69528  1.0000
  H   H484      1.0  0.23982  0.01350  0.72511  1.0000
  C   C280      1.0  0.01662  0.38086  0.66188  1.0000
  C   C281      1.0  0.27544  0.01351  0.85367  1.0000
  H   H485      1.0  0.21283  0.05564  0.78981  1.0000
  C   C282      1.0  0.00974  0.44811  0.66188  1.0000
  H   H486      1.0  0.17067  0.02224  0.71107  1.0000
  H   H487      1.0  0.32633  0.48767  0.66591  1.0000
  C   C283      1.0  0.20242  0.03941  0.74854  1.0000
  H   H488      1.0  0.49508  0.20446  0.80571  1.0000
  H   H489      1.0  0.49959  0.29645  0.84012  1.0000
  H   H490      1.0  0.22782  0.02133  0.77854  1.0000
  H   H491      1.0  0.37625  0.05886  0.65572  1.0000
  H   H492      1.0  0.31446  0.16009  0.65900  1.0000
  H   H493      1.0  0.21262  0.01475  0.74984  1.0000
  C   C284      1.0  0.14721  0.01925  0.73981  1.0000
  H   H494      1.0  0.00856  0.41282  0.76040  1.0000
  H   H495      1.0  0.07070  0.45256  0.98563  1.0000
  H   H496      1.0  0.29575  0.46982  0.65286  1.0000
  S   S64       1.0  0.17495  0.37649  0.65248  1.0000
  Fe  Fe33      1.0  0.31242  0.93406  0.15055  1.0000
  S   S65       1.0  0.34525  0.97080  0.16296  1.0000
  S   S66       1.0  0.27186  0.94416  0.13201  1.0000
  Fe  Fe34      1.0  0.33746  0.87847  0.17225  1.0000
  S   S67       1.0  0.37107  0.91225  0.18587  1.0000
  S   S68       1.0  0.33705  0.82860  0.18376  1.0000
  Fe  Fe35      1.0  0.32904  0.94666  0.18603  1.0000
  S   S69       1.0  0.31500  0.97298  0.20927  1.0000
  Fe  Fe36      1.0  0.38437  0.93236  0.16173  1.0000
  S   S70       1.0  0.43651  0.94032  0.15229  1.0000
  S   S71       1.0  0.29476  0.91179  0.17386  1.0000
  S   S72       1.0  0.35222  0.89677  0.14784  1.0000
  Fe  Fe37      1.0  0.32805  0.57819  0.15534  1.0000
  S   S73       1.0  0.36407  0.56146  0.17415  1.0000
  S   S74       1.0  0.28386  0.55023  0.14486  1.0000
  Fe  Fe38      1.0  0.35273  0.64889  0.15795  1.0000
  S   S75       1.0  0.38996  0.63802  0.17695  1.0000
  S   S76       1.0  0.34777  0.69619  0.14445  1.0000
  Fe  Fe39      1.0  0.40144  0.59386  0.16194  1.0000
  S   S77       1.0  0.45248  0.58279  0.15227  1.0000
  Fe  Fe40      1.0  0.35018  0.60681  0.18804  1.0000
  S   S78       1.0  0.34346  0.60777  0.21548  1.0000
  S   S79       1.0  0.36616  0.60676  0.14211  1.0000
  S   S80       1.0  0.31223  0.62157  0.17013  1.0000
  Fe  Fe41      1.0  0.18334  0.93095  0.27867  1.0000
  S   S81       1.0  0.21639  0.89771  0.29222  1.0000
  S   S82       1.0  0.18938  0.94212  0.25185  1.0000
  C   C285      1.0  0.13343  0.99388  0.99368  1.0000
  C   C286      1.0  0.01054  0.85320  0.28102  1.0000
  H   H497      1.0  0.46171  0.92035  0.18404  1.0000
  C   C287      1.0  0.16193  0.75006  0.29631  1.0000
  S   S83       1.0  0.17204  0.96332  0.30023  1.0000
  S   S84       1.0  0.13899  0.89949  0.28276  1.0000
  Fe  Fe42      1.0  0.13653  0.60011  0.30219  1.0000
  C   C288      1.0  0.30987  0.52303  0.20126  1.0000
  Fe  Fe43      1.0  0.20032  0.58975  0.28238  1.0000
  C   C289      1.0  0.05418  0.83501  0.31051  1.0000
  S   S85       1.0  0.21230  0.58541  0.25538  1.0000
  H   H498      1.0  0.30692  0.66246  0.09487  1.0000
  H   H499      1.0  0.40820  0.72372  0.18579  1.0000
  S   S86       1.0  0.16530  0.55571  0.29514  1.0000
  S   S87       1.0  0.16992  0.63316  0.28812  1.0000
  H   H500      1.0  0.26645  0.66330  0.29506  1.0000
  C   C290      1.0  0.07715  0.90320  0.24829  1.0000
  H   H501      1.0  0.22598  0.92130  0.01201  1.0000
  H   H502      1.0  0.22825  0.66742  0.23483  1.0000
  H   H503      1.0  0.27507  0.71481  0.27989  1.0000
  C   C291      1.0  0.05936  0.89161  0.26339  1.0000
  H   H504      1.0  0.33791  0.62296  0.10696  1.0000
  H   H505      1.0  0.05391  0.95394  0.28514  1.0000
  C   C292      1.0  0.28435  0.66508  0.28512  1.0000
  H   H506      1.0  0.28591  0.64113  0.27895  1.0000
  C   C293      1.0  0.49654  0.58323  0.17809  1.0000
  H   H507      1.0  0.39179  0.55798  0.09176  1.0000
  H   H508      1.0  0.09090  0.84251  0.29209  1.0000
  C   C294      1.0  0.24112  0.74071  0.25433  1.0000
  H   H509      1.0  0.22314  0.68581  0.27682  1.0000
  C   C295      1.0  0.06501  0.84899  0.29411  1.0000
  C   C296      1.0  0.22924  0.97911  0.11322  1.0000
  H   H510      1.0  0.23404  0.65687  0.13320  1.0000
  H   H511      1.0  0.26557  0.66507  0.20989  1.0000
  H   H512      1.0  0.47583  0.58644  0.18594  1.0000
  C   C297      1.0  0.03408  0.94641  0.29285  1.0000
  C   C298      1.0  0.30675  0.60211  0.22644  1.0000
  C   C299      1.0  0.30807  0.59872  0.24332  1.0000
  C   C300      1.0  0.27945  0.59386  0.25241  1.0000
  C   C301      1.0  0.24912  0.59264  0.24472  1.0000
  C   C302      1.0  0.24780  0.59638  0.22787  1.0000
  C   C303      1.0  0.27642  0.60106  0.21879  1.0000
  H   H513      1.0  0.33144  0.59937  0.24937  1.0000
  H   H514      1.0  0.28093  0.59026  0.26529  1.0000
  H   H515      1.0  0.22443  0.59571  0.22183  1.0000
  H   H516      1.0  0.27512  0.60429  0.20587  1.0000
  C   C304      1.0  0.47640  0.93253  0.15997  1.0000
  C   C305      1.0  0.26819  0.61899  0.11087  1.0000
  H   H517      1.0  0.25249  0.97263  0.25983  1.0000
  C   C306      1.0  0.15279  0.96499  0.05850  1.0000
  C   C307      1.0  0.28057  0.96272  0.22119  1.0000
  C   C308      1.0  0.27983  0.97239  0.23751  1.0000
  C   C309      1.0  0.25281  0.96487  0.24732  1.0000
  C   C310      1.0  0.22564  0.94874  0.24071  1.0000
  C   C311      1.0  0.22624  0.93952  0.22433  1.0000
  C   C312      1.0  0.25389  0.94556  0.21475  1.0000
  H   H518      1.0  0.31895  0.58721  0.11452  1.0000
  H   H519      1.0  0.21528  0.95208  0.06348  1.0000
  H   H520      1.0  0.20511  0.92758  0.21904  1.0000
  H   H521      1.0  0.25405  0.93794  0.20225  1.0000
  C   C313      1.0  0.33891  0.79214  0.17248  1.0000
  C   C314      1.0  0.33894  0.76245  0.18072  1.0000
  C   C315      1.0  0.34155  0.73286  0.17224  1.0000
  C   C316      1.0  0.34401  0.73282  0.15543  1.0000
  C   C317      1.0  0.34371  0.76250  0.14716  1.0000
  C   C318      1.0  0.34115  0.79213  0.15566  1.0000
  H   H522      1.0  0.33703  0.76227  0.19370  1.0000
  H   H523      1.0  0.34167  0.71009  0.17869  1.0000
  H   H524      1.0  0.34546  0.76256  0.13414  1.0000
  H   H525      1.0  0.34092  0.81489  0.14922  1.0000
  C   C319      1.0  0.00548  0.56710  0.31870  1.0000
  N   N15       1.0  0.04453  0.83952  0.27962  1.0000
  H   H526      1.0  0.22390  0.53778  0.16308  1.0000
  H   H527      1.0  0.48992  0.70196  0.15730  1.0000
  C   C320      1.0  0.48502  0.83720  0.16227  1.0000
  H   H528      1.0  0.22236  0.91960  0.17569  1.0000
  H   H529      1.0  0.28607  0.66760  0.11887  1.0000
  C   C321      1.0  0.07092  0.74905  0.27276  1.0000
  N   N16       1.0  0.31840  0.86737  0.23935  1.0000
  C   C322      1.0  0.33791  0.83786  0.23482  1.0000
  C   C323      1.0  0.33525  0.89695  0.23250  1.0000
  C   C324      1.0  0.31624  0.86943  0.25751  1.0000
  C   C325      1.0  0.28430  0.86532  0.23257  1.0000
  C   C326      1.0  0.28162  0.85912  0.21412  1.0000
  C   C327      1.0  0.32198  0.80441  0.23866  1.0000
  C   C328      1.0  0.30082  0.90080  0.26451  1.0000
  C   C329      1.0  0.36935  0.90536  0.23960  1.0000
  C   C330      1.0  0.38253  0.93731  0.23280  1.0000
  C   C331      1.0  0.24627  0.85407  0.20883  1.0000
  C   C332      1.0  0.34454  0.77670  0.23389  1.0000
  C   C333      1.0  0.30228  0.90109  0.28294  1.0000
  H   H530      1.0  0.36180  0.83853  0.24118  1.0000
  H   H531      1.0  0.34417  0.83813  0.22174  1.0000
  H   H532      1.0  0.33854  0.89414  0.21923  1.0000
  H   H533      1.0  0.31979  0.91861  0.23387  1.0000
  H   H534      1.0  0.34063  0.86645  0.26313  1.0000
  H   H535      1.0  0.30130  0.84889  0.26221  1.0000
  H   H536      1.0  0.26977  0.84628  0.23884  1.0000
  H   H537      1.0  0.27124  0.88839  0.23497  1.0000
  H   H538      1.0  0.29476  0.83699  0.21044  1.0000
  H   H539      1.0  0.29171  0.88010  0.20737  1.0000
  H   H540      1.0  0.31695  0.80216  0.25174  1.0000
  H   H541      1.0  0.29880  0.80077  0.23195  1.0000
  H   H542      1.0  0.27484  0.90231  0.26093  1.0000
  H   H543      1.0  0.31365  0.92307  0.26038  1.0000
  H   H544      1.0  0.36860  0.90830  0.25290  1.0000
  H   H545      1.0  0.38694  0.88606  0.23654  1.0000
  H   H546      1.0  0.38447  0.93585  0.21946  1.0000
  H   H547      1.0  0.36630  0.95775  0.23606  1.0000
  H   H548      1.0  0.40710  0.94262  0.23785  1.0000
  H   H549      1.0  0.23567  0.83205  0.21455  1.0000
  H   H550      1.0  0.23146  0.87544  0.21211  1.0000
  H   H551      1.0  0.24523  0.85075  0.19552  1.0000
  H   H552      1.0  0.33249  0.75294  0.23629  1.0000
  H   H553      1.0  0.35044  0.77788  0.22084  1.0000
  H   H554      1.0  0.36750  0.77809  0.24099  1.0000
  H   H555      1.0  0.32793  0.90132  0.28722  1.0000
  H   H556      1.0  0.29034  0.92330  0.28767  1.0000
  H   H557      1.0  0.28939  0.87950  0.28791  1.0000
  H   H558      1.0  0.29039  0.57782  0.07661  1.0000
  H   H559      1.0  0.20074  0.56057  0.99666  1.0000
  H   H560      1.0  0.22253  0.59848  0.08829  1.0000
  C   C334      1.0  0.20267  0.72265  0.31231  1.0000
  N   N17       1.0  0.45185  0.82202  0.16486  1.0000
  C   C335      1.0  0.43228  0.82095  0.14942  1.0000
  C   C336      1.0  0.45603  0.78764  0.17062  1.0000
  C   C337      1.0  0.43393  0.84245  0.17710  1.0000
  H   H561      1.0  0.23264  0.99774  0.19855  1.0000
  C   C338      1.0  0.19211  0.50917  0.00011  1.0000
  C   C339      1.0  0.43009  0.85343  0.14016  1.0000
  C   C340      1.0  0.44743  0.84163  0.19464  1.0000
  C   C341      1.0  0.42422  0.76945  0.17544  1.0000
  C   C342      1.0  0.43141  0.73611  0.18251  1.0000
  H   H562      1.0  0.07621  0.93015  0.24766  1.0000
  C   C343      1.0  0.40945  0.84935  0.12488  1.0000
  C   C344      1.0  0.42690  0.86209  0.20610  1.0000
  H   H563      1.0  0.40678  0.81325  0.15195  1.0000
  H   H564      1.0  0.44164  0.80209  0.14098  1.0000
  H   H565      1.0  0.15114  0.97902  0.06996  1.0000
  H   H566      1.0  0.21301  0.97847  0.01936  1.0000
  H   H567      1.0  0.40767  0.83555  0.17741  1.0000
  H   H568      1.0  0.43413  0.86843  0.17344  1.0000
  C   C345      1.0  0.03760  0.57670  0.31465  1.0000
  C   C346      1.0  0.26054  0.97850  0.12022  1.0000
  H   H569      1.0  0.24307  0.61462  0.07082  1.0000
  H   H570      1.0  0.20242  0.76745  0.26671  1.0000
  H   H571      1.0  0.41871  0.87225  0.14781  1.0000
  H   H572      1.0  0.45439  0.86257  0.13641  1.0000
  H   H573      1.0  0.47268  0.85144  0.19518  1.0000
  H   H574      1.0  0.44731  0.81657  0.19944  1.0000
  H   H575      1.0  0.41021  0.78316  0.18459  1.0000
  H   H576      1.0  0.03402  0.90043  0.26261  1.0000
  H   H577      1.0  0.47351  0.78696  0.18090  1.0000
  H   H578      1.0  0.19287  0.96932  0.18324  1.0000
  H   H579      1.0  0.03150  0.84702  0.31450  1.0000
  C   C347      1.0  0.24499  0.54433  0.18719  1.0000
  H   H580      1.0  0.45350  0.64832  0.13808  1.0000
  H   H581      1.0  0.06550  0.87581  0.29581  1.0000
  H   H582      1.0  0.42087  0.83185  0.11641  1.0000
  H   H583      1.0  0.38454  0.84059  0.12789  1.0000
  H   H584      1.0  0.40745  0.87321  0.11879  1.0000
  H   H585      1.0  0.43612  0.85961  0.21863  1.0000
  H   H586      1.0  0.42857  0.88817  0.20283  1.0000
  H   H587      1.0  0.40102  0.85390  0.20574  1.0000
  H   H588      1.0  0.28876  0.71189  0.23666  1.0000
  C   C348      1.0  0.21251  0.58540  0.17160  1.0000
  H   H589      1.0  0.22648  0.70736  0.22678  1.0000
  C   C349      1.0  0.29397  0.64373  0.08741  1.0000
  H   H590      1.0  0.09066  0.79494  0.26542  1.0000
  C   C350      1.0  0.17528  0.72132  0.30229  1.0000
  C   C351      1.0  0.27634  0.52836  0.12649  1.0000
  H   H591      1.0  0.45573  0.69107  0.13319  1.0000
  H   H592      1.0  0.32394  0.67172  0.05054  1.0000
  H   H593      1.0  0.31048  0.97557  0.08890  1.0000
  H   H594      1.0  0.39066  0.59760  0.10124  1.0000
  Fe  Fe44      1.0  0.17143  0.86805  0.29753  1.0000
  C   C352      1.0  0.32270  0.60150  0.10327  1.0000
  H   H595      1.0  0.02998  0.79082  0.28708  1.0000
  H   H596      1.0  0.05811  0.73784  0.28314  1.0000
  C   C353      1.0  0.23787  0.69267  0.23649  1.0000
  H   H597      1.0  0.43519  0.67789  0.15119  1.0000
  H   H598      1.0  0.15504  0.93880  0.06140  1.0000
  H   H599      1.0  0.26966  0.65425  0.08492  1.0000
  H   H600      1.0  0.12134  0.52572  0.04672  1.0000
  H   H601      1.0  0.18402  0.65439  0.25549  1.0000
  H   H602      1.0  0.28461  0.66861  0.23930  1.0000
  H   H603      1.0  0.18205  0.91933  0.16715  1.0000
  H   H604      1.0  0.06552  0.89281  0.23725  1.0000
  C   C354      1.0  0.28088  0.68521  0.21487  1.0000
  C   C355      1.0  0.07609  0.78556  0.27564  1.0000
  H   H605      1.0  0.16422  0.69818  0.29918  1.0000
  H   H606      1.0  0.20955  0.99361  0.06906  1.0000
  H   H607      1.0  0.48284  0.86349  0.15954  1.0000
  H   H608      1.0  0.25293  0.99129  0.01399  1.0000
  C   C356      1.0  0.27531  0.51162  0.20640  1.0000
  H   H609      1.0  0.01130  0.87703  0.28753  1.0000
  C   C357      1.0  0.09620  0.53457  0.02403  1.0000
  H   H610      1.0  0.12487  0.65362  0.25090  1.0000
  C   C358      1.0  0.23985  0.68442  0.26626  1.0000
  H   H611      1.0  0.29311  0.69237  0.26368  1.0000
  C   C359      1.0  0.19161  0.70746  0.25327  1.0000
  C   C360      1.0  0.27473  0.69001  0.23292  1.0000
  C   C361      1.0  0.22823  0.56456  0.06892  1.0000
  C   C362      1.0  0.33423  0.51944  0.21508  1.0000
  H   H612      1.0  0.32645  0.52334  0.11967  1.0000
  H   H613      1.0  0.23495  0.75465  0.24328  1.0000
  H   H614      1.0  0.34713  0.58914  0.08013  1.0000
  H   H615      1.0  0.23568  0.59692  0.16763  1.0000
  H   H616      1.0  0.20472  0.57085  0.06318  1.0000
  C   C363      1.0  0.22808  0.76046  0.26892  1.0000
  H   H617      1.0  0.22432  0.52811  0.12986  1.0000
  H   H618      1.0  0.09803  0.55317  0.01446  1.0000
  H   H619      1.0  0.23678  0.80608  0.28166  1.0000
  H   H620      1.0  0.27115  0.56364  0.09418  1.0000
  H   H621      1.0  0.35830  0.52937  0.21137  1.0000
  H   H622      1.0  0.30854  0.67123  0.29040  1.0000
  H   H623      1.0  0.24467  0.62916  0.10679  1.0000
  C   C364      1.0  0.27557  0.95428  0.07182  1.0000
  N   N18       1.0  0.22838  0.70617  0.25280  1.0000
  Fe  Fe45      1.0  0.13017  0.92843  0.30518  1.0000
  H   H624      1.0  0.14101  0.74867  0.28842  1.0000
  H   H625      1.0  0.18332  0.71509  0.26549  1.0000
  H   H626      1.0  0.29545  0.99126  0.05632  1.0000
  C   C365      1.0  0.30142  0.51828  0.11633  1.0000
  H   H627      1.0  0.05655  0.74453  0.26156  1.0000
  C   C366      1.0  0.23595  0.98604  0.16929  1.0000
  C   C367      1.0  0.04300  0.80308  0.27711  1.0000
  C   C368      1.0  0.30798  0.95384  0.08091  1.0000
  S   S88       1.0  0.08070  0.93794  0.31696  1.0000
  C   C369      1.0  0.17316  0.67525  0.24915  1.0000
  H   H628      1.0  0.21245  0.95916  0.11538  1.0000
  S   S89       1.0  0.23288  0.59685  0.30416  1.0000
  C   C370      1.0  0.27442  0.69130  0.27321  1.0000
  H   H629      1.0  0.21649  0.92822  0.15448  1.0000
  C   C371      1.0  0.20261  0.78205  0.31067  1.0000
  C   C372      1.0  0.23870  0.97095  0.01929  1.0000
  H   H630      1.0  0.24720  0.80710  0.26060  1.0000
  H   H631      1.0  0.27323  0.78641  0.27488  1.0000
  C   C373      1.0  0.06050  0.85398  0.26485  1.0000
  C   C374      1.0  0.20630  0.93150  0.16678  1.0000
  H   H632      1.0  0.30684  0.67916  0.21285  1.0000
  H   H633      1.0  0.26757  0.55366  0.18135  1.0000
  H   H634      1.0  0.26802  0.74155  0.25502  1.0000
  H   H635      1.0  0.24237  0.98458  0.15630  1.0000
  H   H636      1.0  0.27435  0.93270  0.06370  1.0000
  Fe  Fe46      1.0  0.20298  0.92825  0.31417  1.0000
  S   S90       1.0  0.08297  0.61279  0.29669  1.0000
  H   H637      1.0  0.12077  0.56763  0.04075  1.0000
  H   H638      1.0  0.22889  0.74601  0.28014  1.0000
  H   H639      1.0  0.27540  0.70782  0.20819  1.0000
  C   C375      1.0  0.20286  0.96759  0.17086  1.0000
  H   H640      1.0  0.08674  0.84761  0.26441  1.0000
  C   C376      1.0  0.45628  0.67327  0.14318  1.0000
  H   H641      1.0  0.25486  0.97198  0.17579  1.0000
  H   H642      1.0  0.05968  0.53715  0.99660  1.0000
  C   C377      1.0  0.21740  0.54923  0.17476  1.0000
  H   H643      1.0  0.23868  0.65843  0.26232  1.0000
  H   H644      1.0  0.46729  0.77249  0.16101  1.0000
  C   C378      1.0  0.48197  0.92263  0.17585  1.0000
  C   C379      1.0  0.01417  0.92922  0.31882  1.0000
  H   H645      1.0  0.49953  0.94392  0.13737  1.0000
  C   C380      1.0  0.01596  0.61115  0.29389  1.0000
  C   C381      1.0  0.04311  0.59886  0.30220  1.0000
  C   C382      1.0  0.24768  0.79191  0.27161  1.0000
  H   H646      1.0  0.30032  0.98572  0.24263  1.0000
  H   H647      1.0  0.07127  0.90357  0.27387  1.0000
  Fe  Fe47      1.0  0.19975  0.63834  0.31051  1.0000
  H   H648      1.0  0.19753  0.51004  0.01289  1.0000
  H   H649      1.0  0.32617  0.53321  0.22592  1.0000
  H   H650      1.0  0.18353  0.95897  0.03824  1.0000
  C   C383      1.0  0.17553  0.78050  0.30040  1.0000
  H   H651      1.0  0.27854  0.95992  0.03500  1.0000
  H   H652      1.0  0.12508  0.69677  0.24703  1.0000
  C   C384      1.0  0.04053  0.93738  0.30876  1.0000
  C   C385      1.0  0.34374  0.57926  0.09235  1.0000
  H   H653      1.0  0.17648  0.00101  0.04381  1.0000
  H   H654      1.0  0.40848  0.76545  0.16469  1.0000
  H   H655      1.0  0.24268  0.93802  0.03965  1.0000
  C   C386      1.0  0.21622  0.75313  0.31655  1.0000
  C   C387      1.0  0.18180  0.97645  0.04842  1.0000
  H   H656      1.0  0.33941  0.63953  0.07400  1.0000
  H   H657      1.0  0.21331  0.80541  0.31388  1.0000
  H   H658      1.0  0.19383  0.53912  0.17895  1.0000
  H   H659      1.0  0.10315  0.89609  0.24867  1.0000
  H   H660      1.0  0.26700  0.93405  0.00675  1.0000
  H   H661      1.0  0.26758  0.66410  0.14691  1.0000
  C   C388      1.0  0.48803  0.67661  0.15278  1.0000
  C   C389      1.0  0.13725  0.67714  0.25380  1.0000
  H   H662      1.0  0.28338  0.67660  0.05827  1.0000
  C   C390      1.0  0.24106  0.59341  0.07895  1.0000
  C   C391      1.0  0.19398  0.53778  0.99086  1.0000
  H   H663      1.0  0.20394  0.59795  0.18269  1.0000
  C   C392      1.0  0.30924  0.67321  0.06174  1.0000
  C   C393      1.0  0.25734  0.64698  0.13770  1.0000
  N   N19       1.0  0.29026  0.61248  0.09667  1.0000
  H   H664      1.0  0.09480  0.73705  0.27136  1.0000
  H   H665      1.0  0.17411  0.67021  0.23597  1.0000
  H   H666      1.0  0.14749  0.53980  0.03056  1.0000
  H   H667      1.0  0.31785  0.69463  0.06891  1.0000
  H   H668      1.0  0.09048  0.78859  0.28692  1.0000
  H   H669      1.0  0.19406  0.58844  0.16192  1.0000
  C   C394      1.0  0.49172  0.58076  0.16140  1.0000
  C   C395      1.0  0.31308  0.64196  0.07139  1.0000
  H   H670      1.0  0.33200  0.55495  0.09099  1.0000
  H   H671      1.0  0.13462  0.68181  0.26696  1.0000
  C   C396      1.0  0.12318  0.54227  0.03624  1.0000
  S   S91       1.0  0.15865  0.81539  0.29158  1.0000
  H   H672      1.0  0.44398  0.72063  0.17353  1.0000
  H   H673      1.0  0.44664  0.73861  0.19355  1.0000
  H   H674      1.0  0.24570  0.55795  0.05927  1.0000
  H   H675      1.0  0.24074  0.56110  0.19748  1.0000
  C   C397      1.0  0.28158  0.64309  0.12393  1.0000
  H   H676      1.0  0.18249  0.72625  0.24481  1.0000
  C   C398      1.0  0.21343  0.97702  0.05854  1.0000
  H   H677      1.0  0.30964  0.54910  0.19794  1.0000
  H   H678      1.0  0.22405  0.54308  0.07672  1.0000
  C   C399      1.0  0.37737  0.57406  0.09976  1.0000
  H   H679      1.0  0.25606  0.95211  0.08101  1.0000
  H   H680      1.0  0.04921  0.84361  0.25366  1.0000
  H   H681      1.0  0.30475  0.62151  0.06357  1.0000
  C   C400      1.0  0.24134  0.94192  0.00777  1.0000
  H   H682      1.0  0.12994  0.96837  0.05154  1.0000
  H   H683      1.0  0.30459  0.63439  0.12927  1.0000
  C   C401      1.0  0.27451  0.58568  0.08666  1.0000
  H   H684      1.0  0.05018  0.80835  0.30993  1.0000
  C   C402      1.0  0.07066  0.51461  0.99161  1.0000
  H   H685      1.0  0.25269  0.62315  0.14350  1.0000
  H   H686      1.0  0.26202  0.59573  0.11707  1.0000
  H   H687      1.0  0.37516  0.56220  0.11171  1.0000
  H   H688      1.0  0.18480  0.97767  0.16232  1.0000
  H   H689      1.0  0.30906  0.93182  0.08856  1.0000
  H   H690      1.0  0.01983  0.62808  0.28416  1.0000
  H   H691      1.0  0.49970  0.83654  0.17356  1.0000
  C   C403      1.0  0.25179  0.96276  0.03644  1.0000
  H   H692      1.0  0.12196  0.53161  0.99078  1.0000
  N   N20       1.0  0.24436  0.98664  0.04992  1.0000
  C   C404      1.0  0.27166  0.98624  0.06223  1.0000
  C   C405      1.0  0.24398  0.52073  0.12206  1.0000
  H   H693      1.0  0.10910  0.98569  0.99668  1.0000
  H   H694      1.0  0.48594  0.66031  0.16336  1.0000
  Fe  Fe48      1.0  0.19621  0.56589  0.31752  1.0000
  H   H695      1.0  0.19845  0.54096  0.21086  1.0000
  H   H696      1.0  0.23260  0.94894  0.99558  1.0000
  H   H697      1.0  0.03398  0.50878  0.01820  1.0000
  H   H698      1.0  0.07264  0.53736  0.03032  1.0000
  H   H699      1.0  0.32866  0.95341  0.07233  1.0000
  H   H700      1.0  0.02845  0.79724  0.26605  1.0000
  H   H701      1.0  0.05204  0.70429  0.30925  1.0000
  H   H702      1.0  0.26818  0.52872  0.21620  1.0000
  H   H703      1.0  0.31912  0.50884  0.19084  1.0000
  N   N21       1.0  0.24983  0.51023  0.19319  1.0000
  C   C406      1.0  0.50338  0.93611  0.14965  1.0000
  H   H704      1.0  0.49309  0.81967  0.13726  1.0000
  H   H705      1.0  0.22030  0.51678  0.22522  1.0000
  C   C407      1.0  0.20393  0.51576  0.21455  1.0000
  H   H706      1.0  0.16196  0.51448  0.23032  1.0000
  H   H707      1.0  0.30624  0.00429  0.12224  1.0000
  C   C408      1.0  0.27358  0.52127  0.34237  1.0000
  H   H708      1.0  0.42947  0.93396  0.43994  1.0000
  S   S92       1.0  0.24155  0.93994  0.33368  1.0000
  H   H709      1.0  0.39769  0.99878  0.41478  1.0000
  H   H710      1.0  0.26915  0.90548  0.58488  1.0000
  S   S93       1.0  0.20656  0.52748  0.33705  1.0000
  Fe  Fe49      1.0  0.39653  0.59201  0.57087  1.0000
  S   S94       1.0  0.39231  0.60401  0.54460  1.0000
  S   S95       1.0  0.44191  0.59698  0.58634  1.0000
  Fe  Fe50      1.0  0.32408  0.57551  0.57471  1.0000
  S   S96       1.0  0.31366  0.58695  0.54845  1.0000
  S   S97       1.0  0.28805  0.56337  0.59523  1.0000
  Fe  Fe51      1.0  0.35970  0.55966  0.54284  1.0000
  S   S98       1.0  0.36959  0.51858  0.52475  1.0000
  Fe  Fe52      1.0  0.34707  0.63109  0.55174  1.0000
  S   S99       1.0  0.33737  0.68073  0.54014  1.0000
  S   S100      1.0  0.36772  0.54557  0.56886  1.0000
  S   S101      1.0  0.35355  0.62194  0.57812  1.0000
  Fe  Fe53      1.0  0.35451  0.87866  0.55499  1.0000
  S   S102      1.0  0.36009  0.91888  0.57376  1.0000
  S   S103      1.0  0.35703  0.82730  0.56573  1.0000
  Fe  Fe54      1.0  0.34795  0.92814  0.52749  1.0000
  C   C409      1.0  0.47468  0.97725  0.60721  1.0000
  S   S104      1.0  0.33918  0.93362  0.50040  1.0000
  Fe  Fe55      1.0  0.39328  0.94249  0.55575  1.0000
  S   S105      1.0  0.43815  0.97254  0.56190  1.0000
  Fe  Fe56      1.0  0.31939  0.94415  0.56097  1.0000
  C   C410      1.0  0.07999  0.84161  0.32350  1.0000
  S   S106      1.0  0.39072  0.90124  0.53782  1.0000
  S   S107      1.0  0.31123  0.90250  0.54337  1.0000
  H   H711      1.0  0.06721  0.96652  0.35020  1.0000
  H   H712      1.0  0.27045  0.90719  0.50915  1.0000
  C   C411      1.0  0.38115  0.93905  0.62541  1.0000
  H   H713      1.0  0.26791  0.84044  0.51922  1.0000
  H   H714      1.0  0.30486  0.89439  0.59607  1.0000
  H   H715      1.0  0.30037  0.73237  0.58311  1.0000
  H   H716      1.0  0.25806  0.80170  0.50994  1.0000
  H   H717      1.0  0.25959  0.70399  0.39222  1.0000
  C   C412      1.0  0.30071  0.50882  0.35074  1.0000
  H   H718      1.0  0.45877  0.64247  0.55158  1.0000
  H   H719      1.0  0.36210  0.99984  0.50825  1.0000
  H   H720      1.0  0.32224  0.94761  0.46754  1.0000
  C   C413      1.0  0.47565  0.91934  0.56901  1.0000
  C   C414      1.0  0.47506  0.95256  0.56565  1.0000
  H   H721      1.0  0.12321  0.98603  0.33067  1.0000
  H   H722      1.0  0.45319  0.90532  0.56920  1.0000
  C   C415      1.0  0.35848  0.56571  0.62944  1.0000
  C   C416      1.0  0.27390  0.52818  0.60593  1.0000
  H   H723      1.0  0.30862  0.53070  0.39205  1.0000
  H   H724      1.0  0.44398  0.99568  0.50556  1.0000
  C   C417      1.0  0.30777  0.55197  0.40035  1.0000
  C   C418      1.0  0.25386  0.53244  0.61954  1.0000
  H   H725      1.0  0.25495  0.78096  0.58729  1.0000
  H   H726      1.0  0.24732  0.55679  0.62323  1.0000
  C   C419      1.0  0.35468  0.78671  0.55791  1.0000
  C   C420      1.0  0.34718  0.77985  0.54176  1.0000
  C   C421      1.0  0.34254  0.74732  0.53648  1.0000
  C   C422      1.0  0.34621  0.72111  0.54716  1.0000
  C   C423      1.0  0.35523  0.72793  0.56314  1.0000
  C   C424      1.0  0.35907  0.76050  0.56850  1.0000
  H   H727      1.0  0.34477  0.79964  0.53338  1.0000
  H   H728      1.0  0.33594  0.74240  0.52404  1.0000
  H   H729      1.0  0.35822  0.70815  0.57151  1.0000
  H   H730      1.0  0.36512  0.76540  0.58100  1.0000
  H   H731      1.0  0.06005  0.70251  0.33061  1.0000
  H   H732      1.0  0.42056  0.98392  0.52293  1.0000
  C   C425      1.0  0.41024  0.96545  0.39597  1.0000
  H   H733      1.0  0.49807  0.88652  0.51687  1.0000
  H   H734      1.0  0.33191  0.55452  0.40634  1.0000
  H   H735      1.0  0.22847  0.90981  0.50265  1.0000
  C   C426      1.0  0.47829  0.58054  0.57877  1.0000
  C   C427      1.0  0.47821  0.56028  0.56514  1.0000
  H   H736      1.0  0.42074  0.94091  0.39430  1.0000
  H   H737      1.0  0.45546  0.55396  0.55921  1.0000
  H   H738      1.0  0.23816  0.89349  0.52219  1.0000
  H   H739      1.0  0.48785  0.64129  0.52609  1.0000
  H   H740      1.0  0.29673  0.99536  0.37943  1.0000
  H   H741      1.0  0.26523  0.88329  0.60359  1.0000
  H   H742      1.0  0.39487  0.95662  0.42020  1.0000
  C   C428      1.0  0.27267  0.97177  0.35904  1.0000
  H   H743      1.0  0.42744  0.51841  0.63074  1.0000
  C   C429      1.0  0.28000  0.88629  0.59249  1.0000
  H   H744      1.0  0.27712  0.53510  0.33145  1.0000
  C   C430      1.0  0.26702  0.98837  0.59032  1.0000
  C   C431      1.0  0.24519  0.91208  0.51317  1.0000
  H   H745      1.0  0.32403  0.61734  0.61573  1.0000
  C   C432      1.0  0.43998  0.94715  0.46433  1.0000
  H   H746      1.0  0.39185  0.93376  0.47325  1.0000
  H   H747      1.0  0.28179  0.70273  0.56973  1.0000
  H   H748      1.0  0.47765  0.92850  0.50031  1.0000
  H   H749      1.0  0.48736  0.98379  0.45631  1.0000
  H   H750      1.0  0.25872  0.71952  0.58623  1.0000
  C   C433      1.0  0.27972  0.99823  0.36957  1.0000
  H   H751      1.0  0.14323  0.80021  0.56349  1.0000
  N   N22       1.0  0.24621  0.81237  0.56702  1.0000
  C   C434      1.0  0.27734  0.72515  0.57695  1.0000
  S   S108      1.0  0.22069  0.68664  0.31940  1.0000
  H   H752      1.0  0.45802  0.95517  0.41735  1.0000
  H   H753      1.0  0.49622  0.97440  0.61517  1.0000
  H   H754      1.0  0.15860  0.80066  0.54302  1.0000
  H   H755      1.0  0.45759  0.93896  0.52841  1.0000
  H   H756      1.0  0.25976  0.94643  0.53136  1.0000
  H   H757      1.0  0.29077  0.79220  0.57659  1.0000
  H   H758      1.0  0.38666  0.94747  0.63787  1.0000
  H   H759      1.0  0.18199  0.84537  0.57083  1.0000
  C   C435      1.0  0.43680  0.97482  0.51324  1.0000
  H   H760      1.0  0.42466  0.98337  0.38891  1.0000
  C   C436      1.0  0.27020  0.98450  0.61963  1.0000
  H   H761      1.0  0.29682  0.85864  0.57223  1.0000
  C   C437      1.0  0.27964  0.97375  0.60411  1.0000
  H   H762      1.0  0.35391  0.89868  0.61439  1.0000
  H   H763      1.0  0.28357  0.58622  0.35273  1.0000
  H   H764      1.0  0.41383  0.97434  0.59690  1.0000
  C   C438      1.0  0.36484  0.96587  0.61539  1.0000
  C   C439      1.0  0.35897  0.90904  0.62659  1.0000
  C   C440      1.0  0.36639  0.51242  0.64167  1.0000
  H   H765      1.0  0.17516  0.94759  0.34517  1.0000
  H   H766      1.0  0.23435  0.83580  0.58979  1.0000
  H   H767      1.0  0.27948  0.99358  0.53679  1.0000
  C   C441      1.0  0.26862  0.81369  0.52086  1.0000
  H   H768      1.0  0.23491  0.86245  0.57294  1.0000
  H   H769      1.0  0.24672  0.55179  0.48256  1.0000
  C   C442      1.0  0.24316  0.94594  0.52082  1.0000
  H   H770      1.0  0.23252  0.97045  0.49910  1.0000
  C   C443      1.0  0.34873  0.62352  0.62042  1.0000
  H   H771      1.0  0.07174  0.99999  0.33650  1.0000
  S   S109      1.0  0.35320  0.97073  0.54420  1.0000
  H   H772      1.0  0.46398  0.93512  0.46366  1.0000
  C   C444      1.0  0.16289  0.58969  0.36919  1.0000
  S   S110      1.0  0.16054  0.89527  0.32036  1.0000
  H   H773      1.0  0.21411  0.62071  0.35793  1.0000
  H   H774      1.0  0.19801  0.84499  0.55068  1.0000
  H   H775      1.0  0.34689  0.63165  0.63319  1.0000
  H   H776      1.0  0.42285  0.95668  0.50591  1.0000
  C   C445      1.0  0.26471  0.78525  0.57494  1.0000
  C   C446      1.0  0.41535  0.99402  0.60625  1.0000
  H   H777      1.0  0.29011  0.67311  0.37123  1.0000
  H   H778      1.0  0.45691  0.99775  0.41397  1.0000
  H   H779      1.0  0.48644  0.69070  0.53765  1.0000
  C   C447      1.0  0.21092  0.80218  0.56533  1.0000
  C   C448      1.0  0.16704  0.94684  0.35789  1.0000
  C   C449      1.0  0.42871  0.95695  0.44718  1.0000
  H   H780      1.0  0.21777  0.94897  0.52504  1.0000
  H   H781      1.0  0.27494  0.96585  0.50238  1.0000
  H   H782      1.0  0.41378  0.90057  0.46414  1.0000
  S   S111      1.0  0.16507  0.60835  0.32523  1.0000
  H   H783      1.0  0.19186  0.90116  0.36102  1.0000
  H   H784      1.0  0.31379  0.52228  0.64209  1.0000
  H   H785      1.0  0.40984  0.58254  0.64813  1.0000
  C   C450      1.0  0.46668  0.95927  0.52089  1.0000
  H   H786      1.0  0.38497  0.96507  0.39116  1.0000
  C   C451      1.0  0.37102  0.59418  0.61893  1.0000
  H   H787      1.0  0.20174  0.79229  0.57697  1.0000
  C   C452      1.0  0.35334  0.99939  0.49594  1.0000
  H   H788      1.0  0.18525  0.96022  0.36537  1.0000
  H   H789      1.0  0.26048  0.65706  0.34925  1.0000
  H   H790      1.0  0.30290  0.70456  0.39571  1.0000
  C   C453      1.0  0.44495  0.97778  0.42079  1.0000
  H   H791      1.0  0.30748  0.61817  0.32773  1.0000
  H   H792      1.0  0.27966  0.97254  0.63019  1.0000
  H   H793      1.0  0.31840  0.65368  0.33984  1.0000
  H   H794      1.0  0.33281  0.56094  0.62562  1.0000
  C   C454      1.0  0.28504  0.66149  0.38300  1.0000
  H   H795      1.0  0.49944  0.91075  0.53477  1.0000
  H   H796      1.0  0.28851  0.81900  0.55180  1.0000
  H   H797      1.0  0.28281  0.75387  0.55563  1.0000
  N   N23       1.0  0.38268  0.99802  0.61444  1.0000
  C   C455      1.0  0.48343  0.98251  0.44310  1.0000
  H   H798      1.0  0.30473  0.61816  0.36253  1.0000
  C   C456      1.0  0.24197  0.51471  0.34777  1.0000
  H   H799      1.0  0.37192  0.58666  0.60609  1.0000
  H   H800      1.0  0.37111  0.89015  0.63388  1.0000
  H   H801      1.0  0.49352  0.95861  0.43930  1.0000
  H   H802      1.0  0.36139  0.95531  0.60315  1.0000
  H   H803      1.0  0.35675  0.57461  0.64213  1.0000
  H   H804      1.0  0.12257  0.95529  0.37146  1.0000
  C   C457      1.0  0.46215  0.66649  0.55758  1.0000
  H   H805      1.0  0.20646  0.54064  0.48966  1.0000
  H   H806      1.0  0.23482  0.65546  0.37668  1.0000
  C   C458      1.0  0.26994  0.63372  0.34451  1.0000
  C   C459      1.0  0.41618  0.92276  0.47181  1.0000
  C   C460      1.0  0.45986  0.56935  0.64607  1.0000
  C   C461      1.0  0.28012  0.61068  0.35833  1.0000
  C   C462      1.0  0.49175  0.68543  0.55053  1.0000
  C   C463      1.0  0.00872  0.70605  0.32450  1.0000
  H   H807      1.0  0.40243  0.96331  0.44792  1.0000
  C   C464      1.0  0.40988  0.97501  0.41383  1.0000
  C   C465      1.0  0.50430  0.97057  0.56571  1.0000
  C   C466      1.0  0.16737  0.91140  0.36326  1.0000
  H   H808      1.0  0.49534  0.96794  0.49973  1.0000
  H   H809      1.0  0.13823  0.83569  0.55114  1.0000
  C   C467      1.0  0.15490  0.81553  0.55411  1.0000
  H   H810      1.0  0.25033  0.62207  0.33715  1.0000
  H   H811      1.0  0.32494  0.51327  0.34612  1.0000
  C   C468      1.0  0.13757  0.00289  0.33856  1.0000
  C   C469      1.0  0.24754  0.84138  0.57838  1.0000
  C   C470      1.0  0.34165  0.97024  0.48915  1.0000
  H   H812      1.0  0.20787  0.78181  0.55660  1.0000
  C   C471      1.0  0.24934  0.80350  0.53575  1.0000
  H   H813      1.0  0.33561  0.91529  0.63250  1.0000
  H   H814      1.0  0.29466  0.83672  0.59097  1.0000
  C   C472      1.0  0.28193  0.85422  0.58311  1.0000
  H   H815      1.0  0.28460  0.94881  0.36087  1.0000
  C   C473      1.0  0.43064  0.68530  0.55527  1.0000
  H   H816      1.0  0.29428  0.80612  0.52194  1.0000
  H   H817      1.0  0.44215  0.96838  0.47258  1.0000
  H   H818      1.0  0.27711  0.67855  0.40766  1.0000
  C   C474      1.0  0.33718  0.53481  0.49643  1.0000
  N   N24       1.0  0.44767  0.98374  0.43879  1.0000
  H   H819      1.0  0.10325  0.82973  0.32026  1.0000
  C   C475      1.0  0.18732  0.82951  0.56025  1.0000
  C   C476      1.0  0.25181  0.97266  0.50846  1.0000
  H   H820      1.0  0.15682  0.98429  0.38739  1.0000
  H   H821      1.0  0.32796  0.55567  0.50293  1.0000
  H   H822      1.0  0.22351  0.80914  0.53326  1.0000
  H   H823      1.0  0.49214  0.70964  0.55664  1.0000
  C   C477      1.0  0.04314  0.69434  0.32086  1.0000
  C   C478      1.0  0.26160  0.82181  0.55114  1.0000
  H   H824      1.0  0.20060  0.56648  0.38237  1.0000
  H   H825      1.0  0.41008  0.67163  0.56078  1.0000
  H   H826      1.0  0.43231  0.70958  0.56122  1.0000
  H   H827      1.0  0.42517  0.68838  0.54224  1.0000
  N   N25       1.0  0.25651  0.60828  0.37219  1.0000
  H   H828      1.0  0.46527  0.66252  0.57070  1.0000
  C   C479      1.0  0.26630  0.58038  0.38285  1.0000
  C   C480      1.0  0.22341  0.60002  0.36513  1.0000
  C   C481      1.0  0.25399  0.63959  0.38182  1.0000
  H   H829      1.0  0.25796  0.84813  0.54873  1.0000
  H   H830      1.0  0.33987  0.96936  0.62006  1.0000
  C   C482      1.0  0.19630  0.59102  0.37735  1.0000
  C   C483      1.0  0.30013  0.58295  0.39106  1.0000
  H   H831      1.0  0.48058  0.99581  0.59797  1.0000
  H   H832      1.0  0.44058  0.96827  0.62616  1.0000
  H   H833      1.0  0.39577  0.60237  0.62263  1.0000
  H   H834      1.0  0.42367  0.55513  0.62014  1.0000
  H   H835      1.0  0.30825  0.54319  0.47509  1.0000
  C   C484      1.0  0.33113  0.97007  0.47297  1.0000
  H   H836      1.0  0.24888  0.57734  0.39296  1.0000
  H   H837      1.0  0.26530  0.55716  0.37580  1.0000
  H   H838      1.0  0.22529  0.57938  0.35648  1.0000
  C   C485      1.0  0.28077  0.68877  0.39543  1.0000
  H   H839      1.0  0.14915  0.89664  0.35639  1.0000
  H   H840      1.0  0.24563  0.63426  0.39430  1.0000
  H   H841      1.0  0.28920  0.54728  0.40979  1.0000
  H   H842      1.0  0.30694  0.64776  0.38638  1.0000
  H   H843      1.0  0.29602  0.95362  0.60280  1.0000
  H   H844      1.0  0.16204  0.90971  0.37636  1.0000
  H   H845      1.0  0.19541  0.60899  0.38740  1.0000
  H   H846      1.0  0.15653  0.61384  0.36427  1.0000
  H   H847      1.0  0.31985  0.58662  0.38216  1.0000
  H   H848      1.0  0.30044  0.60313  0.40002  1.0000
  H   H849      1.0  0.22674  0.50944  0.63886  1.0000
  H   H850      1.0  0.00996  0.73294  0.32556  1.0000
  H   H851      1.0  0.40217  0.99871  0.63888  1.0000
  H   H852      1.0  0.11699  0.94706  0.35068  1.0000
  C   C486      1.0  0.42378  0.55991  0.64639  1.0000
  C   C487      1.0  0.33123  0.99887  0.46382  1.0000
  N   N26       1.0  0.37781  0.53481  0.62848  1.0000
  H   H853      1.0  0.42497  0.91545  0.48391  1.0000
  H   H854      1.0  0.30499  0.50846  0.55638  1.0000
  H   H855      1.0  0.35879  0.64398  0.61325  1.0000
  H   H856      1.0  0.16265  0.57140  0.35922  1.0000
  H   H857      1.0  0.14407  0.58252  0.37810  1.0000
  C   C488      1.0  0.26555  0.75215  0.56587  1.0000
  C   C489      1.0  0.13246  0.96126  0.35935  1.0000
  C   C490      1.0  0.25017  0.97465  0.34627  1.0000
  H   H858      1.0  0.40384  0.93111  0.61942  1.0000
  H   H859      1.0  0.25128  0.77683  0.53692  1.0000
  H   H860      1.0  0.24152  0.74418  0.56117  1.0000
  C   C491      1.0  0.32603  0.52765  0.48065  1.0000
  H   H861      1.0  0.46497  0.58602  0.63587  1.0000
  S   S112      1.0  0.27693  0.97462  0.57044  1.0000
  C   C492      1.0  0.41375  0.54152  0.63067  1.0000
  H   H862      1.0  0.34097  0.99779  0.64249  1.0000
  H   H863      1.0  0.26707  0.52263  0.56452  1.0000
  H   H864      1.0  0.07156  0.83177  0.33522  1.0000
  H   H865      1.0  0.01876  0.92265  0.33122  1.0000
  H   H866      1.0  0.38518  0.53458  0.60269  1.0000
  C   C493      1.0  0.35903  0.51410  0.50403  1.0000
  N   N27       1.0  0.12988  0.99719  0.35610  1.0000
  H   H867      1.0  0.47836  0.97781  0.52889  1.0000
  H   H868      1.0  0.16329  0.99673  0.33603  1.0000
  H   H869      1.0  0.32215  0.99854  0.45155  1.0000
  H   H870      1.0  0.34442  0.98876  0.58461  1.0000
  C   C494      1.0  0.22718  0.53287  0.48204  1.0000
  H   H871      1.0  0.46968  0.95355  0.60109  1.0000
  H   H872      1.0  0.48939  0.58257  0.53054  1.0000
  H   H873      1.0  0.50394  0.99636  0.56327  1.0000
  C   C495      1.0  0.06827  0.99341  0.34933  1.0000
  H   H874      1.0  0.02963  0.99932  0.36707  1.0000
  H   H875      1.0  0.01592  0.99529  0.34646  1.0000
  H   H876      1.0  0.27606  0.51875  0.50461  1.0000
  H   H877      1.0  0.23606  0.51660  0.51234  1.0000
  C   C496      1.0  0.24206  0.50556  0.62846  1.0000
  H   H878      1.0  0.08980  0.00098  0.37278  1.0000
  C   C497      1.0  0.49078  0.94708  0.50783  1.0000
  C   C498      1.0  0.44531  0.98751  0.61720  1.0000
  H   H879      1.0  0.22515  0.98661  0.54423  1.0000
  H   H880      1.0  0.30512  0.99977  0.52043  1.0000
  H   H881      1.0  0.23736  0.75438  0.32435  1.0000
  H   H882      1.0  0.50351  0.59182  0.51057  1.0000
  H   H883      1.0  0.16670  0.99986  0.53997  1.0000
  C   C499      1.0  0.29834  0.64103  0.33322  1.0000
  H   H884      1.0  0.08442  0.86816  0.32500  1.0000
  C   C500      1.0  0.37267  0.51967  0.61199  1.0000
  H   H885      1.0  0.28999  0.65712  0.32338  1.0000
  H   H886      1.0  0.34652  0.51996  0.60848  1.0000
  H   H887      1.0  0.46483  0.51355  0.45559  1.0000
  H   H888      1.0  0.47513  0.54738  0.64478  1.0000
  H   H889      1.0  0.05806  0.56699  0.32118  1.0000
  H   H890      1.0  0.04365  0.66731  0.32020  1.0000
  H   H891      1.0  0.21861  0.53056  0.46934  1.0000
  H   H892      1.0  0.26690  0.52900  0.53521  1.0000
  Fe  Fe57      1.0  0.17269  0.58267  0.93733  1.0000
  S   S113      1.0  0.16272  0.54272  0.91936  1.0000
  S   S114      1.0  0.19033  0.57396  0.96312  1.0000
  Fe  Fe58      1.0  0.15462  0.63711  0.91333  1.0000
  S   S115      1.0  0.14358  0.60000  0.89366  1.0000
  S   S116      1.0  0.14197  0.69003  0.90698  1.0000
  Fe  Fe59      1.0  0.11819  0.57160  0.91310  1.0000
  S   S117      1.0  0.07000  0.54454  0.90999  1.0000
  Fe  Fe60      1.0  0.18907  0.57420  0.90140  1.0000
  S   S118      1.0  0.23087  0.55908  0.88452  1.0000
  S   S119      1.0  0.12634  0.60963  0.93230  1.0000
  S   S120      1.0  0.20184  0.61325  0.91989  1.0000
  Fe  Fe61      1.0  0.17764  0.88178  0.91940  1.0000
  S   S121      1.0  0.14137  0.89813  0.90098  1.0000
  S   S122      1.0  0.20269  0.83222  0.92011  1.0000
  Fe  Fe62      1.0  0.17578  0.94811  0.93761  1.0000
  S   S123      1.0  0.13945  0.96878  0.92020  1.0000
  H   H893      1.0  0.03814  0.76133  0.93895  1.0000
  Fe  Fe63      1.0  0.11437  0.91986  0.92197  1.0000
  S   S124      1.0  0.06221  0.90782  0.92908  1.0000
  Fe  Fe64      1.0  0.17007  0.94569  0.90062  1.0000
  S   S125      1.0  0.18158  0.97000  0.87628  1.0000
  S   S126      1.0  0.14918  0.90055  0.94054  1.0000
  S   S127      1.0  0.20781  0.92803  0.91790  1.0000
  H   H894      1.0  0.13523  0.96556  0.97154  1.0000
  H   H895      1.0  0.17331  0.50664  0.95407  1.0000
  C   C501      1.0  0.31964  0.93015  0.84124  1.0000
  H   H896      1.0  0.02371  0.97812  0.93951  1.0000
  C   C502      1.0  0.21808  0.98728  0.86815  1.0000
  C   C503      1.0  0.01475  0.71202  0.90019  1.0000
  H   H897      1.0  0.15925  0.97045  0.73127  1.0000
  H   H898      1.0  0.06548  0.70050  0.95515  1.0000
  H   H899      1.0  0.05236  0.81647  0.88761  1.0000
  H   H900      1.0  0.04926  0.94901  0.90107  1.0000
  S   S128      1.0  0.19974  0.97801  0.95788  1.0000
  H   H901      1.0  0.30313  0.57797  0.93452  1.0000
  H   H902      1.0  0.11650  0.97660  0.76144  1.0000
  C   C504      1.0  0.03059  0.97559  0.95239  1.0000
  C   C505      1.0  0.24068  0.52391  0.87281  1.0000
  H   H903      1.0  0.07675  0.67947  0.93689  1.0000
  N   N28       1.0  0.24047  0.52033  0.80695  1.0000
  H   H904      1.0  0.28722  0.88732  0.93077  1.0000
  H   H905      1.0  0.19548  0.99730  0.84525  1.0000
  H   H906      1.0  0.27035  0.53461  0.94680  1.0000
  H   H907      1.0  0.12795  0.93965  0.75122  1.0000
  C   C506      1.0  0.08120  0.73195  0.93550  1.0000
  H   H908      1.0  0.34591  0.93643  0.84017  1.0000
  H   H909      1.0  0.19863  0.52393  0.82273  1.0000
  C   C507      1.0  0.16109  0.72881  0.91007  1.0000
  C   C508      1.0  0.18712  0.73379  0.92077  1.0000
  C   C509      1.0  0.19991  0.76547  0.92349  1.0000
  C   C510      1.0  0.18645  0.79265  0.91583  1.0000
  C   C511      1.0  0.16100  0.78757  0.90481  1.0000
  C   C512      1.0  0.14857  0.75585  0.90192  1.0000
  H   H910      1.0  0.19720  0.71329  0.92708  1.0000
  H   H911      1.0  0.21994  0.76899  0.93185  1.0000
  H   H912      1.0  0.15111  0.80806  0.89846  1.0000
  H   H913      1.0  0.12892  0.75219  0.89335  1.0000
  C   C513      1.0  0.03369  0.59971  0.91513  1.0000
  C   C514      1.0  0.03346  0.56660  0.91116  1.0000
  C   C515      1.0  0.11404  0.79874  0.93969  1.0000
  H   H914      1.0  0.05657  0.61229  0.91735  1.0000
  C   C516      1.0  0.10221  0.52379  0.98243  1.0000
  H   H915      1.0  0.08219  0.84858  0.88528  1.0000
  C   C517      1.0  0.18726  0.53717  0.97419  1.0000
  C   C518      1.0  0.16082  0.79802  0.95968  1.0000
  H   H916      1.0  0.10700  0.73111  0.93945  1.0000
  H   H917      1.0  0.30555  0.95282  0.83975  1.0000
  N   N29       1.0  0.26685  0.88704  0.87425  1.0000
  C   C519      1.0  0.23032  0.88851  0.87597  1.0000
  C   C520      1.0  0.28259  0.90136  0.88926  1.0000
  C   C521      1.0  0.27614  0.90849  0.86020  1.0000
  C   C522      1.0  0.27878  0.85293  0.87101  1.0000
  C   C523      1.0  0.25902  0.82443  0.87867  1.0000
  C   C524      1.0  0.21077  0.88035  0.86032  1.0000
  C   C525      1.0  0.31302  0.91518  0.85774  1.0000
  C   C526      1.0  0.27766  0.88236  0.90510  1.0000
  C   C527      1.0  0.29196  0.90113  0.91954  1.0000
  C   C528      1.0  0.27717  0.79235  0.87725  1.0000
  C   C529      1.0  0.17487  0.87367  0.86374  1.0000
  C   C530      1.0  0.06462  0.99049  0.95454  1.0000
  H   H918      1.0  0.22301  0.91336  0.87988  1.0000
  H   H919      1.0  0.22142  0.87253  0.88578  1.0000
  H   H920      1.0  0.30942  0.90299  0.88790  1.0000
  H   H921      1.0  0.27412  0.92675  0.89119  1.0000
  H   H922      1.0  0.26424  0.93259  0.86129  1.0000
  H   H923      1.0  0.26689  0.89773  0.84867  1.0000
  H   H924      1.0  0.27914  0.84758  0.85781  1.0000
  H   H925      1.0  0.30462  0.85090  0.87493  1.0000
  H   H926      1.0  0.23527  0.82104  0.87244  1.0000
  H   H927      1.0  0.25368  0.82854  0.89158  1.0000
  H   H928      1.0  0.21195  0.90134  0.85196  1.0000
  H   H929      1.0  0.22080  0.85892  0.85395  1.0000
  H   H930      1.0  0.32717  0.89248  0.85869  1.0000
  H   H931      1.0  0.32210  0.93297  0.86693  1.0000
  H   H932      1.0  0.25163  0.87771  0.90755  1.0000
  H   H933      1.0  0.29051  0.85882  0.90446  1.0000
  H   H934      1.0  0.11586  0.82231  0.96341  1.0000
  H   H935      1.0  0.08926  0.57399  0.97733  1.0000
  H   H936      1.0  0.28792  0.52820  0.81773  1.0000
  H   H937      1.0  0.30051  0.79378  0.88404  1.0000
  H   H938      1.0  0.26207  0.77245  0.88246  1.0000
  H   H939      1.0  0.28208  0.78634  0.86440  1.0000
  H   H940      1.0  0.16324  0.89625  0.86816  1.0000
  H   H941      1.0  0.16232  0.86594  0.85243  1.0000
  H   H942      1.0  0.17189  0.85406  0.87278  1.0000
  H   H943      1.0  0.23645  0.52259  0.83303  1.0000
  C   C531      1.0  0.17863  0.50750  0.96685  1.0000
  H   H944      1.0  0.06579  0.76174  0.95533  1.0000
  H   H945      1.0  0.34184  0.53153  0.80480  1.0000
  H   H946      1.0  0.09007  0.77764  0.91208  1.0000
  H   H947      1.0  0.12783  0.77923  0.93355  1.0000
  H   H948      1.0  0.20404  0.98299  0.69591  1.0000
  C   C532      1.0  0.15349  0.98282  0.74284  1.0000
  H   H949      1.0  0.20770  0.56806  0.84957  1.0000
  H   H950      1.0  0.27255  0.53217  0.90957  1.0000
  H   H951      1.0  0.03763  0.82870  0.93553  1.0000
  H   H952      1.0  0.23589  0.54440  0.93411  1.0000
  C   C533      1.0  0.04590  0.81999  0.96040  1.0000
  C   C534      1.0  0.17975  0.99255  0.97548  1.0000
  C   C535      1.0  0.33004  0.53979  0.79351  1.0000
  H   H953      1.0  0.11910  0.55703  0.96398  1.0000
  H   H954      1.0  0.07482  0.84606  0.94265  1.0000
  C   C536      1.0  0.22079  0.53079  0.79246  1.0000
  C   C537      1.0  0.29565  0.52549  0.79185  1.0000
  C   C538      1.0  0.26276  0.54293  0.93469  1.0000
  H   H955      1.0  0.05328  0.50584  0.98221  1.0000
  N   N30       1.0  0.07816  0.79522  0.93603  1.0000
  H   H956      1.0  0.27367  0.56175  0.80633  1.0000
  H   H957      1.0  0.17495  0.57234  0.83513  1.0000
  C   C539      1.0  0.05950  0.82352  0.94304  1.0000
  H   H958      1.0  0.03847  0.70022  0.93778  1.0000
  C   C540      1.0  0.27650  0.52023  0.92144  1.0000
  H   H959      1.0  0.26535  0.59355  0.94223  1.0000
  C   C541      1.0  0.06429  0.70127  0.94177  1.0000
  H   H960      1.0  0.12404  0.82173  0.93466  1.0000
  H   H961      1.0  0.04850  0.78780  0.91462  1.0000
  H   H962      1.0  0.16736  0.79973  0.97267  1.0000
  H   H963      1.0  0.20646  0.50753  0.75215  1.0000
  H   H964      1.0  0.22848  0.55569  0.78873  1.0000
  H   H965      1.0  0.03251  0.94939  0.95525  1.0000
  H   H966      1.0  0.28057  0.92537  0.92079  1.0000
  H   H967      1.0  0.28641  0.54455  0.86502  1.0000
  C   C542      1.0  0.27040  0.52348  0.86439  1.0000
  C   C543      1.0  0.22152  0.50826  0.77726  1.0000
  C   C544      1.0  0.27444  0.53476  0.80652  1.0000
  H   H968      1.0  0.31866  0.90444  0.91817  1.0000
  H   H969      1.0  0.32945  0.56678  0.79354  1.0000
  H   H970      1.0  0.10495  0.83814  0.91206  1.0000
  H   H971      1.0  0.17025  0.77475  0.95479  1.0000
  H   H972      1.0  0.20984  0.98183  0.72612  1.0000
  C   C545      1.0  0.12388  0.79927  0.95770  1.0000
  H   H973      1.0  0.02520  0.80232  0.96037  1.0000
  H   H974      1.0  0.27024  0.58728  0.92081  1.0000
  C   C546      1.0  0.06454  0.76320  0.94200  1.0000
  H   H975      1.0  0.10230  0.96828  0.74107  1.0000
  H   H976      1.0  0.24492  0.97468  0.70252  1.0000
  H   H977      1.0  0.02783  0.69002  0.90421  1.0000
  H   H978      1.0  0.08041  0.73037  0.92215  1.0000
  H   H979      1.0  0.17275  0.81864  0.95332  1.0000
  C   C547      1.0  0.09637  0.55162  0.97070  1.0000
  C   C548      1.0  0.08031  0.82840  0.90935  1.0000
  H   H980      1.0  0.01454  0.71203  0.88679  1.0000
  H   H981      1.0  0.02830  0.73380  0.90469  1.0000
  H   H982      1.0  0.19459  0.53307  0.79563  1.0000
  H   H983      1.0  0.11342  0.77828  0.96427  1.0000
  C   C549      1.0  0.12313  0.96594  0.74955  1.0000
  H   H984      1.0  0.24797  0.57967  0.82788  1.0000
  H   H985      1.0  0.09520  0.80698  0.88636  1.0000
  C   C550      1.0  0.22573  0.99343  0.70221  1.0000
  C   C551      1.0  0.03327  0.85247  0.96677  1.0000
  C   C552      1.0  0.02637  0.91791  0.91855  1.0000
  C   C553      1.0  0.07378  0.79548  0.91790  1.0000
  H   H986      1.0  0.41975  0.54420  0.65704  1.0000
  H   H987      1.0  0.31299  0.91277  0.83140  1.0000
  C   C554      1.0  0.07731  0.82470  0.89103  1.0000
  H   H988      1.0  0.20124  0.60650  0.83996  1.0000
  C   C555      1.0  0.20038  0.57972  0.83810  1.0000
  H   H989      1.0  0.06431  0.81125  0.96904  1.0000
  H   H990      1.0  0.03397  0.50585  0.95477  1.0000
  H   H991      1.0  0.02342  0.84934  0.97913  1.0000
  C   C556      1.0  0.22345  0.57016  0.82447  1.0000
  C   C557      1.0  0.02649  0.93887  0.90536  1.0000
  C   C558      1.0  0.14817  0.98243  0.97942  1.0000
  H   H992      1.0  0.30324  0.52043  0.92347  1.0000
  H   H993      1.0  0.28525  0.53559  0.78062  1.0000
  H   H994      1.0  0.22028  0.54677  0.75936  1.0000
  H   H995      1.0  0.29816  0.00325  0.87652  1.0000
  H   H996      1.0  0.06233  0.84679  0.91307  1.0000
  H   H997      1.0  0.17346  0.97913  0.75161  1.0000
  H   H998      1.0  0.21536  0.58233  0.81328  1.0000
  C   C559      1.0  0.22432  0.53269  0.82216  1.0000
  C   C560      1.0  0.24718  0.98952  0.87694  1.0000
  C   C561      1.0  0.27629  0.57751  0.93290  1.0000
  H   H999      1.0  0.34502  0.53157  0.78314  1.0000
  H   H1000     1.0  0.01439  0.98963  0.97624  1.0000
  H   H1001     1.0  0.24779  0.98122  0.88929  1.0000
  H   H1002     1.0  0.05326  0.87094  0.96729  1.0000
  H   H1003     1.0  0.08204  0.97741  0.94667  1.0000
  C   C562      1.0  0.00565  0.99252  0.96358  1.0000
  H   H1004     1.0  0.07721  0.54496  0.96175  1.0000
  H   H1005     1.0  0.07300  0.98825  0.96724  1.0000
  H   H1006     1.0  0.18059  0.53112  0.76517  1.0000
  C   C563      1.0  0.21779  0.99885  0.85220  1.0000
  H   H1007     1.0  0.46666  0.58205  0.65750  1.0000
  C   C564      1.0  0.27569  0.00223  0.86969  1.0000
  H   H1008     1.0  0.01356  0.86155  0.95888  1.0000
  H   H1009     1.0  0.00474  0.64229  0.91911  1.0000
  C   C565      1.0  0.20621  0.52457  0.76264  1.0000
  C   C566      1.0  0.21716  0.00380  0.71942  1.0000
  H   H1010     1.0  0.36920  0.52454  0.65366  1.0000
  Fe  Fe65      1.0  0.83658  0.38118  0.05260  1.0000
  S   S129      1.0  0.87080  0.40384  0.07075  1.0000
  S   S130      1.0  0.80955  0.33324  0.05781  1.0000
  Fe  Fe66      1.0  0.84713  0.43793  0.02853  1.0000
  S   S131      1.0  0.88236  0.46402  0.04519  1.0000
  S   S132      1.0  0.83911  0.44858  0.00170  1.0000
  Fe  Fe67      1.0  0.90341  0.41469  0.04971  1.0000
  S   S133      1.0  0.95528  0.39687  0.04733  1.0000
  Fe  Fe68      1.0  0.84636  0.45137  0.06506  1.0000
  H   H1011     1.0  0.99211  0.13686  0.06434  1.0000
  S   S134      1.0  0.87039  0.38915  0.03194  1.0000
  S   S135      1.0  0.80979  0.42811  0.04800  1.0000
  Fe  Fe69      1.0  0.85321  0.13813  0.05953  1.0000
  S   S136      1.0  0.86692  0.10401  0.07965  1.0000
  S   S137      1.0  0.87142  0.19111  0.05799  1.0000
  Fe  Fe70      1.0  0.82685  0.08132  0.03819  1.0000
  S   S138      1.0  0.83830  0.04361  0.05676  1.0000
  S   S139      1.0  0.80227  0.07141  0.01384  1.0000
  Fe  Fe71      1.0  0.81829  0.07878  0.07496  1.0000
  S   S140      1.0  0.78168  0.06619  0.09501  1.0000
  Fe  Fe72      1.0  0.88562  0.07131  0.05995  1.0000
  S   S141      1.0  0.93310  0.04471  0.05704  1.0000
  S   S142      1.0  0.80357  0.11541  0.05610  1.0000
  S   S143      1.0  0.87518  0.10648  0.04024  1.0000
  C   C567      1.0  0.76409  0.02937  0.10254  1.0000
  H   H1012     1.0  0.86886  0.16612  0.99607  1.0000
  H   H1013     1.0  0.81707  0.15182  0.99360  1.0000
  H   H1014     1.0  0.79826  0.33857  0.09421  1.0000
  H   H1015     1.0  0.69490  0.42866  0.14832  1.0000
  H   H1016     1.0  0.98778  0.44385  0.02019  1.0000
  H   H1017     1.0  0.87093  0.43275  0.10563  1.0000
  C   C568      1.0  0.99143  0.44881  0.05979  1.0000
  C   C569      1.0  0.96982  0.06044  0.06525  1.0000
  H   H1018     1.0  0.83518  0.26824  0.99321  1.0000
  C   C570      1.0  0.97025  0.07892  0.07950  1.0000
  C   C571      1.0  0.77070  0.48917  0.09260  1.0000
  H   H1019     1.0  0.94766  0.08423  0.08556  1.0000
  C   C572      1.0  0.82231  0.38363  0.29166  1.0000
  H   H1020     1.0  0.93949  0.07512  0.99202  1.0000
  H   H1021     1.0  0.85638  0.08314  0.12618  1.0000
  H   H1022     1.0  0.00071  0.36976  0.07655  1.0000
  C   C573      1.0  0.79963  0.17044  0.98969  1.0000
  C   C574      1.0  0.82734  0.29401  0.05844  1.0000
  C   C575      1.0  0.80781  0.26681  0.06236  1.0000
  C   C576      1.0  0.82083  0.23517  0.06255  1.0000
  C   C577      1.0  0.85362  0.23038  0.05881  1.0000
  C   C578      1.0  0.87314  0.25762  0.05501  1.0000
  C   C579      1.0  0.86014  0.28920  0.05480  1.0000
  H   H1023     1.0  0.78241  0.27024  0.06520  1.0000
  H   H1024     1.0  0.80549  0.21453  0.06554  1.0000
  H   H1025     1.0  0.89851  0.25427  0.05209  1.0000
  H   H1026     1.0  0.87546  0.30982  0.05174  1.0000
  C   C580      1.0  0.79772  0.33591  0.10745  1.0000
  H   H1027     1.0  0.74078  0.06687  0.06250  1.0000
  C   C581      1.0  0.81822  0.04357  0.99947  1.0000
  C   C582      1.0  0.80225  0.49769  0.09757  1.0000
  H   H1028     1.0  0.74243  0.38134  0.05560  1.0000
  H   H1029     1.0  0.96876  0.45885  0.06400  1.0000
  H   H1030     1.0  0.96299  0.34135  0.09524  1.0000
  H   H1031     1.0  0.79807  0.30924  0.00556  1.0000
  H   H1032     1.0  0.72064  0.38649  0.13099  1.0000
  C   C583      1.0  0.72755  0.41245  0.12943  1.0000
  H   H1033     1.0  0.76010  0.02158  0.14770  1.0000
  H   H1034     1.0  0.80392  0.00696  0.12921  1.0000
  C   C584      1.0  0.77224  0.04945  0.30337  1.0000
  H   H1035     1.0  0.92500  0.18114  0.08377  1.0000
  N   N31       1.0  0.77453  0.39463  0.11047  1.0000
  C   C585      1.0  0.75827  0.01324  0.04416  1.0000
  H   H1036     1.0  0.99699  0.11605  0.03344  1.0000
  H   H1037     1.0  0.73889  0.42070  0.06509  1.0000
  C   C586      1.0  0.80826  0.40589  0.10573  1.0000
  C   C587      1.0  0.75288  0.00819  0.17256  1.0000
  C   C588      1.0  0.98326  0.46501  0.01234  1.0000
  H   H1038     1.0  0.77842  0.35759  0.12893  1.0000
  H   H1039     1.0  0.96238  0.45871  0.00431  1.0000
  H   H1040     1.0  0.87244  0.22188  0.00433  1.0000
  C   C589      1.0  0.75130  0.39997  0.09661  1.0000
  H   H1041     1.0  0.92199  0.18581  0.00714  1.0000
  H   H1042     1.0  0.77684  0.05921  0.29116  1.0000
  H   H1043     1.0  0.82990  0.47811  0.31104  1.0000
  H   H1044     1.0  0.76792  0.44225  0.12141  1.0000
  H   H1045     1.0  0.99922  0.03849  0.04673  1.0000
  H   H1046     1.0  0.80713  0.43021  0.10003  1.0000
  H   H1047     1.0  0.81874  0.39010  0.09624  1.0000
  C   C590      1.0  0.77348  0.35948  0.11575  1.0000
  H   H1048     1.0  0.72962  0.05535  0.17545  1.0000
  C   C591      1.0  0.83390  0.48557  0.99112  1.0000
  H   H1049     1.0  0.91003  0.17229  0.02703  1.0000
  N   N32       1.0  0.78554  0.45339  0.31817  1.0000
  C   C592      1.0  0.83325  0.40870  0.11979  1.0000
  H   H1050     1.0  0.82282  0.34072  0.11195  1.0000
  H   H1051     1.0  0.64471  0.04831  0.29863  1.0000
  H   H1052     1.0  0.98294  0.19558  0.07804  1.0000
  C   C593      1.0  0.96807  0.18296  0.06867  1.0000
  H   H1053     1.0  0.70628  0.07889  0.05059  1.0000
  C   C594      1.0  0.73626  0.39409  0.06704  1.0000
  H   H1054     1.0  0.71059  0.38816  0.07011  1.0000
  C   C595      1.0  0.86815  0.41135  0.11364  1.0000
  H   H1055     1.0  0.86218  0.27288  0.01038  1.0000
  H   H1056     1.0  0.74846  0.34919  0.11412  1.0000
  H   H1057     1.0  0.97466  0.36958  0.11127  1.0000
  H   H1058     1.0  0.72638  0.39127  0.09971  1.0000
  H   H1059     1.0  0.92653  0.14933  0.06867  1.0000
  H   H1060     1.0  0.75871  0.00613  0.31562  1.0000
  C   C596      1.0  0.93191  0.04994  0.98865  1.0000
  C   C597      1.0  0.81759  0.41860  0.29751  1.0000
  H   H1061     1.0  0.76575  0.01087  0.18428  1.0000
  H   H1062     1.0  0.71518  0.06801  0.29043  1.0000
  H   H1063     1.0  0.65941  0.08829  0.29331  1.0000
  C   C598      1.0  0.72555  0.03172  0.04397  1.0000
  C   C599      1.0  0.77545  0.01905  0.15868  1.0000
  H   H1064     1.0  0.73259  0.05496  0.11891  1.0000
  H   H1065     1.0  0.82851  0.43102  0.12704  1.0000
  C   C600      1.0  0.76375  0.01268  0.30287  1.0000
  H   H1066     1.0  0.78370  0.04412  0.16196  1.0000
  H   H1067     1.0  0.77852  0.41144  0.13531  1.0000
  H   H1068     1.0  0.73538  0.41973  0.15531  1.0000
  H   H1069     1.0  0.87546  0.04398  0.12734  1.0000
  C   C601      1.0  0.75924  0.38307  0.08041  1.0000
  H   H1070     1.0  0.95621  0.20171  0.06116  1.0000
  H   H1071     1.0  0.91494  0.14315  0.01091  1.0000
  H   H1072     1.0  0.00132  0.22085  0.04814  1.0000
  H   H1073     1.0  0.79896  0.37301  0.28716  1.0000
  C   C602      1.0  0.85177  0.05646  0.12622  1.0000
  H   H1074     1.0  0.97213  0.15363  0.04741  1.0000
  H   H1075     1.0  0.82493  0.31285  0.02285  1.0000
  H   H1076     1.0  0.86066  0.03160  0.01337  1.0000
  H   H1077     1.0  0.77009  0.40803  0.30705  1.0000
  H   H1078     1.0  0.83147  0.38742  0.12790  1.0000
  C   C603      1.0  0.00009  0.08983  0.08612  1.0000
  H   H1079     1.0  0.84181  0.42822  0.30128  1.0000
  H   H1080     1.0  0.75589  0.35638  0.08149  1.0000
  H   H1081     1.0  0.92744  0.03614  0.99992  1.0000
  H   H1082     1.0  0.76713  0.47625  0.08130  1.0000
  C   C604      1.0  0.79282  0.41995  0.31160  1.0000
  H   H1083     1.0  0.71141  0.42329  0.12019  1.0000
  H   H1084     1.0  0.80905  0.43291  0.28707  1.0000
  C   C605      1.0  0.69489  0.05012  0.29011  1.0000
  H   H1085     1.0  0.70725  0.02138  0.18372  1.0000
  C   C606      1.0  0.74020  0.03131  0.11465  1.0000
  C   C607      1.0  0.99934  0.05309  0.05766  1.0000
  H   H1086     1.0  0.74684  0.45708  0.30038  1.0000
  C   C608      1.0  0.81100  0.20566  0.99413  1.0000
  C   C609      1.0  0.70430  0.01692  0.29751  1.0000
  H   H1087     1.0  0.80918  0.08247  0.31311  1.0000
  H   H1088     1.0  0.70726  0.01976  0.05182  1.0000
  H   H1089     1.0  0.74578  0.03681  0.27290  1.0000
  H   H1090     1.0  0.95418  0.38393  0.09345  1.0000
  C   C610      1.0  0.94131  0.16400  0.07739  1.0000
  H   H1091     1.0  0.78430  0.38877  0.07641  1.0000
  N   N33       1.0  0.82251  0.21166  0.01127  1.0000
  C   C611      1.0  0.80478  0.19070  0.02337  1.0000
  C   C612      1.0  0.85865  0.20614  0.01279  1.0000
  C   C613      1.0  0.81646  0.24683  0.01577  1.0000
  H   H1092     1.0  0.76494  0.29387  0.10602  1.0000
  H   H1093     1.0  0.71797  0.03797  0.24624  1.0000
  C   C614      1.0  0.76819  0.19841  0.02566  1.0000
  C   C615      1.0  0.83634  0.27285  0.00641  1.0000
  C   C616      1.0  0.87081  0.17140  0.00919  1.0000
  C   C617      1.0  0.90666  0.16811  0.01386  1.0000
  C   C618      1.0  0.72116  0.43046  0.14530  1.0000
  C   C619      1.0  0.75042  0.17150  0.03482  1.0000
  C   C620      1.0  0.82364  0.30705  0.00974  1.0000
  H   H1094     1.0  0.81650  0.19310  0.03544  1.0000
  H   H1095     1.0  0.80678  0.16446  0.02041  1.0000
  C   C621      1.0  0.74371  0.49726  0.10230  1.0000
  H   H1096     1.0  0.86706  0.21337  0.02512  1.0000
  H   H1097     1.0  0.82153  0.25102  0.02883  1.0000
  H   H1098     1.0  0.79037  0.25281  0.01399  1.0000
  H   H1099     1.0  0.75227  0.06304  0.30921  1.0000
  H   H1100     1.0  0.77604  0.16469  0.99554  1.0000
  C   C622      1.0  0.84715  0.02703  0.00233  1.0000
  C   C623      1.0  0.98835  0.15996  0.05777  1.0000
  H   H1101     1.0  0.76562  0.22121  0.03284  1.0000
  H   H1102     1.0  0.75582  0.20175  0.01389  1.0000
  H   H1103     1.0  0.74918  0.42643  0.09430  1.0000
  H   H1104     1.0  0.72781  0.45664  0.14421  1.0000
  H   H1105     1.0  0.85693  0.15276  0.01590  1.0000
  C   C624      1.0  0.74437  0.01018  0.27474  1.0000
  H   H1106     1.0  0.68751  0.04690  0.27731  1.0000
  H   H1107     1.0  0.78343  0.47702  0.29494  1.0000
  H   H1108     1.0  0.77590  0.02822  0.03723  1.0000
  H   H1109     1.0  0.84206  0.05441  0.15169  1.0000
  C   C625      1.0  0.72268  0.02942  0.17348  1.0000
  H   H1110     1.0  0.97657  0.48620  0.01999  1.0000
  H   H1111     1.0  0.76051  0.16957  0.04722  1.0000
  H   H1112     1.0  0.72420  0.17735  0.03578  1.0000
  H   H1113     1.0  0.75268  0.14773  0.02845  1.0000
  H   H1114     1.0  0.00032  0.10393  0.09720  1.0000
  H   H1115     1.0  0.82381  0.04223  0.30865  1.0000
  C   C626      1.0  0.82941  0.04764  0.14028  1.0000
  H   H1116     1.0  0.88514  0.41453  0.12399  1.0000
  H   H1117     1.0  0.98133  0.03496  0.98590  1.0000
  H   H1118     1.0  0.87484  0.38893  0.10692  1.0000
  H   H1119     1.0  0.80719  0.06258  0.13909  1.0000
  C   C627      1.0  0.73015  0.06658  0.05015  1.0000
  H   H1120     1.0  0.83182  0.36837  0.30158  1.0000
  H   H1121     1.0  0.74634  0.08041  0.04190  1.0000
  C   C628      1.0  0.97225  0.36630  0.09800  1.0000
  C   C629      1.0  0.72541  0.01215  0.24545  1.0000
  H   H1122     1.0  0.84014  0.38333  0.28162  1.0000
  H   H1123     1.0  0.84027  0.04946  0.11452  1.0000
  H   H1124     1.0  0.76770  0.01395  0.05678  1.0000
  C   C630      1.0  0.99124  0.41948  0.05112  1.0000
  H   H1125     1.0  0.70741  0.00506  0.13050  1.0000
  H   H1126     1.0  0.82878  0.02311  0.17454  1.0000
  C   C631      1.0  0.82010  0.01096  0.13989  1.0000
  C   C632      1.0  0.66617  0.06502  0.29906  1.0000
  S   S144      1.0  0.83737  0.48725  0.08610  1.0000
  C   C633      1.0  0.76368  0.41608  0.12433  1.0000
  H   H1127     1.0  0.71540  0.03316  0.03160  1.0000
  H   H1128     1.0  0.79002  0.22149  0.99120  1.0000
  H   H1129     1.0  0.75116  0.01098  0.24149  1.0000
  H   H1130     1.0  0.78959  0.29600  0.12422  1.0000
  H   H1131     1.0  0.80751  0.28439  0.10520  1.0000
  C   C634      1.0  0.78930  0.30041  0.11102  1.0000
  H   H1132     1.0  0.91282  0.49998  0.00890  1.0000
  H   H1133     1.0  0.70810  0.02701  0.16220  1.0000
  H   H1134     1.0  0.71949  0.48998  0.09845  1.0000
  H   H1135     1.0  0.70440  0.01980  0.31091  1.0000
  H   H1136     1.0  0.83879  0.32525  0.00326  1.0000
  H   H1137     1.0  0.99765  0.19456  0.03130  1.0000
  H   H1138     1.0  0.95207  0.14751  0.08644  1.0000
  H   H1139     1.0  0.67274  0.07014  0.31187  1.0000
  C   C635      1.0  0.80288  0.05615  0.31343  1.0000
  C   C636      1.0  0.76733  0.47195  0.30543  1.0000
  Fe  Fe73      1.0  0.70438  0.43916  0.40736  1.0000
  S   S145      1.0  0.71207  0.40077  0.42652  1.0000
  S   S146      1.0  0.74972  0.45700  0.39355  1.0000
  Fe  Fe74      1.0  0.63144  0.44136  0.41424  1.0000
  S   S147      1.0  0.63414  0.40390  0.43348  1.0000
  S   S148      1.0  0.58484  0.46681  0.40746  1.0000
  Fe  Fe75      1.0  0.67875  0.43127  0.44190  1.0000
  S   S149      1.0  0.68412  0.43830  0.46912  1.0000
  Fe  Fe76      1.0  0.66672  0.37619  0.41663  1.0000
  S   S150      1.0  0.64950  0.32335  0.41249  1.0000
  S   S151      1.0  0.67404  0.47084  0.42363  1.0000
  S   S152      1.0  0.66112  0.41253  0.39652  1.0000
  Fe  Fe77      1.0  0.67175  0.06322  0.39822  1.0000
  S   S153      1.0  0.71008  0.08432  0.41464  1.0000
  H   H1140     1.0  0.53074  0.48163  0.44619  1.0000
  Fe  Fe78      1.0  0.61692  0.09266  0.41874  1.0000
  S   S154      1.0  0.65248  0.11450  0.43657  1.0000
  S   S155      1.0  0.56596  0.10457  0.42719  1.0000
  Fe  Fe79      1.0  0.68059  0.13034  0.41486  1.0000
  S   S156      1.0  0.70756  0.17951  0.41530  1.0000
  Fe  Fe80      1.0  0.67839  0.06705  0.43497  1.0000
  S   S157      1.0  0.70426  0.04251  0.45585  1.0000
  S   S158      1.0  0.64398  0.11067  0.39681  1.0000
  S   S159      1.0  0.64092  0.04387  0.41876  1.0000
  H   H1141     1.0  0.57031  0.03700  0.52468  1.0000
  H   H1142     1.0  0.74338  0.15500  0.62760  1.0000
  S   S160      1.0  0.94385  0.09295  0.65087  1.0000
  H   H1143     1.0  0.54525  0.35108  0.44711  1.0000
  S   S161      1.0  0.78143  0.42859  0.63114  1.0000
  H   H1144     1.0  0.56417  0.31190  0.36540  1.0000
  C   C637      1.0  0.56441  0.29274  0.37467  1.0000
  C   C638      1.0  0.52952  0.49262  0.45853  1.0000
  H   H1145     1.0  0.72971  0.45993  0.52122  1.0000
  H   H1146     1.0  0.58780  0.48076  0.44536  1.0000
  H   H1147     1.0  0.96477  0.22658  0.63038  1.0000
  H   H1148     1.0  0.69358  0.47710  0.54157  1.0000
  H   H1149     1.0  0.58394  0.31006  0.42291  1.0000
  C   C639      1.0  0.73442  0.13662  0.63642  1.0000
  C   C640      1.0  0.52952  0.09021  0.41826  1.0000
  C   C641      1.0  0.52912  0.07087  0.40430  1.0000
  C   C642      1.0  0.87172  0.47520  0.33578  1.0000
  H   H1150     1.0  0.55177  0.06421  0.39863  1.0000
  C   C643      1.0  0.78485  0.10527  0.61665  1.0000
  S   S162      1.0  0.79168  0.01488  0.64528  1.0000
  H   H1151     1.0  0.55198  0.42611  0.37702  1.0000
  H   H1152     1.0  0.73897  0.44823  0.56689  1.0000
  C   C644      1.0  0.73199  0.07638  0.63885  1.0000
  H   H1153     1.0  0.75635  0.48994  0.46575  1.0000
  C   C645      1.0  0.97634  0.17690  0.63497  1.0000
  H   H1154     1.0  0.75591  0.40648  0.51628  1.0000
  C   C646      1.0  0.83138  0.46860  0.58126  1.0000
  C   C647      1.0  0.70697  0.15424  0.64572  1.0000
  C   C648      1.0  0.66628  0.28367  0.41395  1.0000
  C   C649      1.0  0.69922  0.27844  0.41721  1.0000
  C   C650      1.0  0.71134  0.24644  0.41766  1.0000
  C   C651      1.0  0.69075  0.21927  0.41497  1.0000
  C   C652      1.0  0.65770  0.22448  0.41199  1.0000
  C   C653      1.0  0.64562  0.25646  0.41146  1.0000
  H   H1155     1.0  0.71545  0.29904  0.41911  1.0000
  H   H1156     1.0  0.73695  0.24275  0.41992  1.0000
  H   H1157     1.0  0.64154  0.20389  0.40989  1.0000
  H   H1158     1.0  0.62012  0.26011  0.40897  1.0000
  C   C654      1.0  0.54670  0.45068  0.41335  1.0000
  C   C655      1.0  0.54427  0.42726  0.42542  1.0000
  H   H1159     1.0  0.74659  0.45917  0.45068  1.0000
  H   H1160     1.0  0.56587  0.41906  0.43151  1.0000
  C   C656      1.0  0.78823  0.48960  0.56201  1.0000
  C   C657      1.0  0.51093  0.32863  0.38848  1.0000
  H   H1161     1.0  0.53697  0.15973  0.44864  1.0000
  H   H1162     1.0  0.57751  0.41561  0.36018  1.0000
  H   H1163     1.0  0.93139  0.30701  0.63399  1.0000
  H   H1164     1.0  0.85917  0.15344  0.62339  1.0000
  H   H1165     1.0  0.59452  0.41746  0.38022  1.0000
  H   H1166     1.0  0.91801  0.19826  0.61682  1.0000
  H   H1167     1.0  0.54170  0.27797  0.37333  1.0000
  H   H1168     1.0  0.53019  0.23166  0.43940  1.0000
  H   H1169     1.0  0.76516  0.48063  0.51422  1.0000
  H   H1170     1.0  0.72689  0.01131  0.48465  1.0000
  H   H1171     1.0  0.79861  0.08243  0.59380  1.0000
  H   H1172     1.0  0.61645  0.28418  0.37197  1.0000
  H   H1173     1.0  0.71653  0.44723  0.32235  1.0000
  C   C658      1.0  0.53782  0.33159  0.41470  1.0000
  H   H1174     1.0  0.81047  0.49588  0.32786  1.0000
  C   C659      1.0  0.75656  0.48667  0.37828  1.0000
  C   C660      1.0  0.74745  0.03438  0.36780  1.0000
  H   H1175     1.0  0.79680  0.04018  0.35927  1.0000
  C   C661      1.0  0.78583  0.01863  0.61169  1.0000
  H   H1176     1.0  0.74742  0.05742  0.37419  1.0000
  C   C662      1.0  0.59303  0.27042  0.37109  1.0000
  H   H1177     1.0  0.55567  0.02643  0.43614  1.0000
  H   H1178     1.0  0.67549  0.45278  0.50271  1.0000
  Fe  Fe81      1.0  0.82176  0.41806  0.64983  1.0000
  H   H1179     1.0  0.54893  0.44636  0.48283  1.0000
  H   H1180     1.0  0.80424  0.15032  0.42635  1.0000
  C   C663      1.0  0.56863  0.33141  0.42560  1.0000
  H   H1181     1.0  0.68054  0.42944  0.56927  1.0000
  C   C664      1.0  0.77069  0.01087  0.59679  1.0000
  H   H1182     1.0  0.83056  0.10560  0.60365  1.0000
  H   H1183     1.0  0.72721  0.42150  0.35673  1.0000
  H   H1184     1.0  0.65232  0.44165  0.55381  1.0000
  H   H1185     1.0  0.54106  0.49980  0.49088  1.0000
  H   H1186     1.0  0.79022  0.16706  0.45380  1.0000
  C   C665      1.0  0.81695  0.24499  0.64910  1.0000
  C   C666      1.0  0.59727  0.43673  0.47350  1.0000
  H   H1187     1.0  0.75511  0.13307  0.64493  1.0000
  C   C667      1.0  0.72745  0.48794  0.60232  1.0000
  C   C668      1.0  0.69119  0.10497  0.62184  1.0000
  H   H1188     1.0  0.73725  0.22975  0.47517  1.0000
  H   H1189     1.0  0.78008  0.06288  0.42241  1.0000
  C   C669      1.0  0.67378  0.44955  0.56110  1.0000
  C   C670      1.0  0.67891  0.47570  0.49660  1.0000
  H   H1190     1.0  0.87851  0.20993  0.62387  1.0000
  H   H1191     1.0  0.97429  0.15786  0.64424  1.0000
  C   C671      1.0  0.56407  0.37466  0.37525  1.0000
  H   H1192     1.0  0.72799  0.12613  0.44730  1.0000
  H   H1193     1.0  0.64356  0.24097  0.46493  1.0000
  H   H1194     1.0  0.91497  0.24904  0.63293  1.0000
  C   C672      1.0  0.56293  0.45152  0.47163  1.0000
  H   H1195     1.0  0.78090  0.45654  0.58246  1.0000
  C   C673      1.0  0.55805  0.36674  0.39321  1.0000
  H   H1196     1.0  0.91785  0.16068  0.64329  1.0000
  H   H1197     1.0  0.66676  0.47099  0.56850  1.0000
  H   H1198     1.0  0.74091  0.00972  0.40041  1.0000
  C   C674      1.0  0.73150  0.43388  0.33118  1.0000
  H   H1199     1.0  0.54523  0.30705  0.44586  1.0000
  C   C675      1.0  0.76622  0.47526  0.45562  1.0000
  N   N34       1.0  0.93092  0.21101  0.64898  1.0000
  H   H1200     1.0  0.86677  0.50028  0.34013  1.0000
  H   H1201     1.0  0.69351  0.07010  0.60135  1.0000
  H   H1202     1.0  0.59354  0.24990  0.37972  1.0000
  H   H1203     1.0  0.51400  0.20035  0.41606  1.0000
  H   H1204     1.0  0.72351  0.43990  0.61259  1.0000
  C   C676      1.0  0.59534  0.40181  0.47958  1.0000
  H   H1205     1.0  0.73028  0.09119  0.47844  1.0000
  H   H1206     1.0  0.65580  0.18331  0.47004  1.0000
  H   H1207     1.0  0.52362  0.30914  0.41752  1.0000
  C   C677      1.0  0.71939  0.01474  0.36776  1.0000
  H   H1208     1.0  0.51990  0.47978  0.39650  1.0000
  H   H1209     1.0  0.77472  0.06384  0.40068  1.0000
  C   C678      1.0  0.78956  0.05393  0.41067  1.0000
  C   C679      1.0  0.51823  0.46148  0.40578  1.0000
  H   H1210     1.0  0.80163  0.40383  0.32138  1.0000
  H   H1211     1.0  0.77995  0.02160  0.58583  1.0000
  H   H1212     1.0  0.00332  0.31227  0.64094  1.0000
  H   H1213     1.0  0.51188  0.39641  0.43905  1.0000
  C   C680      1.0  0.88200  0.15984  0.61700  1.0000
  H   H1214     1.0  0.75965  0.17970  0.43954  1.0000
  H   H1215     1.0  0.73818  0.12020  0.49441  1.0000
  S   S163      1.0  0.86744  0.38754  0.64747  1.0000
  H   H1216     1.0  0.74109  0.11982  0.60412  1.0000
  H   H1217     1.0  0.76274  0.47370  0.33944  1.0000
  H   H1218     1.0  0.58509  0.36056  0.37077  1.0000
  H   H1219     1.0  0.68585  0.20992  0.47908  1.0000
  H   H1220     1.0  0.88509  0.18447  0.64951  1.0000
  H   H1221     1.0  0.70416  0.48629  0.59624  1.0000
  C   C681      1.0  0.57252  0.41065  0.37309  1.0000
  C   C682      1.0  0.78826  0.49114  0.37221  1.0000
  H   H1222     1.0  0.70683  0.07159  0.50345  1.0000
  H   H1223     1.0  0.74095  0.01714  0.42133  1.0000
  C   C683      1.0  0.77220  0.45755  0.53792  1.0000
  C   C684      1.0  0.75651  0.45881  0.52080  1.0000
  H   H1224     1.0  0.80764  0.47597  0.37659  1.0000
  H   H1225     1.0  0.58430  0.40110  0.49179  1.0000
  H   H1226     1.0  0.68776  0.12610  0.61369  1.0000
  C   C685      1.0  0.56469  0.01297  0.53008  1.0000
  C   C686      1.0  0.73222  0.46971  0.55967  1.0000
  C   C687      1.0  0.80409  0.10489  0.60090  1.0000
  H   H1227     1.0  0.68946  0.42029  0.34558  1.0000
  H   H1228     1.0  0.81065  0.49326  0.62482  1.0000
  H   H1229     1.0  0.56261  0.18123  0.43449  1.0000
  H   H1230     1.0  0.79342  0.08490  0.62412  1.0000
  H   H1231     1.0  0.74451  0.07724  0.60757  1.0000
  H   H1232     1.0  0.63609  0.05408  0.60098  1.0000
  C   C688      1.0  0.76854  0.46317  0.61992  1.0000
  H   H1233     1.0  0.70778  0.43586  0.54288  1.0000
  S   S164      1.0  0.85330  0.09382  0.64194  1.0000
  C   C689      1.0  0.64370  0.07647  0.60767  1.0000
  H   H1234     1.0  0.87594  0.16409  0.60413  1.0000
  H   H1235     1.0  0.76725  0.16281  0.48245  1.0000
  H   H1236     1.0  0.80517  0.20932  0.48663  1.0000
  H   H1237     1.0  0.81036  0.49810  0.55553  1.0000
  H   H1238     1.0  0.76614  0.12889  0.42398  1.0000
  H   H1239     1.0  0.54841  0.01665  0.54059  1.0000
  C   C690      1.0  0.89717  0.19061  0.62441  1.0000
  H   H1240     1.0  0.68523  0.12365  0.46771  1.0000
  C   C691      1.0  0.76568  0.44979  0.33334  1.0000
  H   H1241     1.0  0.89911  0.13917  0.61768  1.0000
  H   H1242     1.0  0.68377  0.10824  0.50607  1.0000
  H   H1243     1.0  0.55113  0.43652  0.46191  1.0000
  H   H1244     1.0  0.79116  0.12832  0.62301  1.0000
  H   H1245     1.0  0.79216  0.42750  0.50923  1.0000
  H   H1246     1.0  0.80184  0.43825  0.56565  1.0000
  C   C692      1.0  0.71294  0.43363  0.34714  1.0000
  H   H1247     1.0  0.75418  0.43108  0.49844  1.0000
  C   C693      1.0  0.70205  0.45817  0.54990  1.0000
  H   H1248     1.0  0.73665  0.49999  0.42857  1.0000
  C   C694      1.0  0.56680  0.30693  0.39206  1.0000
  H   H1249     1.0  0.71769  0.20047  0.45119  1.0000
  C   C695      1.0  0.77541  0.02457  0.35924  1.0000
  C   C696      1.0  0.74775  0.10156  0.61340  1.0000
  H   H1250     1.0  0.61267  0.49219  0.46194  1.0000
  H   H1251     1.0  0.51344  0.32725  0.37518  1.0000
  H   H1252     1.0  0.79598  0.11487  0.43842  1.0000
  H   H1253     1.0  0.68644  0.14976  0.48494  1.0000
  H   H1254     1.0  0.76836  0.21328  0.46276  1.0000
  H   H1255     1.0  0.50541  0.00878  0.42253  1.0000
  H   H1256     1.0  0.70759  0.45886  0.35106  1.0000
  C   C697      1.0  0.68291  0.47590  0.47976  1.0000
  H   H1257     1.0  0.58211  0.36988  0.39924  1.0000
  H   H1258     1.0  0.77340  0.22567  0.49934  1.0000
  H   H1259     1.0  0.56340  0.28542  0.40000  1.0000
  H   H1260     1.0  0.54246  0.36925  0.36764  1.0000
  H   H1261     1.0  0.58076  0.38629  0.47115  1.0000
  C   C698      1.0  0.96407  0.21041  0.64110  1.0000
  H   H1262     1.0  0.68187  0.24638  0.45471  1.0000
  H   H1263     1.0  0.84663  0.43067  0.32995  1.0000
  H   H1264     1.0  0.73363  0.40828  0.32703  1.0000
  C   C699      1.0  0.73846  0.46165  0.61170  1.0000
  N   N35       1.0  0.54352  0.33367  0.39671  1.0000
  H   H1265     1.0  0.73254  0.18069  0.49124  1.0000
  H   H1266     1.0  0.58212  0.32919  0.45086  1.0000
  H   H1267     1.0  0.79098  0.25008  0.48356  1.0000
  H   H1268     1.0  0.60957  0.43604  0.46163  1.0000
  S   S165      1.0  0.68304  0.02604  0.37808  1.0000
  H   H1269     1.0  0.77876  0.43468  0.34227  1.0000
  H   H1270     1.0  0.79813  0.12645  0.59353  1.0000
  H   H1271     1.0  0.52305  0.35227  0.41900  1.0000
  H   H1272     1.0  0.82913  0.45360  0.34627  1.0000
  C   C700      1.0  0.54075  0.00643  0.44139  1.0000
  H   H1273     1.0  0.81495  0.06298  0.40928  1.0000
  H   H1274     1.0  0.83732  0.44865  0.58970  1.0000
  H   H1275     1.0  0.58348  0.35379  0.42402  1.0000
  H   H1276     1.0  0.67376  0.10865  0.63183  1.0000
  H   H1277     1.0  0.62802  0.07890  0.61850  1.0000
  H   H1278     1.0  0.67467  0.08064  0.48946  1.0000
  H   H1279     1.0  0.80518  0.00828  0.41982  1.0000
  H   H1280     1.0  0.61304  0.45089  0.48184  1.0000
  C   C701      1.0  0.79903  0.46095  0.57280  1.0000
  H   H1281     1.0  0.79894  0.45979  0.53597  1.0000
  H   H1282     1.0  0.80431  0.24457  0.63763  1.0000
  H   H1283     1.0  0.85133  0.47091  0.57233  1.0000
  H   H1284     1.0  0.59235  0.31531  0.39409  1.0000
  C   C702      1.0  0.58858  0.49664  0.45636  1.0000
  C   C703      1.0  0.78889  0.01681  0.41015  1.0000
  C   C704      1.0  0.81635  0.47203  0.32224  1.0000
  H   H1285     1.0  0.75841  0.12114  0.46231  1.0000
  H   H1286     1.0  0.72429  0.48862  0.56846  1.0000
  H   H1287     1.0  0.79063  0.48136  0.43303  1.0000
  C   C705      1.0  0.67944  0.07389  0.61259  1.0000
  H   H1288     1.0  0.54269  0.38614  0.39849  1.0000
  C   C706      1.0  0.55956  0.32955  0.44344  1.0000
  H   H1289     1.0  0.65108  0.21911  0.44642  1.0000
  N   N36       1.0  0.72424  0.15972  0.46742  1.0000
  C   C707      1.0  0.70298  0.18215  0.45779  1.0000
  C   C708      1.0  0.74434  0.13983  0.45582  1.0000
  C   C709      1.0  0.70211  0.13632  0.47632  1.0000
  C   C710      1.0  0.74555  0.17767  0.47955  1.0000
  C   C711      1.0  0.75766  0.21237  0.47496  1.0000
  C   C712      1.0  0.67635  0.20028  0.46742  1.0000
  C   C713      1.0  0.71903  0.10966  0.48641  1.0000
  C   C714      1.0  0.77006  0.15857  0.44581  1.0000
  C   C715      1.0  0.78498  0.13666  0.43289  1.0000
  C   C716      1.0  0.78337  0.22501  0.48690  1.0000
  C   C717      1.0  0.66246  0.22841  0.45776  1.0000
  C   C718      1.0  0.69448  0.09155  0.49699  1.0000
  H   H1290     1.0  0.69010  0.16827  0.44808  1.0000
  H   H1291     1.0  0.62028  0.39179  0.48034  1.0000
  H   H1292     1.0  0.82976  0.49156  0.58837  1.0000
  H   H1293     1.0  0.80690  0.03459  0.61206  1.0000
  N   N37       1.0  0.76089  0.48244  0.55016  1.0000
  C   C719      1.0  0.76536  0.42908  0.51063  1.0000
  H   H1294     1.0  0.76846  0.43256  0.54272  1.0000
  H   H1295     1.0  0.59067  0.26024  0.35868  1.0000
  N   N38       1.0  0.56110  0.48728  0.46753  1.0000
  H   H1296     1.0  0.54268  0.00818  0.45474  1.0000
  C   C720      1.0  0.78742  0.49161  0.61868  1.0000
  C   C721      1.0  0.91593  0.24387  0.64608  1.0000
  H   H1297     1.0  0.96205  0.16839  0.62434  1.0000
  H   H1298     1.0  0.56187  0.19356  0.45542  1.0000
  H   H1299     1.0  0.64009  0.09767  0.59968  1.0000
  H   H1300     1.0  0.68164  0.05195  0.62019  1.0000
  H   H1301     1.0  0.89017  0.24383  0.65013  1.0000
  C   C722      1.0  0.51367  0.41441  0.42966  1.0000
  C   C723      1.0  0.64963  0.01482  0.47018  1.0000
  C   C724      1.0  0.54678  0.18402  0.44526  1.0000
  C   C725      1.0  0.84010  0.45542  0.33409  1.0000
  C   C726      1.0  0.68330  0.02001  0.47088  1.0000
  C   C727      1.0  0.92282  0.30553  0.64666  1.0000
  H   H1302     1.0  0.98277  0.22076  0.64951  1.0000
  C   C728      1.0  0.90777  0.18547  0.64221  1.0000
  C   C729      1.0  0.51906  0.20739  0.44177  1.0000
  H   H1303     1.0  0.72965  0.05309  0.63204  1.0000
  H   H1304     1.0  0.78583  0.45968  0.46040  1.0000
  H   H1305     1.0  0.59519  0.48560  0.49921  1.0000
  H   H1306     1.0  0.70264  0.49074  0.64040  1.0000
  H   H1307     1.0  0.79874  0.04932  0.32620  1.0000
  N   N39       1.0  0.72586  0.10482  0.62794  1.0000
  H   H1308     1.0  0.75755  0.07689  0.64319  1.0000
  H   H1309     1.0  0.73418  0.20000  0.64834  1.0000
  H   H1310     1.0  0.68942  0.16468  0.63701  1.0000
  H   H1311     1.0  0.63575  0.02472  0.46030  1.0000
  H   H1312     1.0  0.79960  0.00923  0.39846  1.0000
  H   H1313     1.0  0.89591  0.30774  0.64686  1.0000
  H   H1314     1.0  0.88809  0.46341  0.34460  1.0000
  H   H1315     1.0  0.82310  0.29742  0.64953  1.0000
  C   C730      1.0  0.70090  0.00717  0.48390  1.0000
  H   H1316     1.0  0.88450  0.47663  0.32401  1.0000
  H   H1317     1.0  0.70732  0.50354  0.37698  1.0000
  S   S166      1.0  0.81164  0.17824  0.64782  1.0000
  H   H1318     1.0  0.73726  0.50331  0.32123  1.0000
  H   H1319     1.0  0.68448  0.07485  0.65126  1.0000
  C   C731      1.0  0.50540  0.00973  0.43589  1.0000
  C   C732      1.0  0.77984  0.49734  0.44244  1.0000
  C   C733      1.0  0.77428  0.00502  0.62601  1.0000
  Fe  Fe82      1.0  0.89193  0.08896  0.66123  1.0000
  H   H1320     1.0  0.78350  0.36591  0.77093  1.0000
  Fe  Fe83      1.0  0.83985  0.08985  0.68809  1.0000
  C   C734      1.0  0.76254  0.16949  0.73418  1.0000
  S   S167      1.0  0.83440  0.09405  0.71548  1.0000
  H   H1321     1.0  0.99515  0.37135  0.76310  1.0000
  C   C735      1.0  0.79008  0.02169  0.81149  1.0000
  S   S168      1.0  0.86354  0.04919  0.67395  1.0000
  S   S169      1.0  0.87099  0.12888  0.67660  1.0000
  S   S170      1.0  0.84692  0.45646  0.66488  1.0000
  Fe  Fe84      1.0  0.85117  0.36329  0.67044  1.0000
  S   S171      1.0  0.87665  0.39917  0.68701  1.0000
  H   H1322     1.0  0.75876  0.43709  0.68156  1.0000
  Fe  Fe85      1.0  0.83036  0.42741  0.68633  1.0000
  S   S172      1.0  0.80778  0.45524  0.70744  1.0000
  Fe  Fe86      1.0  0.89128  0.42434  0.66424  1.0000
  H   H1323     1.0  0.93678  0.15315  0.66757  1.0000
  S   S173      1.0  0.80383  0.38980  0.67145  1.0000
  Fe  Fe87      1.0  0.66877  0.37417  0.81463  1.0000
  S   S174      1.0  0.64729  0.37656  0.78997  1.0000
  S   S175      1.0  0.66523  0.32710  0.82870  1.0000
  Fe  Fe88      1.0  0.68855  0.44606  0.81456  1.0000
  S   S176      1.0  0.66703  0.45288  0.78950  1.0000
  H   H1324     1.0  0.84242  0.44543  0.82044  1.0000
  Fe  Fe89      1.0  0.62425  0.42283  0.79832  1.0000
  S   S177      1.0  0.57154  0.42581  0.78932  1.0000
  Fe  Fe90      1.0  0.69145  0.40592  0.78313  1.0000
  S   S178      1.0  0.71526  0.38829  0.75970  1.0000
  S   S179      1.0  0.64380  0.41936  0.82364  1.0000
  S   S180      1.0  0.71501  0.40032  0.80760  1.0000
  Fe  Fe91      1.0  0.67717  0.14195  0.79956  1.0000
  S   S181      1.0  0.64908  0.10881  0.78283  1.0000
  S   S182      1.0  0.67561  0.19347  0.78991  1.0000
  Fe  Fe92      1.0  0.70347  0.08417  0.81874  1.0000
  S   S183      1.0  0.67756  0.04770  0.80266  1.0000
  S   S184      1.0  0.73790  0.07391  0.84005  1.0000
  Fe  Fe93      1.0  0.69423  0.07887  0.78195  1.0000
  S   S185      1.0  0.70753  0.06047  0.75680  1.0000
  Fe  Fe94      1.0  0.63432  0.08111  0.80480  1.0000
  S   S186      1.0  0.58338  0.05804  0.80718  1.0000
  S   S187      1.0  0.72314  0.11315  0.79768  1.0000
  S   S188      1.0  0.65934  0.11628  0.82192  1.0000
  C   C736      1.0  0.66808  0.28985  0.81797  1.0000
  C   C737      1.0  0.66845  0.28910  0.80112  1.0000
  C   C738      1.0  0.67041  0.25932  0.79280  1.0000
  C   C739      1.0  0.67261  0.22995  0.80119  1.0000
  C   C740      1.0  0.67231  0.23052  0.81806  1.0000
  C   C741      1.0  0.66976  0.26041  0.82642  1.0000
  H   H1325     1.0  0.66744  0.31146  0.79444  1.0000
  H   H1326     1.0  0.67046  0.25921  0.77977  1.0000
  H   H1327     1.0  0.67439  0.20808  0.82466  1.0000
  H   H1328     1.0  0.66965  0.26080  0.83948  1.0000
  C   C742      1.0  0.78148  0.43652  0.72168  1.0000
  C   C743      1.0  0.76644  0.45576  0.73357  1.0000
  C   C744      1.0  0.74565  0.44160  0.74516  1.0000
  C   C745      1.0  0.74012  0.40794  0.74512  1.0000
  C   C746      1.0  0.75493  0.38884  0.73313  1.0000
  C   C747      1.0  0.77540  0.40300  0.72145  1.0000
  C   C748      1.0  0.57735  0.37949  0.85006  1.0000
  H   H1329     1.0  0.55460  0.12804  0.78867  1.0000
  H   H1330     1.0  0.75066  0.36282  0.73291  1.0000
  H   H1331     1.0  0.78668  0.38790  0.71235  1.0000
  C   C749      1.0  0.79894  0.08433  0.72676  1.0000
  C   C750      1.0  0.77063  0.07199  0.71941  1.0000
  C   C751      1.0  0.74291  0.06492  0.72879  1.0000
  C   C752      1.0  0.74303  0.07027  0.74557  1.0000
  C   C753      1.0  0.77133  0.08261  0.75294  1.0000
  C   C754      1.0  0.79912  0.08959  0.74357  1.0000
  H   H1332     1.0  0.77020  0.06762  0.70652  1.0000
  H   H1333     1.0  0.72125  0.05508  0.72300  1.0000
  H   H1334     1.0  0.77196  0.08625  0.76587  1.0000
  H   H1335     1.0  0.82095  0.09894  0.74938  1.0000
  C   C755      1.0  0.76812  0.48215  0.86720  1.0000
  H   H1336     1.0  0.71155  0.02101  0.65521  1.0000
  C   C756      1.0  0.85007  0.24628  0.67853  1.0000
  H   H1337     1.0  0.69894  0.19542  0.73488  1.0000
  H   H1338     1.0  0.86302  0.24662  0.68992  1.0000
  C   C757      1.0  0.82656  0.48195  0.76770  1.0000
  C   C758      1.0  0.53135  0.43707  0.81587  1.0000
  C   C759      1.0  0.53356  0.42947  0.79943  1.0000
  H   H1339     1.0  0.95821  0.14840  0.69492  1.0000
  H   H1340     1.0  0.55332  0.44121  0.82285  1.0000
  H   H1341     1.0  0.58890  0.14814  0.78069  1.0000
  C   C760      1.0  0.54014  0.33369  0.79750  1.0000
  C   C761      1.0  0.54368  0.07460  0.80932  1.0000
  H   H1342     1.0  0.79238  0.02194  0.88600  1.0000
  H   H1343     1.0  0.60888  0.19204  0.77073  1.0000
  H   H1344     1.0  0.55839  0.11615  0.82356  1.0000
  H   H1345     1.0  0.95040  0.31461  0.69316  1.0000
  C   C762      1.0  0.75176  0.22152  0.74775  1.0000
  H   H1346     1.0  0.81800  0.17040  0.96503  1.0000
  N   N40       1.0  0.98335  0.42053  0.71178  1.0000
  H   H1347     1.0  0.70052  0.04095  0.67385  1.0000
  H   H1348     1.0  0.74360  0.49123  0.69780  1.0000
  C   C763      1.0  0.74613  0.04009  0.85274  1.0000
  C   C764      1.0  0.76833  0.04415  0.86561  1.0000
  H   H1349     1.0  0.78012  0.06756  0.86749  1.0000
  H   H1350     1.0  0.70652  0.13329  0.73278  1.0000
  H   H1351     1.0  0.76849  0.13510  0.70462  1.0000
  H   H1352     1.0  0.56373  0.04303  0.87693  1.0000
  H   H1353     1.0  0.60224  0.05804  0.84595  1.0000
  C   C765      1.0  0.94010  0.46558  0.70764  1.0000
  H   H1354     1.0  0.60519  0.32165  0.77101  1.0000
  H   H1355     1.0  0.73812  0.45029  0.85217  1.0000
  H   H1356     1.0  0.55434  0.21335  0.80538  1.0000
  H   H1357     1.0  0.76816  0.17050  0.69200  1.0000
  C   C766      1.0  0.79559  0.15981  0.78515  1.0000
  H   H1358     1.0  0.69188  0.45991  0.66912  1.0000
  H   H1359     1.0  0.76242  0.47020  0.77787  1.0000
  C   C767      1.0  0.57487  0.06061  0.86838  1.0000
  H   H1360     1.0  0.69135  0.50012  0.88965  1.0000
  H   H1361     1.0  0.70623  0.48394  0.72106  1.0000
  H   H1362     1.0  0.92302  0.44920  0.70099  1.0000
  H   H1363     1.0  0.73954  0.28828  0.74991  1.0000
  H   H1364     1.0  0.59631  0.10713  0.75826  1.0000
  H   H1365     1.0  0.69409  0.39981  0.67592  1.0000
  H   H1366     1.0  0.83471  0.46157  0.96789  1.0000
  H   H1367     1.0  0.96548  0.40304  0.76135  1.0000
  N   N41       1.0  0.53252  0.33059  0.81525  1.0000
  H   H1368     1.0  0.88480  0.44538  0.93112  1.0000
  H   H1369     1.0  0.72660  0.45440  0.65698  1.0000
  H   H1370     1.0  0.93233  0.34908  0.68356  1.0000
  H   H1371     1.0  0.96245  0.04884  0.96775  1.0000
  H   H1372     1.0  0.86820  0.01910  0.84727  1.0000
  H   H1373     1.0  0.93348  0.32633  0.65358  1.0000
  C   C768      1.0  0.73115  0.00963  0.85049  1.0000
  C   C769      1.0  0.73905  0.49909  0.84305  1.0000
  C   C770      1.0  0.72105  0.40197  0.67589  1.0000
  H   H1374     1.0  0.98949  0.36038  0.69195  1.0000
  C   C771      1.0  0.94194  0.33984  0.69518  1.0000
  H   H1375     1.0  0.85199  0.47790  0.79009  1.0000
  H   H1376     1.0  0.70064  0.13132  0.75428  1.0000
  C   C772      1.0  0.51669  0.05747  0.80284  1.0000
  H   H1377     1.0  0.95248  0.40552  0.69169  1.0000
  C   C773      1.0  0.98391  0.08858  0.65902  1.0000
  H   H1378     1.0  0.85978  0.47493  0.84537  1.0000
  H   H1379     1.0  0.69329  0.13779  0.65379  1.0000
  H   H1380     1.0  0.98089  0.03149  0.93947  1.0000
  H   H1381     1.0  0.73784  0.17290  0.66526  1.0000
  H   H1382     1.0  0.79486  0.42204  0.80630  1.0000
  C   C774      1.0  0.83939  0.21645  0.67187  1.0000
  H   H1383     1.0  0.74209  0.23302  0.73666  1.0000
  C   C775      1.0  0.83694  0.47165  0.82171  1.0000
  C   C776      1.0  0.93318  0.27354  0.65428  1.0000
  C   C777      1.0  0.54810  0.36457  0.84116  1.0000
  C   C778      1.0  0.55768  0.20690  0.77449  1.0000
  C   C779      1.0  0.76526  0.50007  0.66825  1.0000
  H   H1384     1.0  0.66681  0.50241  0.72053  1.0000
  C   C780      1.0  0.98885  0.38920  0.73873  1.0000
  S   S189      1.0  0.86115  0.31186  0.67879  1.0000
  H   H1385     1.0  0.64587  0.15533  0.75138  1.0000
  H   H1386     1.0  0.65144  0.15705  0.72969  1.0000
  Fe  Fe95      1.0  0.82348  0.05706  0.65549  1.0000
  H   H1387     1.0  0.92188  0.33920  0.70413  1.0000
  H   H1388     1.0  0.81739  0.46367  0.84573  1.0000
  C   C781      1.0  0.94921  0.17472  0.67283  1.0000
  H   H1389     1.0  0.53397  0.05904  0.85141  1.0000
  S   S190      1.0  0.94254  0.44681  0.66191  1.0000
  C   C782      1.0  0.82769  0.48665  0.78627  1.0000
  C   C783      1.0  0.80484  0.43329  0.79511  1.0000
  H   H1390     1.0  0.75774  0.20605  0.71502  1.0000
  C   C784      1.0  0.65839  0.14417  0.74088  1.0000
  C   C785      1.0  0.62632  0.02095  0.88092  1.0000
  C   C786      1.0  0.55689  0.18688  0.80279  1.0000
  H   H1391     1.0  0.65026  0.11836  0.73980  1.0000
  H   H1392     1.0  0.54677  0.23008  0.77860  1.0000
  C   C787      1.0  0.59462  0.21420  0.77314  1.0000
  H   H1393     1.0  0.95422  0.42571  0.73330  1.0000
  C   C788      1.0  0.59814  0.18905  0.82567  1.0000
  C   C789      1.0  0.60179  0.23786  0.75946  1.0000
  C   C790      1.0  0.84444  0.27561  0.67050  1.0000
  H   H1394     1.0  0.93836  0.03374  0.94510  1.0000
  H   H1395     1.0  0.96068  0.19204  0.69721  1.0000
  H   H1396     1.0  0.89887  0.03636  0.87148  1.0000
  H   H1397     1.0  0.53682  0.34621  0.84909  1.0000
  C   C791      1.0  0.71890  0.46206  0.66932  1.0000
  H   H1398     1.0  0.67780  0.02586  0.88867  1.0000
  H   H1399     1.0  0.78408  0.46985  0.82044  1.0000
  H   H1400     1.0  0.93604  0.39645  0.71090  1.0000
  C   C792      1.0  0.93574  0.49968  0.70083  1.0000
  C   C793      1.0  0.51981  0.24894  0.83847  1.0000
  H   H1401     1.0  0.59945  0.21606  0.82582  1.0000
  H   H1402     1.0  0.61064  0.18529  0.80068  1.0000
  H   H1403     1.0  0.97016  0.37011  0.73621  1.0000
  H   H1404     1.0  0.56419  0.08457  0.76825  1.0000
  C   C794      1.0  0.72084  0.18226  0.65599  1.0000
  H   H1405     1.0  0.54768  0.20281  0.76214  1.0000
  C   C795      1.0  0.51096  0.17579  0.78451  1.0000
  C   C796      1.0  0.77536  0.01829  0.87614  1.0000
  H   H1406     1.0  0.81923  0.03691  0.83167  1.0000
  C   C797      1.0  0.55812  0.35002  0.82456  1.0000
  H   H1407     1.0  0.65984  0.02090  0.83218  1.0000
  H   H1408     1.0  0.88934  0.01886  0.89072  1.0000
  C   C798      1.0  0.95922  0.39699  0.70397  1.0000
  H   H1409     1.0  0.94878  0.22630  0.67259  1.0000
  C   C799      1.0  0.57429  0.32197  0.79218  1.0000
  C   C800      1.0  0.94722  0.17172  0.69117  1.0000
  C   C801      1.0  0.93365  0.20662  0.66701  1.0000
  H   H1410     1.0  0.66659  0.49208  0.86155  1.0000
  C   C802      1.0  0.81297  0.01503  0.97343  1.0000
  C   C803      1.0  0.58077  0.33043  0.77456  1.0000
  H   H1411     1.0  0.77072  0.48176  0.73375  1.0000
  C   C804      1.0  0.97015  0.36130  0.70125  1.0000
  H   H1412     1.0  0.58031  0.33519  0.82648  1.0000
  H   H1413     1.0  0.56660  0.37141  0.81741  1.0000
  H   H1414     1.0  0.96539  0.00592  0.91342  1.0000
  C   C805      1.0  0.54727  0.07692  0.85922  1.0000
  C   C806      1.0  0.98951  0.39458  0.75701  1.0000
  H   H1415     1.0  0.55899  0.28589  0.81819  1.0000
  H   H1416     1.0  0.58883  0.26108  0.76141  1.0000
  C   C807      1.0  0.98156  0.42822  0.66146  1.0000
  Fe  Fe96      1.0  0.83112  0.13138  0.65827  1.0000
  H   H1417     1.0  0.92645  0.27468  0.66726  1.0000
  H   H1418     1.0  0.57609  0.29517  0.79326  1.0000
  H   H1419     1.0  0.59392  0.33331  0.79959  1.0000
  H   H1420     1.0  0.93294  0.46928  0.94444  1.0000
  H   H1421     1.0  0.90913  0.20852  0.67262  1.0000
  H   H1422     1.0  0.71087  0.49120  0.92173  1.0000
  C   C808      1.0  0.73189  0.43617  0.68111  1.0000
  H   H1423     1.0  0.62834  0.24321  0.75906  1.0000
  C   C809      1.0  0.98962  0.07961  0.67502  1.0000
  H   H1424     1.0  0.83104  0.42677  0.79484  1.0000
  C   C810      1.0  0.69202  0.50408  0.71580  1.0000
  H   H1425     1.0  0.55715  0.09678  0.85162  1.0000
  H   H1426     1.0  0.56966  0.38866  0.86208  1.0000
  H   H1427     1.0  0.79172  0.13307  0.78423  1.0000
  C   C811      1.0  0.59111  0.17640  0.80861  1.0000
  H   H1428     1.0  0.62192  0.17976  0.82987  1.0000
  H   H1429     1.0  0.82316  0.37571  0.77908  1.0000
  H   H1430     1.0  0.57907  0.18058  0.83418  1.0000
  H   H1431     1.0  0.51353  0.24294  0.85114  1.0000
  H   H1432     1.0  0.97996  0.35031  0.71233  1.0000
  C   C812      1.0  0.77383  0.16162  0.70429  1.0000
  N   N42       1.0  0.62989  0.03050  0.86344  1.0000
  H   H1433     1.0  0.76093  0.41578  0.78259  1.0000
  H   H1434     1.0  0.79364  0.42460  0.76916  1.0000
  H   H1435     1.0  0.60351  0.22602  0.78445  1.0000
  H   H1436     1.0  0.96389  0.37883  0.66100  1.0000
  C   C813      1.0  0.79662  0.37860  0.78096  1.0000
  H   H1437     1.0  0.56094  0.09377  0.74709  1.0000
  C   C814      1.0  0.78765  0.41455  0.78110  1.0000
  H   H1438     1.0  0.92147  0.17175  0.69521  1.0000
  H   H1439     1.0  0.78934  0.36695  0.79246  1.0000
  H   H1440     1.0  0.70079  0.19509  0.66222  1.0000
  C   C815      1.0  0.70764  0.18111  0.74533  1.0000
  C   C816      1.0  0.76761  0.47946  0.79018  1.0000
  H   H1441     1.0  0.69443  0.19107  0.75592  1.0000
  C   C817      1.0  0.75333  0.17966  0.71677  1.0000
  H   H1442     1.0  0.59276  0.14950  0.80884  1.0000
  C   C818      1.0  0.75344  0.17008  0.76338  1.0000
  C   C819      1.0  0.98524  0.39444  0.66136  1.0000
  H   H1443     1.0  0.70517  0.09632  0.87406  1.0000
  H   H1444     1.0  0.72278  0.44010  0.69355  1.0000
  C   C820      1.0  0.83271  0.48466  0.97414  1.0000
  H   H1445     1.0  0.68054  0.13201  0.87641  1.0000
  H   H1446     1.0  0.77880  0.05012  0.98262  1.0000
  C   C821      1.0  0.53374  0.29501  0.81948  1.0000
  H   H1447     1.0  0.79503  0.20205  0.77030  1.0000
  H   H1448     1.0  0.82117  0.16456  0.78892  1.0000
  H   H1449     1.0  0.78903  0.17470  0.73551  1.0000
  H   H1450     1.0  0.59666  0.36115  0.85180  1.0000
  H   H1451     1.0  0.79974  0.01064  0.96230  1.0000
  N   N43       1.0  0.74386  0.18557  0.74765  1.0000
  H   H1452     1.0  0.58740  0.40029  0.84316  1.0000
  H   H1453     1.0  0.73755  0.29080  0.77157  1.0000
  C   C822      1.0  0.69525  0.14551  0.74331  1.0000
  H   H1454     1.0  0.74987  0.14330  0.76264  1.0000
  H   H1455     1.0  0.53764  0.35952  0.79372  1.0000
  H   H1456     1.0  0.77854  0.22578  0.74728  1.0000
  H   H1457     1.0  0.73026  0.39618  0.66362  1.0000
  C   C823      1.0  0.53817  0.10337  0.81796  1.0000
  H   H1458     1.0  0.80024  0.16571  0.70658  1.0000
  C   C824      1.0  0.59786  0.04234  0.85667  1.0000
  H   H1459     1.0  0.58771  0.07963  0.87556  1.0000
  H   H1460     1.0  0.63243  0.10201  0.86588  1.0000
  H   H1461     1.0  0.80637  0.16506  0.76008  1.0000
  H   H1462     1.0  0.52602  0.13014  0.76208  1.0000
  H   H1463     1.0  0.76024  0.14258  0.73489  1.0000
  H   H1464     1.0  0.71089  0.24059  0.76188  1.0000
  C   C825      1.0  0.78921  0.17578  0.76888  1.0000
  N   N44       1.0  0.54763  0.17942  0.78543  1.0000
  H   H1465     1.0  0.99422  0.44131  0.73529  1.0000
  C   C826      1.0  0.65296  0.08788  0.87080  1.0000
  H   H1466     1.0  0.61793  0.04157  0.88845  1.0000
  H   H1467     1.0  0.58037  0.35723  0.77289  1.0000
  H   H1468     1.0  0.77474  0.46303  0.87542  1.0000
  H   H1469     1.0  0.73709  0.17797  0.77331  1.0000
  H   H1470     1.0  0.68795  0.11571  0.85656  1.0000
  C   C827      1.0  0.97591  0.45435  0.70585  1.0000
  C   C828      1.0  0.74826  0.27716  0.76128  1.0000
  H   H1471     1.0  0.89779  0.48170  0.92080  1.0000
  H   H1472     1.0  0.55967  0.15305  0.75367  1.0000
  H   H1473     1.0  0.68024  0.47741  0.69424  1.0000
  H   H1474     1.0  0.84385  0.19411  0.67821  1.0000
  H   H1475     1.0  0.77923  0.16988  0.79454  1.0000
  H   H1476     1.0  0.77010  0.48860  0.65627  1.0000
  H   H1477     1.0  0.72741  0.17402  0.71408  1.0000
  H   H1478     1.0  0.74613  0.23201  0.77392  1.0000
  C   C829      1.0  0.88726  0.47224  0.93219  1.0000
  C   C830      1.0  0.73782  0.24140  0.76212  1.0000
  C   C831      1.0  0.68355  0.10918  0.86934  1.0000
  H   H1479     1.0  0.64911  0.08354  0.88383  1.0000
  H   H1480     1.0  0.85934  0.04300  0.88055  1.0000
  C   C832      1.0  0.56199  0.14744  0.78012  1.0000
  H   H1481     1.0  0.96924  0.07513  0.68295  1.0000
  C   C833      1.0  0.65743  0.00795  0.88929  1.0000
  S   S191      1.0  0.79849  0.09531  0.67065  1.0000
  H   H1482     1.0  0.50602  0.41868  0.77780  1.0000
  C   C834      1.0  0.65643  0.05574  0.86117  1.0000
  H   H1483     1.0  0.59435  0.22706  0.74766  1.0000
  H   H1484     1.0  0.73369  0.45665  0.75402  1.0000
  H   H1485     1.0  0.91822  0.49493  0.97933  1.0000
  H   H1486     1.0  0.71725  0.09421  0.66265  1.0000
  H   H1487     1.0  0.77516  0.27964  0.76201  1.0000
  H   H1488     1.0  0.73418  0.48312  0.90380  1.0000
  H   H1489     1.0  0.98233  0.45649  0.69285  1.0000
  H   H1490     1.0  0.53981  0.17425  0.81112  1.0000
  H   H1491     1.0  0.65812  0.06292  0.84830  1.0000
  H   H1492     1.0  0.80210  0.48635  0.76261  1.0000
  N   N45       1.0  0.72976  0.49667  0.67269  1.0000
  H   H1493     1.0  0.71460  0.00587  0.84048  1.0000
  C   C835      1.0  0.74741  0.47480  0.85396  1.0000
  C   C836      1.0  0.87910  0.02516  0.87875  1.0000
  H   H1494     1.0  0.94207  0.50008  0.68780  1.0000
  N   N46       1.0  0.80117  0.46993  0.79577  1.0000
  C   C837      1.0  0.82321  0.21562  0.65701  1.0000
  C   C838      1.0  0.97984  0.42081  0.72988  1.0000
  H   H1495     1.0  0.94516  0.04412  0.91630  1.0000
  C   C839      1.0  0.69146  0.50126  0.69740  1.0000
  C   C840      1.0  0.52327  0.28582  0.83677  1.0000
  H   H1496     1.0  0.89802  0.47040  0.95749  1.0000
  H   H1497     1.0  0.74881  0.46761  0.79790  1.0000
  C   C841      1.0  0.95679  0.01925  0.93857  1.0000
  C   C842      1.0  0.90921  0.48106  0.94654  1.0000
  C   C843      1.0  0.80446  0.48045  0.81324  1.0000
  H   H1498     1.0  0.73095  0.38393  0.68446  1.0000
  H   H1499     1.0  0.68060  0.04537  0.86396  1.0000
  H   H1500     1.0  0.79258  0.04598  0.80583  1.0000
  C   C844      1.0  0.82752  0.27495  0.65582  1.0000
  H   H1501     1.0  0.97538  0.17429  0.66962  1.0000
  H   H1502     1.0  0.83419  0.45696  0.76448  1.0000
  H   H1503     1.0  0.54221  0.29403  0.84552  1.0000
  S   S192      1.0  0.71343  0.49144  0.82593  1.0000
  C   C845      1.0  0.56959  0.10322  0.75896  1.0000
  H   H1504     1.0  0.78058  0.48631  0.67686  1.0000
  H   H1505     1.0  0.52976  0.08759  0.86789  1.0000
  H   H1506     1.0  0.52050  0.03491  0.79635  1.0000
  H   H1507     1.0  0.58282  0.02149  0.85200  1.0000
  H   H1508     1.0  0.87546  0.50150  0.76365  1.0000
  C   C846      1.0  0.50626  0.11511  0.81979  1.0000
  C   C847      1.0  0.71076  0.07410  0.65419  1.0000
  H   H1509     1.0  0.53025  0.38429  0.83942  1.0000
  H   H1510     1.0  0.84940  0.50066  0.74609  1.0000
  C   C848      1.0  0.55257  0.13512  0.76297  1.0000
  H   H1511     1.0  0.99110  0.47294  0.71228  1.0000
  H   H1512     1.0  0.54299  0.23682  0.83540  1.0000
  C   C849      1.0  0.81865  0.01619  0.82298  1.0000
  C   C850      1.0  0.73244  0.49895  0.91469  1.0000
  C   C851      1.0  0.94695  0.01883  0.92076  1.0000
  H   H1513     1.0  0.85743  0.48598  0.81658  1.0000
  H   H1514     1.0  0.96575  0.48820  0.96434  1.0000
  C   C852      1.0  0.76258  0.49291  0.92508  1.0000
  H   H1515     1.0  0.78587  0.14127  0.96877  1.0000
  H   H1516     1.0  0.77633  0.18379  0.96703  1.0000
  C   C853      1.0  0.95854  0.03394  0.97862  1.0000
  H   H1517     1.0  0.76664  0.02093  0.81812  1.0000
  H   H1518     1.0  0.76382  0.46672  0.92815  1.0000
  C   C854      1.0  0.83572  0.47948  0.83975  1.0000
  H   H1519     1.0  0.82931  0.01641  0.85635  1.0000
  H   H1520     1.0  0.86260  0.48245  0.93384  1.0000
  C   C855      1.0  0.80119  0.03745  0.98497  1.0000
  H   H1521     1.0  0.61712  0.01170  0.83041  1.0000
  H   H1522     1.0  0.93268  0.46640  0.72047  1.0000
  H   H1523     1.0  0.84121  0.01710  0.81573  1.0000
  H   H1524     1.0  0.64461  0.02382  0.91363  1.0000
  C   C856      1.0  0.71667  0.04239  0.66316  1.0000
  C   C857      1.0  0.79468  0.16640  0.97150  1.0000
  H   H1525     1.0  0.52249  0.31948  0.79001  1.0000
  H   H1526     1.0  0.92293  0.00652  0.91907  1.0000
  H   H1527     1.0  0.74226  0.04136  0.66746  1.0000
  H   H1528     1.0  0.90892  0.05110  0.98159  1.0000
  H   H1529     1.0  0.96002  0.27194  0.65336  1.0000
  H   H1530     1.0  0.51895  0.28033  0.81073  1.0000
  H   H1531     1.0  0.56221  0.31886  0.76653  1.0000
  H   H1532     1.0  0.78509  0.49971  0.91847  1.0000
  H   H1533     1.0  0.83039  0.21299  0.98548  1.0000
  Fe  Fe97      1.0  0.64355  0.58011  0.17069  1.0000
  S   S193      1.0  0.65404  0.58698  0.14439  1.0000
  S   S194      1.0  0.59477  0.57284  0.18356  1.0000
  Fe  Fe98      1.0  0.71432  0.59750  0.18060  1.0000
  S   S195      1.0  0.72990  0.60588  0.15478  1.0000
  S   S196      1.0  0.74512  0.61569  0.20205  1.0000
  Fe  Fe99      1.0  0.68230  0.63160  0.15196  1.0000
  S   S197      1.0  0.67383  0.67803  0.13813  1.0000
  Fe  Fe100     1.0  0.70109  0.56032  0.14879  1.0000
  H   H1534     1.0  0.66658  0.55991  0.08834  1.0000
  S   S198      1.0  0.66880  0.62668  0.17781  1.0000
  S   S199      1.0  0.68845  0.54995  0.17496  1.0000
  Fe  Fe101     1.0  0.68949  0.86104  0.16952  1.0000
  S   S200      1.0  0.66601  0.88853  0.18977  1.0000
  S   S201      1.0  0.70509  0.80983  0.17607  1.0000
  Fe  Fe102     1.0  0.69396  0.92233  0.14825  1.0000
  S   S202      1.0  0.67011  0.95372  0.16729  1.0000
  C   C858      1.0  0.77357  0.99852  0.09718  1.0000
  Fe  Fe103     1.0  0.70255  0.92807  0.18516  1.0000
  S   S203      1.0  0.73636  0.95362  0.20345  1.0000
  Fe  Fe104     1.0  0.63461  0.91129  0.17052  1.0000
  S   S204      1.0  0.58064  0.91056  0.17843  1.0000
  S   S205      1.0  0.72804  0.89937  0.16601  1.0000
  S   S206      1.0  0.65656  0.88116  0.15040  1.0000
  Fe  Fe105     1.0  0.88616  0.92519  0.30034  1.0000
  S   S207      1.0  0.93515  0.93938  0.28891  1.0000
  Fe  Fe106     1.0  0.81560  0.90722  0.29040  1.0000
  C   C859      1.0  0.75776  0.77534  0.21443  1.0000
  S   S208      1.0  0.77493  0.89611  0.27211  1.0000
  C   C860      1.0  0.53730  0.84118  0.14622  1.0000
  H   H1535     1.0  0.80944  0.70960  0.20763  1.0000
  S   S209      1.0  0.84055  0.95477  0.29662  1.0000
  S   S210      1.0  0.86178  0.87845  0.29202  1.0000
  Fe  Fe107     1.0  0.82848  0.57333  0.28540  1.0000
  S   S211      1.0  0.79720  0.60601  0.30022  1.0000
  S   S212      1.0  0.80554  0.54601  0.26395  1.0000
  Fe  Fe108     1.0  0.88720  0.58311  0.30865  1.0000
  C   C861      1.0  0.98388  0.60133  0.29786  1.0000
  Fe  Fe109     1.0  0.84123  0.63881  0.30172  1.0000
  S   S213      1.0  0.83673  0.69091  0.29322  1.0000
  S   S214      1.0  0.84616  0.54589  0.30717  1.0000
  S   S215      1.0  0.87195  0.60722  0.28560  1.0000
  H   H1536     1.0  0.71195  0.95639  0.28568  1.0000
  C   C862      1.0  0.84230  0.72736  0.30435  1.0000
  C   C863      1.0  0.84022  0.75691  0.29609  1.0000
  H   H1537     1.0  0.63681  0.58233  0.09963  1.0000
  H   H1538     1.0  0.83537  0.75670  0.28327  1.0000
  H   H1539     1.0  0.84198  0.80929  0.29782  1.0000
  C   C864      1.0  0.74690  0.93766  0.22257  1.0000
  C   C865      1.0  0.77573  0.94836  0.23028  1.0000
  C   C866      1.0  0.78482  0.93610  0.24549  1.0000
  C   C867      1.0  0.76498  0.91311  0.25315  1.0000
  C   C868      1.0  0.73593  0.90287  0.24556  1.0000
  C   C869      1.0  0.72694  0.91499  0.23036  1.0000
  C   C870      1.0  0.76327  0.79821  0.24982  1.0000
  H   H1540     1.0  0.80719  0.94428  0.25122  1.0000
  H   H1541     1.0  0.72023  0.88540  0.25149  1.0000
  H   H1542     1.0  0.70447  0.90691  0.22468  1.0000
  C   C871      1.0  0.76230  0.59537  0.21890  1.0000
  C   C872      1.0  0.77874  0.61399  0.23078  1.0000
  C   C873      1.0  0.79202  0.59928  0.24460  1.0000
  C   C874      1.0  0.78923  0.56563  0.24668  1.0000
  C   C875      1.0  0.77282  0.54697  0.23478  1.0000
  C   C876      1.0  0.75937  0.56172  0.22098  1.0000
  H   H1543     1.0  0.78121  0.64001  0.22932  1.0000
  H   H1544     1.0  0.80456  0.61398  0.25363  1.0000
  H   H1545     1.0  0.77059  0.52092  0.23622  1.0000
  H   H1546     1.0  0.74697  0.54703  0.21193  1.0000
  C   C877      1.0  0.68245  0.71476  0.14858  1.0000
  C   C878      1.0  0.69657  0.71446  0.16392  1.0000
  C   C879      1.0  0.70340  0.74384  0.17207  1.0000
  C   C880      1.0  0.69588  0.77382  0.16509  1.0000
  C   C881      1.0  0.68181  0.77421  0.14970  1.0000
  C   C882      1.0  0.67525  0.74470  0.14144  1.0000
  H   H1547     1.0  0.70262  0.69159  0.16946  1.0000
  H   H1548     1.0  0.71462  0.74327  0.18384  1.0000
  H   H1549     1.0  0.67616  0.79719  0.14416  1.0000
  H   H1550     1.0  0.66446  0.74512  0.12952  1.0000
  C   C883      1.0  0.67302  0.61230  0.25473  1.0000
  C   C884      1.0  0.77828  0.82844  0.20620  1.0000
  H   H1551     1.0  0.74237  0.58229  0.27376  1.0000
  H   H1552     1.0  0.61225  0.60880  0.24270  1.0000
  H   H1553     1.0  0.80551  0.76813  0.20297  1.0000
  C   C885      1.0  0.97537  0.93849  0.29704  1.0000
  C   C886      1.0  0.93044  0.68506  0.30007  1.0000
  H   H1554     1.0  0.77153  0.71823  0.19768  1.0000
  C   C887      1.0  0.52815  0.58061  0.18468  1.0000
  C   C888      1.0  0.55541  0.57621  0.17468  1.0000
  C   C889      1.0  0.55065  0.57434  0.15798  1.0000
  H   H1555     1.0  0.53147  0.58186  0.19762  1.0000
  H   H1556     1.0  0.57125  0.57050  0.15014  1.0000
  H   H1557     1.0  0.71362  0.61058  0.28192  1.0000
  C   C890      1.0  0.54093  0.91967  0.17089  1.0000
  C   C891      1.0  0.53538  0.92984  0.15505  1.0000
  H   H1558     1.0  0.96048  0.70323  0.27980  1.0000
  C   C892      1.0  0.79076  0.75774  0.21291  1.0000
  H   H1559     1.0  0.87110  0.97037  0.02933  1.0000
  C   C893      1.0  0.71667  0.59024  0.27317  1.0000
  C   C894      1.0  0.70316  0.93800  0.07072  1.0000
  H   H1560     1.0  0.74297  0.76103  0.22303  1.0000
  H   H1561     1.0  0.76491  0.68851  0.08720  1.0000
  C   C895      1.0  0.51787  0.66712  0.14231  1.0000
  C   C896      1.0  0.79940  0.88101  0.19392  1.0000
  H   H1562     1.0  0.57477  0.68779  0.25601  1.0000
  H   H1563     1.0  0.54035  0.68689  0.17407  1.0000
  H   H1564     1.0  0.79649  0.96771  0.05409  1.0000
  C   C897      1.0  0.73533  0.97219  0.11596  1.0000
  H   H1565     1.0  0.82321  0.88985  0.13687  1.0000
  H   H1566     1.0  0.77232  0.70934  0.21905  1.0000
  H   H1567     1.0  0.76884  0.82122  0.19401  1.0000
  C   C898      1.0  0.73171  0.95786  0.06408  1.0000
  H   H1568     1.0  0.75902  0.66416  0.05214  1.0000
  H   H1569     1.0  0.77651  0.70222  0.05903  1.0000
  C   C899      1.0  0.75806  0.68309  0.06178  1.0000
  N   N47       1.0  0.55109  0.67656  0.14897  1.0000
  C   C900      1.0  0.57616  0.65745  0.13973  1.0000
  C   C901      1.0  0.55214  0.66768  0.16665  1.0000
  H   H1570     1.0  0.85382  0.99573  0.16395  1.0000
  C   C902      1.0  0.55552  0.71273  0.14672  1.0000
  C   C903      1.0  0.58791  0.72797  0.15284  1.0000
  C   C904      1.0  0.82463  0.97269  0.18199  1.0000
  H   H1571     1.0  0.51410  0.67807  0.13023  1.0000
  C   C905      1.0  0.58597  0.66030  0.17413  1.0000
  C   C906      1.0  0.58409  0.65826  0.19250  1.0000
  C   C907      1.0  0.59085  0.76368  0.14804  1.0000
  C   C908      1.0  0.60115  0.63968  0.11322  1.0000
  H   H1572     1.0  0.57217  0.63097  0.14183  1.0000
  H   H1573     1.0  0.60118  0.66270  0.14418  1.0000
  H   H1574     1.0  0.73230  0.90099  0.30213  1.0000
  H   H1575     1.0  0.53768  0.64498  0.16871  1.0000
  H   H1576     1.0  0.78220  0.59506  0.10988  1.0000
  H   H1577     1.0  0.93681  0.56310  0.99283  1.0000
  H   H1578     1.0  0.65650  0.60292  0.21398  1.0000
  C   C909      1.0  0.76022  0.68776  0.13278  1.0000
  H   H1579     1.0  0.60922  0.71516  0.14785  1.0000
  H   H1580     1.0  0.58873  0.72749  0.16621  1.0000
  H   H1581     1.0  0.91566  0.74067  0.30968  1.0000
  H   H1582     1.0  0.62598  0.64354  0.11821  1.0000
  H   H1583     1.0  0.55317  0.65812  0.11551  1.0000
  H   H1584     1.0  0.83152  0.94841  0.17727  1.0000
  H   H1585     1.0  0.59454  0.63652  0.16948  1.0000
  H   H1586     1.0  0.60496  0.67845  0.17110  1.0000
  H   H1587     1.0  0.56556  0.63988  0.19616  1.0000
  H   H1588     1.0  0.60800  0.65070  0.19733  1.0000
  H   H1589     1.0  0.72083  0.66305  0.11016  1.0000
  H   H1590     1.0  0.59193  0.76602  0.13471  1.0000
  H   H1591     1.0  0.00039  0.85845  0.26883  1.0000
  N   N48       1.0  0.94915  0.70112  0.31380  1.0000
  H   H1592     1.0  0.85052  0.93458  0.03682  1.0000
  H   H1593     1.0  0.59354  0.61399  0.11518  1.0000
  H   H1594     1.0  0.61906  0.65078  0.26295  1.0000
  H   H1595     1.0  0.51324  0.79648  0.15256  1.0000
  H   H1596     1.0  0.51602  0.64030  0.14037  1.0000
  H   H1597     1.0  0.77152  0.93140  0.01415  1.0000
  C   C910      1.0  0.98406  0.83145  0.28900  1.0000
  C   C911      1.0  0.51901  0.57632  0.15142  1.0000
  H   H1598     1.0  0.58524  0.68805  0.11855  1.0000
  C   C912      1.0  0.98494  0.69593  0.31080  1.0000
  H   H1599     1.0  0.68597  0.53547  0.21417  1.0000
  H   H1600     1.0  0.80233  0.89658  0.15565  1.0000
  C   C913      1.0  0.66735  0.59610  0.22578  1.0000
  H   H1601     1.0  0.70022  0.71411  0.22346  1.0000
  C   C914      1.0  0.82667  0.54419  0.99007  1.0000
  H   H1602     1.0  0.81022  0.78968  0.26132  1.0000
  H   H1603     1.0  0.78285  0.53714  0.13290  1.0000
  H   H1604     1.0  0.99242  0.82145  0.30059  1.0000
  H   H1605     1.0  0.74408  0.70643  0.12755  1.0000
  H   H1606     1.0  0.90390  0.68453  0.30278  1.0000
  C   C915      1.0  0.00175  0.94689  0.28705  1.0000
  S   S216      1.0  0.71815  0.93553  0.12396  1.0000
  H   H1607     1.0  0.73673  0.62525  0.07211  1.0000
  H   H1608     1.0  0.85567  0.97030  0.04961  1.0000
  H   H1609     1.0  0.71684  0.68558  0.20893  1.0000
  H   H1610     1.0  0.92351  0.72534  0.28300  1.0000
  H   H1611     1.0  0.72578  0.62135  0.25314  1.0000
  C   C916      1.0  0.69422  0.69718  0.21334  1.0000
  H   H1612     1.0  0.79120  0.96611  0.22442  1.0000
  C   C917      1.0  0.78554  0.72157  0.20908  1.0000
  H   H1613     1.0  0.93331  0.83341  0.29627  1.0000
  C   C918      1.0  0.97835  0.57932  0.31037  1.0000
  H   H1614     1.0  0.74493  0.77270  0.20262  1.0000
  C   C919      1.0  0.77922  0.52398  0.12167  1.0000
  H   H1615     1.0  0.55271  0.82888  0.13710  1.0000
  H   H1616     1.0  0.65864  0.83302  0.21608  1.0000
  C   C920      1.0  0.98182  0.92961  0.31300  1.0000
  C   C921      1.0  0.70879  0.60111  0.25606  1.0000
  H   H1617     1.0  0.72626  0.54536  0.30133  1.0000
  H   H1618     1.0  0.79147  0.87215  0.18183  1.0000
  H   H1619     1.0  0.64701  0.54506  0.20521  1.0000
  H   H1620     1.0  0.62645  0.56292  0.23174  1.0000
  C   C922      1.0  0.84647  0.98033  0.19652  1.0000
  N   N49       1.0  0.75935  0.81087  0.21917  1.0000
  C   C923      1.0  0.77900  0.60869  0.09841  1.0000
  H   H1621     1.0  0.67062  0.63276  0.26350  1.0000
  C   C924      1.0  0.91790  0.68026  0.27004  1.0000
  C   C925      1.0  0.50613  0.82132  0.14896  1.0000
  H   H1622     1.0  0.96349  0.61033  0.29104  1.0000
  C   C926      1.0  0.73294  0.96551  0.29302  1.0000
  C   C927      1.0  0.93559  0.53617  0.99315  1.0000
  H   H1623     1.0  0.78221  0.70021  0.13779  1.0000
  H   H1624     1.0  0.73016  0.63020  0.12276  1.0000
  H   H1625     1.0  0.69364  0.59304  0.22322  1.0000
  C   C928      1.0  0.75079  0.94679  0.01067  1.0000
  H   H1626     1.0  0.68365  0.71133  0.20331  1.0000
  H   H1627     1.0  0.71785  0.83314  0.20754  1.0000
  H   H1628     1.0  0.80488  0.75957  0.22431  1.0000
  H   H1629     1.0  0.77456  0.56129  0.08608  1.0000
  H   H1630     1.0  0.79103  0.82708  0.26749  1.0000
  C   C929      1.0  0.76539  0.66835  0.07825  1.0000
  H   H1631     1.0  0.75446  0.94632  0.06824  1.0000
  C   C930      1.0  0.66971  0.67124  0.21867  1.0000
  H   H1632     1.0  0.64978  0.51325  0.21989  1.0000
  H   H1633     1.0  0.78431  0.67611  0.11066  1.0000
  C   C931      1.0  0.81720  0.94075  0.14319  1.0000
  H   H1634     1.0  0.83273  0.56940  0.09559  1.0000
  C   C932      1.0  0.66267  0.57498  0.09934  1.0000
  S   S217      1.0  0.71286  0.52246  0.12905  1.0000
  C   C933      1.0  0.72545  0.82485  0.21972  1.0000
  H   H1635     1.0  0.94429  0.86242  0.28102  1.0000
  H   H1636     1.0  0.93743  0.65918  0.29868  1.0000
  H   H1637     1.0  0.73047  0.98250  0.06956  1.0000
  H   H1638     1.0  0.78695  0.87557  0.21878  1.0000
  C   C934      1.0  0.65315  0.56206  0.23001  1.0000
  S   S218      1.0  0.80112  0.89730  0.31620  1.0000
  C   C935      1.0  0.61680  0.65854  0.25019  1.0000
  H   H1639     1.0  0.53605  0.72619  0.15305  1.0000
  H   H1640     1.0  0.99709  0.95418  0.27475  1.0000
  H   H1641     1.0  0.95676  0.75032  0.30514  1.0000
  H   H1642     1.0  0.95695  0.86889  0.30172  1.0000
  C   C936      1.0  0.85087  0.96159  0.03709  1.0000
  H   H1643     1.0  0.57005  0.77767  0.15281  1.0000
  C   C937      1.0  0.78955  0.96323  0.04125  1.0000
  H   H1644     1.0  0.73993  0.80919  0.25356  1.0000
  H   H1645     1.0  0.82527  0.87467  0.19592  1.0000
  H   H1646     1.0  0.75073  0.52494  0.28647  1.0000
  H   H1647     1.0  0.75952  0.77192  0.24737  1.0000
  H   H1648     1.0  0.75297  0.87539  0.20500  1.0000
  S   S219      1.0  0.93832  0.56633  0.31612  1.0000
  H   H1649     1.0  0.96060  0.52692  0.99450  1.0000
  H   H1650     1.0  0.66446  0.55241  0.24111  1.0000
  H   H1651     1.0  0.67763  0.61978  0.08872  1.0000
  H   H1652     1.0  0.79206  0.99649  0.08799  1.0000
  C   C938      1.0  0.80624  0.51527  0.11213  1.0000
  H   H1653     1.0  0.70467  0.93743  0.08411  1.0000
  C   C939      1.0  0.73965  0.64212  0.08261  1.0000
  H   H1654     1.0  0.89144  0.67782  0.27241  1.0000
  C   C940      1.0  0.84404  0.78674  0.30431  1.0000
  H   H1655     1.0  0.78647  0.64529  0.12579  1.0000
  H   H1656     1.0  0.84283  0.99756  0.13719  1.0000
  C   C941      1.0  0.71612  0.91634  0.30962  1.0000
  H   H1657     1.0  0.66749  0.56001  0.11014  1.0000
  C   C942      1.0  0.78736  0.58495  0.08439  1.0000
  C   C943      1.0  0.58145  0.66817  0.24738  1.0000
  H   H1658     1.0  0.77094  0.96469  0.14267  1.0000
  C   C944      1.0  0.77693  0.81643  0.23501  1.0000
  H   H1659     1.0  0.69111  0.91513  0.30453  1.0000
  H   H1660     1.0  0.78035  0.59471  0.07248  1.0000
  H   H1661     1.0  0.92866  0.65563  0.26940  1.0000
  H   H1662     1.0  0.89260  0.53875  0.00835  1.0000
  H   H1663     1.0  0.64591  0.80438  0.23121  1.0000
  C   C945      1.0  0.77790  0.86621  0.20700  1.0000
  H   H1664     1.0  0.80431  0.82140  0.20645  1.0000
  H   H1665     1.0  0.71369  0.58039  0.24783  1.0000
  H   H1666     1.0  0.78203  0.95143  0.16185  1.0000
  C   C946      1.0  0.78660  0.80116  0.26419  1.0000
  H   H1667     1.0  0.92109  0.69209  0.25815  1.0000
  H   H1668     1.0  0.72528  0.84701  0.22745  1.0000
  N   N50       1.0  0.75730  0.97885  0.03759  1.0000
  H   H1669     1.0  0.80318  0.81061  0.23379  1.0000
  H   H1670     1.0  0.77674  0.84262  0.23846  1.0000
  C   C947      1.0  0.68477  0.60516  0.09929  1.0000
  H   H1671     1.0  0.75257  0.95165  0.31642  1.0000
  H   H1672     1.0  0.97765  0.81073  0.28083  1.0000
  H   H1673     1.0  0.67967  0.94916  0.06732  1.0000
  H   H1674     1.0  0.72638  0.96929  0.25990  1.0000
  H   H1675     1.0  0.72350  0.57954  0.08759  1.0000
  H   H1676     1.0  0.73365  0.69439  0.06173  1.0000
  H   H1677     1.0  0.83763  0.60072  0.08059  1.0000
  N   N51       1.0  0.74550  0.62336  0.09791  1.0000
  C   C948      1.0  0.75107  0.98009  0.01966  1.0000
  H   H1678     1.0  0.79826  0.62780  0.09869  1.0000
  C   C949      1.0  0.95284  0.85025  0.29215  1.0000
  C   C950      1.0  0.81869  0.97478  0.03081  1.0000
  C   C951      1.0  0.68245  0.65206  0.23336  1.0000
  C   C952      1.0  0.83078  0.51552  0.99904  1.0000
  H   H1679     1.0  0.73131  0.93345  0.04105  1.0000
  H   H1680     1.0  0.72623  0.57981  0.10900  1.0000
  H   H1681     1.0  0.78158  0.90310  0.13666  1.0000
  H   H1682     1.0  0.61347  0.77446  0.15328  1.0000
  H   H1683     1.0  0.77579  0.96312  0.98900  1.0000
  H   H1684     1.0  0.66512  0.65479  0.20832  1.0000
  C   C953      1.0  0.69720  0.80213  0.22518  1.0000
  H   H1685     1.0  0.70069  0.56949  0.27661  1.0000
  H   H1686     1.0  0.55574  0.93285  0.14694  1.0000
  H   H1687     1.0  0.76685  0.94652  0.09965  1.0000
  C   C954      1.0  0.57718  0.66281  0.12124  1.0000
  H   H1688     1.0  0.70277  0.78965  0.23661  1.0000
  H   H1689     1.0  0.60192  0.64418  0.10003  1.0000
  H   H1690     1.0  0.70774  0.64462  0.23040  1.0000
  H   H1691     1.0  0.68532  0.66953  0.24362  1.0000
  H   H1692     1.0  0.72797  0.93319  0.01343  1.0000
  H   H1693     1.0  0.77598  0.78868  0.27482  1.0000
  H   H1694     1.0  0.64666  0.68370  0.22157  1.0000
  H   H1695     1.0  0.82114  0.94766  0.13040  1.0000
  C   C955      1.0  0.79199  0.96368  0.15105  1.0000
  H   H1696     1.0  0.79722  0.90790  0.19430  1.0000
  C   C956      1.0  0.80526  0.90542  0.14313  1.0000
  C   C957      1.0  0.77012  0.66300  0.11990  1.0000
  H   H1697     1.0  0.70376  0.91257  0.06611  1.0000
  H   H1698     1.0  0.61724  0.63538  0.22633  1.0000
  H   H1699     1.0  0.71613  0.65513  0.08331  1.0000
  C   C958      1.0  0.62655  0.63035  0.23868  1.0000
  H   H1700     1.0  0.66916  0.84009  0.23708  1.0000
  C   C959      1.0  0.94117  0.73700  0.31391  1.0000
  C   C960      1.0  0.75923  0.97020  0.10384  1.0000
  H   H1701     1.0  0.55149  0.84398  0.15760  1.0000
  H   H1702     1.0  0.56483  0.64703  0.24928  1.0000
  H   H1703     1.0  0.70625  0.96801  0.04159  1.0000
  C   C961      1.0  0.74002  0.64481  0.11262  1.0000
  H   H1704     1.0  0.63224  0.68053  0.24858  1.0000
  H   H1705     1.0  0.51558  0.57407  0.13851  1.0000
  H   H1706     1.0  0.55253  0.71914  0.13379  1.0000
  H   H1707     1.0  0.57794  0.68228  0.19780  1.0000
  N   N52       1.0  0.66231  0.62273  0.23817  1.0000
  C   C962      1.0  0.93455  0.70084  0.28320  1.0000
  H   H1708     1.0  0.83050  0.52205  0.11613  1.0000
  C   C963      1.0  0.66586  0.82117  0.22754  1.0000
  H   H1709     1.0  0.69228  0.78330  0.21573  1.0000
  H   H1710     1.0  0.53134  0.86570  0.14162  1.0000
  H   H1711     1.0  0.74737  0.67548  0.14285  1.0000
  H   H1712     1.0  0.82420  0.56723  0.99632  1.0000
  C   C964      1.0  0.75233  0.95138  0.99241  1.0000
  H   H1713     1.0  0.84091  0.94224  0.14961  1.0000
  H   H1714     1.0  0.74416  0.98279  0.17091  1.0000
  C   C965      1.0  0.72863  0.95150  0.31019  1.0000
  C   C966      1.0  0.72115  0.59553  0.09841  1.0000
  H   H1715     1.0  0.73194  0.96663  0.98817  1.0000
  H   H1716     1.0  0.79020  0.65821  0.07762  1.0000
  C   C967      1.0  0.74774  0.51466  0.11691  1.0000
  H   H1717     1.0  0.75488  0.95391  0.28775  1.0000
  H   H1718     1.0  0.65676  0.59270  0.25938  1.0000
  H   H1719     1.0  0.78778  0.93628  0.04005  1.0000
  H   H1720     1.0  0.67976  0.61944  0.11042  1.0000
  H   H1721     1.0  0.57814  0.67733  0.23491  1.0000
  C   C968      1.0  0.82385  0.57830  0.08379  1.0000
  H   H1722     1.0  0.87239  0.98187  0.19283  1.0000
  H   H1723     1.0  0.83137  0.51655  0.01209  1.0000
  H   H1724     1.0  0.82875  0.55936  0.07450  1.0000
  C   C969      1.0  0.65947  0.53755  0.21647  1.0000
  C   C970      1.0  0.51392  0.91605  0.18121  1.0000
  H   H1725     1.0  0.99316  0.70961  0.30003  1.0000
  H   H1726     1.0  0.81590  0.96638  0.01811  1.0000
  H   H1727     1.0  0.88065  0.99119  0.99348  1.0000
  C   C971      1.0  0.73056  0.95913  0.04537  1.0000
  Fe  Fe110     1.0  0.84911  0.87202  0.31811  1.0000
  H   H1728     1.0  0.51783  0.90849  0.19352  1.0000
  H   H1729     1.0  0.77409  0.52234  0.31402  1.0000
  H   H1730     1.0  0.98947  0.66999  0.30768  1.0000
  H   H1731     1.0  0.76891  0.99678  0.01375  1.0000
  H   H1732     1.0  0.71135  0.96594  0.31748  1.0000
  H   H1733     1.0  0.72700  0.99091  0.01710  1.0000
  H   H1734     1.0  0.93024  0.53488  0.01922  1.0000
  H   H1735     1.0  0.82052  0.00159  0.03074  1.0000
  C   C972      1.0  0.91663  0.52676  0.00828  1.0000
  H   H1736     1.0  0.79936  0.97070  0.18640  1.0000
  H   H1737     1.0  0.84379  0.96073  0.20558  1.0000
  C   C973      1.0  0.82862  0.99869  0.16862  1.0000
  N   N53       1.0  0.80413  0.99769  0.15493  1.0000
  H   H1738     1.0  0.69523  0.99730  0.26534  1.0000
  H   H1739     1.0  0.78617  0.99933  0.29950  1.0000
  C   C974      1.0  0.72108  0.99547  0.26171  1.0000
  H   H1740     1.0  0.68336  0.00017  0.29488  1.0000
  H   H1741     1.0  0.76925  0.00130  0.27184  1.0000
  H   H1742     1.0  0.71004  0.99958  0.23619  1.0000
  C   C975      1.0  0.73489  0.52124  0.29715  1.0000
  N   N54       1.0  0.73592  0.00211  0.29198  1.0000
  H   H1743     1.0  0.75067  0.92735  0.98621  1.0000
  H   H1744     1.0  0.95061  0.98537  0.98632  1.0000
  C   C976      1.0  0.72591  0.00301  0.12130  1.0000
  C   C977      1.0  0.75389  0.50543  0.31077  1.0000
  C   C978      1.0  0.85854  0.00421  0.99097  1.0000
  H   H1745     1.0  0.83933  0.00366  0.20229  1.0000
  H   H1746     1.0  0.71348  0.50600  0.29365  1.0000
  H   H1747     1.0  0.64212  0.82158  0.61584  1.0000
  H   H1748     1.0  0.60782  0.99285  0.48161  1.0000
  C   C979      1.0  0.81026  0.93547  0.38216  1.0000
  H   H1749     1.0  0.96374  0.80158  0.32290  1.0000
  C   C980      1.0  0.51380  0.90373  0.52397  1.0000
  S   S220      1.0  0.77797  0.56737  0.34098  1.0000
  Fe  Fe111     1.0  0.67627  0.57860  0.53573  1.0000
  S   S221      1.0  0.66595  0.53788  0.55281  1.0000
  S   S222      1.0  0.68797  0.57178  0.50894  1.0000
  Fe  Fe112     1.0  0.66165  0.63174  0.56126  1.0000
  S   S223      1.0  0.64926  0.59388  0.58010  1.0000
  S   S224      1.0  0.65278  0.68511  0.56860  1.0000
  Fe  Fe113     1.0  0.69380  0.56707  0.57158  1.0000
  S   S225      1.0  0.73532  0.54950  0.58824  1.0000
  Fe  Fe114     1.0  0.62250  0.56751  0.56004  1.0000
  S   S226      1.0  0.57378  0.54112  0.55840  1.0000
  S   S227      1.0  0.70761  0.60650  0.55376  1.0000
  S   S228      1.0  0.63146  0.60680  0.54197  1.0000
  Fe  Fe115     1.0  0.67518  0.87750  0.55081  1.0000
  S   S229      1.0  0.66622  0.89920  0.57540  1.0000
  S   S230      1.0  0.69750  0.82744  0.54585  1.0000
  Fe  Fe116     1.0  0.64966  0.93896  0.53344  1.0000
  S   S231      1.0  0.63829  0.96415  0.55699  1.0000
  S   S232      1.0  0.63032  0.95989  0.50978  1.0000
  Fe  Fe117     1.0  0.68708  0.94604  0.56567  1.0000
  C   C981      1.0  0.77559  0.95923  0.46033  1.0000
  Fe  Fe118     1.0  0.61863  0.91552  0.56475  1.0000
  S   S233      1.0  0.57130  0.90257  0.57724  1.0000
  S   S234      1.0  0.69940  0.92338  0.54145  1.0000
  S   S235      1.0  0.62669  0.89133  0.54080  1.0000
  S   S236      1.0  0.85558  0.82451  0.33150  1.0000
  C   C982      1.0  0.71993  0.98503  0.35915  1.0000
  C   C983      1.0  0.52337  0.63488  0.54595  1.0000
  Fe  Fe119     1.0  0.82843  0.94328  0.32260  1.0000
  C   C984      1.0  0.94290  0.75523  0.33039  1.0000
  N   N55       1.0  0.52233  0.93316  0.51394  1.0000
  H   H1750     1.0  0.92193  0.74760  0.33798  1.0000
  H   H1751     1.0  0.50807  0.60350  0.59715  1.0000
  H   H1752     1.0  0.79173  0.53935  0.60810  1.0000
  H   H1753     1.0  0.00164  0.54996  0.32836  1.0000
  H   H1754     1.0  0.75118  0.57536  0.52829  1.0000
  C   C985      1.0  0.53470  0.92216  0.57232  1.0000
  H   H1755     1.0  0.77256  0.86743  0.64781  1.0000
  C   C986      1.0  0.53414  0.95531  0.56875  1.0000
  H   H1756     1.0  0.71727  0.96049  0.39451  1.0000
  H   H1757     1.0  0.55662  0.96930  0.56869  1.0000
  C   C987      1.0  0.69120  0.54050  0.63564  1.0000
  H   H1758     1.0  0.79963  0.51238  0.44781  1.0000
  C   C988      1.0  0.84871  0.72776  0.32093  1.0000
  C   C989      1.0  0.65680  0.95791  0.40530  1.0000
  H   H1759     1.0  0.57257  0.67492  0.54201  1.0000
  H   H1760     1.0  0.57571  0.74163  0.52615  1.0000
  H   H1761     1.0  0.94919  0.69707  0.33998  1.0000
  C   C990      1.0  0.66423  0.72424  0.56118  1.0000
  C   C991      1.0  0.68827  0.72860  0.54946  1.0000
  C   C992      1.0  0.69763  0.76029  0.54468  1.0000
  C   C993      1.0  0.68279  0.78802  0.55132  1.0000
  C   C994      1.0  0.65799  0.78361  0.56263  1.0000
  C   C995      1.0  0.64908  0.75198  0.56765  1.0000
  H   H1762     1.0  0.70017  0.70762  0.54433  1.0000
  H   H1763     1.0  0.71678  0.76334  0.53588  1.0000
  H   H1764     1.0  0.64600  0.80458  0.56766  1.0000
  H   H1765     1.0  0.63031  0.74898  0.57665  1.0000
  C   C996      1.0  0.68452  0.53466  0.49792  1.0000
  H   H1766     1.0  0.93830  0.60929  0.34780  1.0000
  C   C997      1.0  0.53310  0.66865  0.57000  1.0000
  H   H1767     1.0  0.74194  0.56769  0.40214  1.0000
  C   C998      1.0  0.61887  0.53911  0.44003  1.0000
  C   C999      1.0  0.53744  0.55668  0.56650  1.0000
  C   C1000     1.0  0.53749  0.57668  0.58023  1.0000
  C   C1001     1.0  0.51203  0.63044  0.52819  1.0000
  H   H1768     1.0  0.56025  0.58273  0.58620  1.0000
  H   H1769     1.0  0.60631  0.72525  0.53947  1.0000
  C   C1002     1.0  0.77066  0.53561  0.35510  1.0000
  H   H1770     1.0  0.00162  0.69554  0.33625  1.0000
  C   C1003     1.0  0.85019  0.78730  0.32090  1.0000
  C   C1004     1.0  0.50766  0.54798  0.55921  1.0000
  H   H1771     1.0  0.74109  0.53091  0.55186  1.0000
  H   H1772     1.0  0.79747  0.51703  0.52852  1.0000
  H   H1773     1.0  0.67329  0.52973  0.40009  1.0000
  C   C1005     1.0  0.78028  0.53348  0.53473  1.0000
  H   H1774     1.0  0.58788  0.00226  0.53428  1.0000
  H   H1775     1.0  0.96545  0.75011  0.33716  1.0000
  H   H1776     1.0  0.81629  0.91098  0.38675  1.0000
  C   C1006     1.0  0.59026  0.53524  0.50624  1.0000
  H   H1777     1.0  0.78917  0.57231  0.51767  1.0000
  H   H1778     1.0  0.54790  0.62384  0.54667  1.0000
  C   C1007     1.0  0.93490  0.63605  0.34741  1.0000
  C   C1008     1.0  0.54335  0.92188  0.50001  1.0000
  H   H1779     1.0  0.78905  0.51143  0.40817  1.0000
  H   H1780     1.0  0.73299  0.52547  0.40403  1.0000
  C   C1009     1.0  0.74786  0.98285  0.62509  1.0000
  C   C1010     1.0  0.94097  0.79201  0.32827  1.0000
  C   C1011     1.0  0.67598  0.55519  0.40455  1.0000
  C   C1012     1.0  0.76825  0.55815  0.52250  1.0000
  H   H1781     1.0  0.61879  0.56483  0.43607  1.0000
  H   H1782     1.0  0.78881  0.55878  0.39059  1.0000
  C   C1013     1.0  0.94411  0.64848  0.33069  1.0000
  H   H1783     1.0  0.81375  0.53147  0.42267  1.0000
  H   H1784     1.0  0.77340  0.93232  0.46099  1.0000
  H   H1785     1.0  0.69850  0.96948  0.35909  1.0000
  H   H1786     1.0  0.52186  0.83582  0.52863  1.0000
  S   S237      1.0  0.87597  0.91722  0.32663  1.0000
  C   C1014     1.0  0.55694  0.72346  0.54904  1.0000
  H   H1787     1.0  0.64173  0.53487  0.44683  1.0000
  N   N56       1.0  0.75005  0.96690  0.41490  1.0000
  C   C1015     1.0  0.56736  0.92992  0.47209  1.0000
  H   H1788     1.0  0.65849  0.96646  0.39266  1.0000
  C   C1016     1.0  0.74803  0.97503  0.35076  1.0000
  H   H1789     1.0  0.55310  0.84040  0.54387  1.0000
  H   H1790     1.0  0.65417  0.93100  0.40526  1.0000
  C   C1017     1.0  0.58358  0.73956  0.53893  1.0000
  H   H1791     1.0  0.82982  0.95310  0.38561  1.0000
  H   H1792     1.0  0.56742  0.53795  0.44333  1.0000
  H   H1793     1.0  0.92005  0.79837  0.32045  1.0000
  C   C1018     1.0  0.68510  0.98902  0.49602  1.0000
  H   H1794     1.0  0.74472  0.58222  0.43939  1.0000
  H   H1795     1.0  0.59204  0.93399  0.47733  1.0000
  H   H1796     1.0  0.56560  0.72360  0.56172  1.0000
  H   H1797     1.0  0.76875  0.59733  0.42348  1.0000
  H   H1798     1.0  0.56556  0.98869  0.50727  1.0000
  H   H1799     1.0  0.69436  0.54131  0.42775  1.0000
  C   C1019     1.0  0.79533  0.51546  0.36075  1.0000
  H   H1800     1.0  0.56944  0.92150  0.50374  1.0000
  C   C1020     1.0  0.54093  0.95689  0.52456  1.0000
  H   H1801     1.0  0.80341  0.63198  0.44153  1.0000
  H   H1802     1.0  0.79726  0.96719  0.46744  1.0000
  C   C1021     1.0  0.54928  0.68844  0.54280  1.0000
  H   H1803     1.0  0.81914  0.57413  0.43832  1.0000
  H   H1804     1.0  0.61272  0.53489  0.51374  1.0000
  H   H1805     1.0  0.61816  0.52315  0.42913  1.0000
  H   H1806     1.0  0.77588  0.62078  0.45765  1.0000
  H   H1807     1.0  0.53503  0.73885  0.54830  1.0000
  H   H1808     1.0  0.69189  0.55780  0.47496  1.0000
  C   C1022     1.0  0.68806  0.53489  0.48103  1.0000
  C   C1023     1.0  0.85268  0.75771  0.32918  1.0000
  C   C1024     1.0  0.77693  0.94711  0.40746  1.0000
  H   H1809     1.0  0.61401  0.51465  0.48573  1.0000
  C   C1025     1.0  0.71832  0.95465  0.40761  1.0000
  C   C1026     1.0  0.63385  0.99667  0.48228  1.0000
  C   C1027     1.0  0.54306  0.88457  0.53076  1.0000
  H   H1810     1.0  0.92924  0.63471  0.32174  1.0000
  C   C1028     1.0  0.70193  0.55752  0.41780  1.0000
  H   H1811     1.0  0.54106  0.69103  0.53008  1.0000
  H   H1812     1.0  0.59066  0.54949  0.46109  1.0000
  C   C1029     1.0  0.83915  0.55034  0.39521  1.0000
  C   C1030     1.0  0.58928  0.53244  0.45066  1.0000
  H   H1813     1.0  0.77496  0.92132  0.41143  1.0000
  H   H1814     1.0  0.91113  0.68912  0.33074  1.0000
  S   S238      1.0  0.81200  0.98434  0.33980  1.0000
  H   H1815     1.0  0.74314  0.93428  0.43495  1.0000
  H   H1816     1.0  0.71656  0.92763  0.40840  1.0000
  C   C1031     1.0  0.73282  0.97487  0.61015  1.0000
  S   S239      1.0  0.85879  0.61692  0.32494  1.0000
  H   H1817     1.0  0.79301  0.83123  0.64109  1.0000
  H   H1818     1.0  0.83930  0.52481  0.39073  1.0000
  H   H1819     1.0  0.97010  0.64277  0.32876  1.0000
  C   C1032     1.0  0.77749  0.94653  0.38872  1.0000
  H   H1820     1.0  0.80159  0.95885  0.43801  1.0000
  C   C1033     1.0  0.54123  0.94095  0.48396  1.0000
  C   C1034     1.0  0.50532  0.90438  0.57267  1.0000
  H   H1821     1.0  0.69303  0.53686  0.62238  1.0000
  H   H1822     1.0  0.56487  0.94669  0.52811  1.0000
  C   C1035     1.0  0.77036  0.84549  0.63993  1.0000
  H   H1823     1.0  0.63468  0.96850  0.41080  1.0000
  H   H1824     1.0  0.71964  0.54651  0.35690  1.0000
  H   H1825     1.0  0.68308  0.95969  0.42749  1.0000
  H   H1826     1.0  0.56131  0.87892  0.52137  1.0000
  N   N57       1.0  0.52439  0.66938  0.55230  1.0000
  H   H1827     1.0  0.85012  0.70511  0.32741  1.0000
  H   H1828     1.0  0.51721  0.93639  0.47814  1.0000
  C   C1036     1.0  0.56068  0.50813  0.48264  1.0000
  H   H1829     1.0  0.58828  0.55981  0.50089  1.0000
  C   C1037     1.0  0.56811  0.65760  0.57403  1.0000
  H   H1830     1.0  0.50775  0.61934  0.55370  1.0000
  C   C1038     1.0  0.57465  0.65905  0.59218  1.0000
  C   C1039     1.0  0.93780  0.68541  0.32923  1.0000
  H   H1831     1.0  0.77232  0.97084  0.38376  1.0000
  H   H1832     1.0  0.58635  0.67349  0.56823  1.0000
  H   H1833     1.0  0.57233  0.63235  0.56986  1.0000
  H   H1834     1.0  0.75574  0.54556  0.51226  1.0000
  C   C1040     1.0  0.77660  0.51775  0.60913  1.0000
  H   H1835     1.0  0.69895  0.97912  0.50591  1.0000
  H   H1836     1.0  0.59980  0.65077  0.59463  1.0000
  H   H1837     1.0  0.57248  0.68439  0.59676  1.0000
  H   H1838     1.0  0.55736  0.64299  0.59872  1.0000
  N   N58       1.0  0.74929  0.83265  0.59434  1.0000
  C   C1041     1.0  0.76347  0.82607  0.61080  1.0000
  C   C1042     1.0  0.75472  0.80346  0.58353  1.0000
  C   C1043     1.0  0.76823  0.86096  0.58730  1.0000
  C   C1044     1.0  0.71367  0.84130  0.59494  1.0000
  C   C1045     1.0  0.69249  0.82478  0.60813  1.0000
  C   C1046     1.0  0.76525  0.85588  0.62246  1.0000
  C   C1047     1.0  0.75998  0.87000  0.56962  1.0000
  C   C1048     1.0  0.73796  0.77109  0.58842  1.0000
  C   C1049     1.0  0.75130  0.74249  0.57869  1.0000
  C   C1050     1.0  0.65669  0.83374  0.60633  1.0000
  H   H1839     1.0  0.55426  0.53359  0.47964  1.0000
  C   C1051     1.0  0.77654  0.90203  0.56493  1.0000
  H   H1840     1.0  0.78873  0.81677  0.60961  1.0000
  H   H1841     1.0  0.74990  0.80635  0.61696  1.0000
  H   H1842     1.0  0.74548  0.80801  0.57114  1.0000
  H   H1843     1.0  0.78133  0.79915  0.58226  1.0000
  H   H1844     1.0  0.79488  0.85632  0.58788  1.0000
  H   H1845     1.0  0.76419  0.88347  0.59455  1.0000
  H   H1846     1.0  0.71095  0.86793  0.59700  1.0000
  H   H1847     1.0  0.70195  0.83614  0.58302  1.0000
  H   H1848     1.0  0.70027  0.83294  0.62035  1.0000
  H   H1849     1.0  0.69403  0.79800  0.60769  1.0000
  H   H1850     1.0  0.78613  0.87191  0.61916  1.0000
  H   H1851     1.0  0.74282  0.87055  0.62183  1.0000
  H   H1852     1.0  0.73342  0.87280  0.56796  1.0000
  H   H1853     1.0  0.76870  0.85113  0.56107  1.0000
  H   H1854     1.0  0.74146  0.76532  0.60131  1.0000
  H   H1855     1.0  0.71150  0.77234  0.58579  1.0000
  H   H1856     1.0  0.75016  0.74743  0.56556  1.0000
  H   H1857     1.0  0.77694  0.73784  0.58214  1.0000
  H   H1858     1.0  0.73651  0.72024  0.58111  1.0000
  H   H1859     1.0  0.64707  0.82572  0.59440  1.0000
  C   C1052     1.0  0.77926  0.97010  0.44283  1.0000
  H   H1860     1.0  0.65361  0.86045  0.60760  1.0000
  H   H1861     1.0  0.73762  0.52826  0.44484  1.0000
  H   H1862     1.0  0.52939  0.69290  0.57574  1.0000
  H   H1863     1.0  0.70223  0.58296  0.42241  1.0000
  H   H1864     1.0  0.76767  0.92233  0.57259  1.0000
  H   H1865     1.0  0.80336  0.90035  0.56621  1.0000
  H   H1866     1.0  0.77075  0.90761  0.55216  1.0000
  Fe  Fe120     1.0  0.81709  0.58075  0.32216  1.0000
  S   S240      1.0  0.72587  0.98084  0.57661  1.0000
  H   H1867     1.0  0.93754  0.80401  0.34020  1.0000
  C   C1053     1.0  0.74667  0.51612  0.60077  1.0000
  C   C1054     1.0  0.50794  0.58823  0.58646  1.0000
  H   H1868     1.0  0.96184  0.92329  0.32088  1.0000
  H   H1869     1.0  0.55081  0.98292  0.43718  1.0000
  H   H1870     1.0  0.66519  0.53819  0.63908  1.0000
  H   H1871     1.0  0.56563  0.94408  0.46079  1.0000
  H   H1872     1.0  0.56419  0.90368  0.46910  1.0000
  C   C1055     1.0  0.73894  0.53104  0.36112  1.0000
  C   C1056     1.0  0.75262  0.51819  0.43485  1.0000
  C   C1057     1.0  0.79313  0.53539  0.41430  1.0000
  H   H1873     1.0  0.58901  0.76436  0.54373  1.0000
  C   C1058     1.0  0.59212  0.50914  0.49301  1.0000
  H   H1874     1.0  0.81904  0.61534  0.45999  1.0000
  H   H1875     1.0  0.65216  0.56304  0.40938  1.0000
  H   H1876     1.0  0.54421  0.96747  0.48579  1.0000
  H   H1877     1.0  0.72876  0.97446  0.43853  1.0000
  H   H1878     1.0  0.68819  0.99548  0.41527  1.0000
  C   C1059     1.0  0.65147  0.98350  0.49522  1.0000
  H   H1879     1.0  0.78223  0.99697  0.44311  1.0000
  H   H1880     1.0  0.55523  0.89903  0.54046  1.0000
  C   C1060     1.0  0.50929  0.59441  0.52362  1.0000
  H   H1881     1.0  0.74821  0.95172  0.34465  1.0000
  H   H1882     1.0  0.80689  0.58472  0.40592  1.0000
  H   H1883     1.0  0.53723  0.89620  0.49661  1.0000
  H   H1884     1.0  0.53252  0.58178  0.52609  1.0000
  H   H1885     1.0  0.80913  0.93420  0.36876  1.0000
  H   H1886     1.0  0.95066  0.64756  0.35682  1.0000
  C   C1061     1.0  0.74407  0.98899  0.59587  1.0000
  H   H1887     1.0  0.79410  0.54707  0.54424  1.0000
  H   H1888     1.0  0.85743  0.55325  0.40504  1.0000
  H   H1889     1.0  0.81994  0.51904  0.35651  1.0000
  H   H1890     1.0  0.79159  0.56305  0.45446  1.0000
  C   C1062     1.0  0.73587  0.54850  0.41105  1.0000
  C   C1063     1.0  0.76686  0.57693  0.43218  1.0000
  C   C1064     1.0  0.79565  0.57967  0.44418  1.0000
  H   H1891     1.0  0.70022  0.56545  0.63858  1.0000
  C   C1065     1.0  0.53197  0.85234  0.53811  1.0000
  H   H1892     1.0  0.85735  0.75800  0.34203  1.0000
  H   H1893     1.0  0.80120  0.95541  0.41179  1.0000
  C   C1066     1.0  0.79856  0.61409  0.45122  1.0000
  N   N59       1.0  0.76278  0.54491  0.42334  1.0000
  H   H1894     1.0  0.52540  0.51902  0.45670  1.0000
  C   C1067     1.0  0.80532  0.55944  0.40123  1.0000
  H   H1895     1.0  0.73881  0.97192  0.63605  1.0000
  H   H1896     1.0  0.75854  0.92935  0.38402  1.0000
  H   H1897     1.0  0.90902  0.64123  0.35010  1.0000
  C   C1068     1.0  0.68684  0.96858  0.41502  1.0000
  H   H1898     1.0  0.71243  0.95800  0.60971  1.0000
  C   C1069     1.0  0.54837  0.99080  0.51745  1.0000
  H   H1899     1.0  0.71557  0.90635  0.32203  1.0000
  H   H1900     1.0  0.50740  0.53206  0.54874  1.0000
  H   H1901     1.0  0.68252  0.57112  0.39426  1.0000
  H   H1902     1.0  0.52786  0.96054  0.53607  1.0000
  C   C1070     1.0  0.74875  0.96050  0.43281  1.0000
  H   H1903     1.0  0.84626  0.56650  0.38511  1.0000
  H   H1904     1.0  0.56911  0.53067  0.51427  1.0000
  H   H1905     1.0  0.75370  0.97027  0.46587  1.0000
  H   H1906     1.0  0.73196  0.51101  0.53355  1.0000
  H   H1907     1.0  0.74933  0.83063  0.64414  1.0000
  H   H1908     1.0  0.51638  0.65194  0.57652  1.0000
  H   H1909     1.0  0.52983  0.64184  0.51987  1.0000
  H   H1910     1.0  0.51323  0.85643  0.54749  1.0000
  H   H1911     1.0  0.78157  0.51003  0.57025  1.0000
  C   C1071     1.0  0.75363  0.00299  0.41175  1.0000
  H   H1912     1.0  0.68981  0.50612  0.45902  1.0000
  C   C1072     1.0  0.77591  0.99495  0.35055  1.0000
  C   C1073     1.0  0.68689  0.50570  0.47196  1.0000
  C   C1074     1.0  0.75171  0.51433  0.54260  1.0000
  H   H1913     1.0  0.50556  0.87885  0.57572  1.0000
  C   C1075     1.0  0.73186  0.50665  0.37253  1.0000
  H   H1914     1.0  0.52597  0.00300  0.51336  1.0000
  H   H1915     1.0  0.73701  0.51812  0.64014  1.0000
  C   C1076     1.0  0.71160  0.51515  0.64431  1.0000
  C   C1077     1.0  0.67934  0.50493  0.50561  1.0000
  H   H1916     1.0  0.67592  0.50453  0.51850  1.0000
  Fe  Fe121     1.0  0.82240  0.63968  0.90874  1.0000
  S   S241      1.0  0.85312  0.61092  0.89139  1.0000
  S   S242      1.0  0.80381  0.68832  0.89949  1.0000
  Fe  Fe122     1.0  0.83052  0.58843  0.93559  1.0000
  S   S243      1.0  0.86256  0.55747  0.92014  1.0000
  S   S244      1.0  0.82080  0.58011  0.96236  1.0000
  Fe  Fe123     1.0  0.88663  0.60437  0.91263  1.0000
  S   S245      1.0  0.93852  0.62380  0.91392  1.0000
  Fe  Fe124     1.0  0.82580  0.56664  0.90022  1.0000
  S   S246      1.0  0.80821  0.52102  0.88618  1.0000
  S   S247      1.0  0.85685  0.63490  0.92939  1.0000
  S   S248      1.0  0.79255  0.59577  0.91628  1.0000
  Fe  Fe125     1.0  0.88269  0.93516  0.90697  1.0000
  S   S249      1.0  0.87939  0.91118  0.93087  1.0000
  S   S250      1.0  0.93029  0.94607  0.89418  1.0000
  Fe  Fe126     1.0  0.80924  0.94248  0.90454  1.0000
  S   S251      1.0  0.80096  0.91861  0.92892  1.0000
  S   S252      1.0  0.76726  0.95458  0.88714  1.0000
  Fe  Fe127     1.0  0.84343  0.94969  0.93759  1.0000
  H   H1917     1.0  0.66536  0.98476  0.88372  1.0000
  Fe  Fe128     1.0  0.83772  0.88163  0.92069  1.0000
  S   S253      1.0  0.84023  0.82861  0.92908  1.0000
  H   H1918     1.0  0.75168  0.58149  0.88716  1.0000
  S   S254      1.0  0.84352  0.90333  0.89599  1.0000
  H   H1919     1.0  0.91683  0.80841  0.91916  1.0000
  C   C1078     1.0  0.66204  0.53464  0.87742  1.0000
  C   C1079     1.0  0.64050  0.00339  0.83554  1.0000
  H   H1920     1.0  0.97131  0.50897  0.93461  1.0000
  H   H1921     1.0  0.99710  0.96351  0.88771  1.0000
  H   H1922     1.0  0.81021  0.96440  0.82237  1.0000
  H   H1923     1.0  0.94894  0.93192  0.83505  1.0000
  C   C1080     1.0  0.96714  0.93454  0.90350  1.0000
  C   C1081     1.0  0.84173  0.99822  0.97641  1.0000
  C   C1082     1.0  0.96723  0.91325  0.91655  1.0000
  C   C1083     1.0  0.66190  0.51858  0.86073  1.0000
  H   H1924     1.0  0.94466  0.90304  0.92091  1.0000
  H   H1925     1.0  0.79665  0.92014  0.83597  1.0000
  H   H1926     1.0  0.00323  0.52501  0.90511  1.0000
  C   C1084     1.0  0.65126  0.00114  0.90712  1.0000
  H   H1927     1.0  0.66297  0.51435  0.91306  1.0000
  H   H1928     1.0  0.73318  0.53116  0.69256  1.0000
  H   H1929     1.0  0.91520  0.83607  0.88481  1.0000
  C   C1085     1.0  0.75139  0.53083  0.84570  1.0000
  C   C1086     1.0  0.77202  0.53821  0.85895  1.0000
  H   H1930     1.0  0.74506  0.54989  0.83738  1.0000
  H   H1931     1.0  0.78165  0.56262  0.86063  1.0000
  C   C1087     1.0  0.81388  0.72726  0.90784  1.0000
  C   C1088     1.0  0.80901  0.75536  0.89858  1.0000
  C   C1089     1.0  0.81665  0.78665  0.90484  1.0000
  C   C1090     1.0  0.82890  0.79018  0.92054  1.0000
  C   C1091     1.0  0.83336  0.76209  0.92984  1.0000
  C   C1092     1.0  0.82624  0.73085  0.92351  1.0000
  H   H1932     1.0  0.79928  0.75290  0.88648  1.0000
  H   H1933     1.0  0.81295  0.80798  0.89755  1.0000
  H   H1934     1.0  0.84249  0.76453  0.94205  1.0000
  H   H1935     1.0  0.82970  0.70957  0.93087  1.0000
  C   C1093     1.0  0.97443  0.60078  0.91307  1.0000
  H   H1936     1.0  0.72576  0.96058  0.85940  1.0000
  C   C1094     1.0  0.97404  0.56758  0.90927  1.0000
  H   H1937     1.0  0.62909  0.95251  0.83007  1.0000
  H   H1938     1.0  0.95116  0.55517  0.90685  1.0000
  H   H1939     1.0  0.64045  0.52523  0.88400  1.0000
  C   C1095     1.0  0.82573  0.54329  0.97309  1.0000
  H   H1940     1.0  0.92073  0.93193  0.95761  1.0000
  C   C1096     1.0  0.73073  0.53520  0.90966  1.0000
  H   H1941     1.0  0.91675  0.91878  0.82159  1.0000
  H   H1942     1.0  0.86628  0.67952  0.87792  1.0000
  H   H1943     1.0  0.83778  0.90526  0.83483  1.0000
  H   H1944     1.0  0.77855  0.52958  0.78224  1.0000
  C   C1097     1.0  0.90789  0.83535  0.89769  1.0000
  H   H1945     1.0  0.96541  0.74652  0.88877  1.0000
  H   H1946     1.0  0.75130  0.53891  0.90132  1.0000
  H   H1947     1.0  0.68074  0.53008  0.85302  1.0000
  H   H1948     1.0  0.66360  0.99180  0.85787  1.0000
  H   H1949     1.0  0.97461  0.76298  0.90795  1.0000
  C   C1098     1.0  0.91699  0.62359  0.96190  1.0000
  H   H1950     1.0  0.63232  0.56561  0.90203  1.0000
  H   H1951     1.0  0.89228  0.70070  0.92949  1.0000
  H   H1952     1.0  0.95022  0.88020  0.96010  1.0000
  H   H1953     1.0  0.89332  0.67773  0.86088  1.0000
  C   C1099     1.0  0.96153  0.74244  0.90188  1.0000
  H   H1954     1.0  0.98457  0.94025  0.97732  1.0000
  H   H1955     1.0  0.67952  0.59285  0.89501  1.0000
  H   H1956     1.0  0.91107  0.69409  0.95731  1.0000
  C   C1100     1.0  0.87099  0.96453  0.83206  1.0000
  H   H1957     1.0  0.79948  0.86597  0.84752  1.0000
  S   S255      1.0  0.84923  0.97584  0.91391  1.0000
  H   H1958     1.0  0.78949  0.00291  0.80178  1.0000
  H   H1959     1.0  0.77594  0.54796  0.67963  1.0000
  N   N60       1.0  0.93501  0.53032  0.96192  1.0000
  N   N61       1.0  0.69916  0.54605  0.90216  1.0000
  C   C1101     1.0  0.81549  0.53587  0.66416  1.0000
  H   H1960     1.0  0.89586  0.73448  0.95457  1.0000
  H   H1961     1.0  0.83131  0.87868  0.86126  1.0000
  C   C1102     1.0  0.73771  0.98394  0.86120  1.0000
  H   H1962     1.0  0.63790  0.52191  0.85482  1.0000
  C   C1103     1.0  0.77914  0.53541  0.66787  1.0000
  C   C1104     1.0  0.75997  0.98800  0.87406  1.0000
  H   H1963     1.0  0.88094  0.83362  0.89845  1.0000
  H   H1964     1.0  0.98250  0.93068  0.95633  1.0000
  H   H1965     1.0  0.99348  0.54331  0.94289  1.0000
  H   H1966     1.0  0.91585  0.85850  0.90358  1.0000
  H   H1967     1.0  0.71008  0.59530  0.91002  1.0000
  H   H1968     1.0  0.92778  0.62994  0.95004  1.0000
  H   H1969     1.0  0.89688  0.73132  0.87388  1.0000
  H   H1970     1.0  0.95025  0.80974  0.90519  1.0000
  H   H1971     1.0  0.79082  0.89509  0.86327  1.0000
  S   S256      1.0  0.85811  0.96962  0.96255  1.0000
  C   C1105     1.0  0.90886  0.58731  0.96255  1.0000
  C   C1106     1.0  0.97999  0.71139  0.90673  1.0000
  C   C1107     1.0  0.99692  0.94708  0.89783  1.0000
  H   H1972     1.0  0.96805  0.68900  0.90193  1.0000
  H   H1973     1.0  0.65948  0.56114  0.87562  1.0000
  C   C1108     1.0  0.90733  0.71460  0.89855  1.0000
  H   H1974     1.0  0.65032  0.58731  0.91881  1.0000
  H   H1975     1.0  0.91546  0.69124  0.90369  1.0000
  H   H1976     1.0  0.89104  0.58193  0.95279  1.0000
  H   H1977     1.0  0.97072  0.96870  0.93671  1.0000
  H   H1978     1.0  0.82435  0.56141  0.66320  1.0000
  H   H1979     1.0  0.88109  0.71606  0.90178  1.0000
  C   C1109     1.0  0.91600  0.71205  0.93292  1.0000
  C   C1110     1.0  0.91314  0.51849  0.94839  1.0000
  H   H1980     1.0  0.95420  0.88689  0.98170  1.0000
  C   C1111     1.0  0.80957  0.88695  0.85452  1.0000
  C   C1112     1.0  0.93980  0.56659  0.96026  1.0000
  H   H1981     1.0  0.93526  0.69439  0.93009  1.0000
  H   H1982     1.0  0.94074  0.75873  0.92987  1.0000
  H   H1983     1.0  0.85011  0.93653  0.86104  1.0000
  H   H1984     1.0  0.91751  0.77522  0.88553  1.0000
  C   C1113     1.0  0.63912  0.00019  0.85416  1.0000
  H   H1985     1.0  0.88821  0.52806  0.95008  1.0000
  H   H1986     1.0  0.89818  0.75850  0.92677  1.0000
  H   H1987     1.0  0.90451  0.65810  0.87941  1.0000
  C   C1114     1.0  0.91561  0.71755  0.95118  1.0000
  H   H1988     1.0  0.93935  0.72766  0.95542  1.0000
  H   H1989     1.0  0.71407  0.54497  0.66621  1.0000
  H   H1990     1.0  0.72308  0.54971  0.78223  1.0000
  H   H1991     1.0  0.70773  0.64012  0.88143  1.0000
  H   H1992     1.0  0.70781  0.51254  0.79073  1.0000
  C   C1115     1.0  0.72694  0.52308  0.78285  1.0000
  C   C1116     1.0  0.92352  0.80662  0.90622  1.0000
  H   H1993     1.0  0.76704  0.54988  0.65840  1.0000
  H   H1994     1.0  0.88470  0.77306  0.89945  1.0000
  C   C1117     1.0  0.69330  0.52650  0.88694  1.0000
  H   H1995     1.0  0.82723  0.51221  0.95215  1.0000
  C   C1118     1.0  0.90186  0.95221  0.84071  1.0000
  H   H1996     1.0  0.64975  0.97409  0.81422  1.0000
  H   H1997     1.0  0.60689  0.00193  0.88203  1.0000
  H   H1998     1.0  0.76160  0.50725  0.93649  1.0000
  C   C1119     1.0  0.95739  0.98440  0.94536  1.0000
  H   H1999     1.0  0.91454  0.88116  0.97262  1.0000
  H   H2000     1.0  0.95895  0.57577  0.96873  1.0000
  C   C1120     1.0  0.90923  0.71090  0.87993  1.0000
  C   C1121     1.0  0.81877  0.91450  0.84308  1.0000
  H   H2001     1.0  0.67374  0.99149  0.91271  1.0000
  H   H2002     1.0  0.93481  0.70987  0.87580  1.0000
  C   C1122     1.0  0.86589  0.99439  0.87044  1.0000
  H   H2003     1.0  0.68216  0.54155  0.92692  1.0000
  H   H2004     1.0  0.71815  0.58271  0.87329  1.0000
  H   H2005     1.0  0.60639  0.52627  0.92092  1.0000
  C   C1123     1.0  0.64840  0.97087  0.82750  1.0000
  H   H2006     1.0  0.67541  0.52061  0.69275  1.0000
  N   N62       1.0  0.84267  0.97341  0.84269  1.0000
  H   H2007     1.0  0.82923  0.52402  0.67401  1.0000
  H   H2008     1.0  0.59524  0.56764  0.92529  1.0000
  C   C1124     1.0  0.89226  0.67961  0.87424  1.0000
  H   H2009     1.0  0.87914  0.98592  0.82498  1.0000
  H   H2010     1.0  0.94914  0.57253  0.94801  1.0000
  H   H2011     1.0  0.92350  0.93884  0.97894  1.0000
  H   H2012     1.0  0.98182  0.70993  0.92004  1.0000
  C   C1125     1.0  0.00429  0.61668  0.91608  1.0000
  C   C1126     1.0  0.92679  0.93988  0.82854  1.0000
  C   C1127     1.0  0.00354  0.55059  0.90825  1.0000
  H   H2013     1.0  0.86337  0.94613  0.82284  1.0000
  H   H2014     1.0  0.74881  0.63464  0.87445  1.0000
  C   C1128     1.0  0.92060  0.74473  0.92391  1.0000
  H   H2015     1.0  0.62181  0.97989  0.85694  1.0000
  C   C1129     1.0  0.73132  0.62849  0.88419  1.0000
  H   H2016     1.0  0.89318  0.52910  0.97780  1.0000
  H   H2017     1.0  0.79189  0.98466  0.83900  1.0000
  H   H2018     1.0  0.67221  0.96180  0.83181  1.0000
  C   C1130     1.0  0.91179  0.77376  0.89861  1.0000
  H   H2019     1.0  0.88579  0.97665  0.86985  1.0000
  H   H2020     1.0  0.74117  0.63863  0.89571  1.0000
  N   N63       1.0  0.92573  0.74323  0.90583  1.0000
  H   H2021     1.0  0.63147  0.98272  0.90851  1.0000
  H   H2022     1.0  0.81077  0.95274  0.86051  1.0000
  C   C1131     1.0  0.97038  0.94474  0.96607  1.0000
  C   C1132     1.0  0.76064  0.51650  0.78985  1.0000
  H   H2023     1.0  0.99638  0.88861  0.93413  1.0000
  H   H2024     1.0  0.93422  0.63064  0.97170  1.0000
  C   C1133     1.0  0.81477  0.98321  0.83188  1.0000
  C   C1134     1.0  0.64276  0.56282  0.91425  1.0000
  C   C1135     1.0  0.72719  0.59155  0.88520  1.0000
  H   H2025     1.0  0.70293  0.52773  0.71972  1.0000
  C   C1136     1.0  0.91911  0.52178  0.97775  1.0000
  H   H2026     1.0  0.62479  0.54791  0.93785  1.0000
  H   H2027     1.0  0.95131  0.51764  0.70744  1.0000
  C   C1137     1.0  0.96785  0.51443  0.96123  1.0000
  N   N64       1.0  0.97078  0.98064  0.96222  1.0000
  C   C1138     1.0  0.70286  0.58202  0.89874  1.0000
  H   H2028     1.0  0.82034  0.52321  0.65253  1.0000
  H   H2029     1.0  0.93390  0.95949  0.82006  1.0000
  C   C1139     1.0  0.78074  0.51382  0.86976  1.0000
  H   H2030     1.0  0.71460  0.52853  0.87876  1.0000
  C   C1140     1.0  0.93632  0.92856  0.96832  1.0000
  C   C1141     1.0  0.99668  0.90500  0.92402  1.0000
  C   C1142     1.0  0.67240  0.53978  0.91435  1.0000
  H   H2031     1.0  0.72442  0.51260  0.77050  1.0000
  H   H2032     1.0  0.90992  0.50693  0.70206  1.0000
  H   H2033     1.0  0.73647  0.55045  0.92053  1.0000
  H   H2034     1.0  0.89638  0.93192  0.84901  1.0000
  H   H2035     1.0  0.92130  0.52854  0.93662  1.0000
  C   C1143     1.0  0.83105  0.94491  0.85261  1.0000
  C   C1144     1.0  0.61572  0.55027  0.92527  1.0000
  H   H2036     1.0  0.84657  0.98398  0.87826  1.0000
  C   C1145     1.0  0.93919  0.89194  0.97086  1.0000
  H   H2037     1.0  0.89427  0.63759  0.96347  1.0000
  C   C1146     1.0  0.82861  0.51332  0.96517  1.0000
  H   H2038     1.0  0.93174  0.97555  0.94469  1.0000
  H   H2039     1.0  0.91370  0.97248  0.84754  1.0000
  H   H2040     1.0  0.89692  0.58272  0.97430  1.0000
  H   H2041     1.0  0.98434  0.52524  0.97054  1.0000
  H   H2042     1.0  0.84322  0.53089  0.76161  1.0000
  C   C1147     1.0  0.98628  0.51758  0.94498  1.0000
  H   H2043     1.0  0.76117  0.52725  0.80216  1.0000
  H   H2044     1.0  0.92367  0.99673  0.97061  1.0000
  C   C1148     1.0  0.94968  0.99795  0.97446  1.0000
  H   H2045     1.0  0.82823  0.51318  0.78908  1.0000
  C   C1149     1.0  0.85137  0.00202  0.85358  1.0000
  C   C1150     1.0  0.70892  0.51911  0.66290  1.0000
  H   H2046     1.0  0.68277  0.51516  0.66581  1.0000
  C   C1151     1.0  0.85018  0.50525  0.75933  1.0000
  H   H2047     1.0  0.80235  0.50724  0.81457  1.0000
  H   H2048     1.0  0.82951  0.50539  0.84186  1.0000
  C   C1152     1.0  0.72620  0.50533  0.69033  1.0000
