data_image0
_chemical_formula_structural       H2C2H8CH2CH2CHCH9FeSHFeS2FeCFeS3FeS2FeSFeSFeNS2H5C3H3C6H5C2H4C3H2CH2CH2C2H2C2NC3HCHCHCH2CHCH7C2H2CH3CHC2H3CH6CH7C2H9CH4C2H3C2HNFeS2FeS2FeSHS2FeS2Fe2SHS2H2C7H3C7H4C3H2C6H4CH3CH4CH3CH5CH3CH2CH2CH3CSCH2SC2H5CFeH2CHCH3CH7FeH2CH5CHCH2CH5CHNCHCHCH3CHC2HNH2CHC2H2SH3C2H4SH3C4H2CH7CHCHFeS2CHFeSFeSH2FeS2CHFeHS2HC7H5C2HFeSHCHC6H2CH2CHCH2CH3CHC3H5NH5C5HSHCH6C2H4CSCHNHFeH3CH3CH2NCH2CH2CHCH2SH2CH9CHCH2FeNHC3HCHCH8SH4CNC4H2SC6H7C2H2C4HCH5CHCH2CH2CH2CH2CNH2SH2C2NH4CH2C2H3CHC3HCH2CH4SHCSHSC2H8C2H2N2SNCHCHC5HC4HCH2SH2CH3CH3CH5CHC3H4C2FeH4C3H2CH3SH2CHC2H2CH2CH2C3H9CH3C2H4CSH2SHCHSHFeS2FeSFeS3FeS2C2FeCHCSC6H6CH4C3H4CHC4HCH4C4H8CSH2C2H2C2H2CH5CHCH5CH2CHNCNC2H2FeHCH2CH2CNCH5FeH2C2H2CH4CH8SC3SH2C2HCHC2HFeS2FeS2Fe2S3HFeSFeS2FeSFeS2C6H5C6H4C6H5C2H2SH4C4H4C2HCH2C3H9CHCH9C3H5SC3H7C2HNHC2HCH4CHNCNC4H11CH4CH2CHC2H6CHCHCH4CSCHNCH4CH5C2HC2H6CH7CH3CHCH2CH2SCHCHFeS2FeSHFeSFeHS2CHFeSFeS2FeHFeS3H3C2H4C6H6CH2CNH2C3H5CH6CH5CH2CHCHCHCH2CHCHCHCH2CH7C2H7CH2CH3CH2C7H2CH6CH5CNCHCH2CHCH3CH2CH2CSH3C2H2CHCH3C2HCH2SH5C2HCHCHCH2CHC2H2CHCH5CHCSH
_chemical_formula_sum              "H768 C432 Fe48 S96 N24"
_cell_length_a       44.9388
_cell_length_b       45.304
_cell_length_c       31.3799
_cell_angle_alpha    90.2797
_cell_angle_beta     89.9212
_cell_angle_gamma    120.277

_space_group_name_H-M_alt    "P 1"
_space_group_IT_number       1

loop_
  _space_group_symop_operation_xyz
  'x, y, z'

loop_
  _atom_site_type_symbol
  _atom_site_label
  _atom_site_symmetry_multiplicity
  _atom_site_fract_x
  _atom_site_fract_y
  _atom_site_fract_z
  _atom_site_occupancy
  H   H1        1.0  0.38676  0.25130  0.31529  1.0000
  H   H2        1.0  0.42934  0.28225  0.29713  1.0000
  C   C1        1.0  0.39207  0.99121  0.50419  1.0000
  C   C2        1.0  0.40962  0.27675  0.32206  1.0000
  H   H3        1.0  0.42575  0.97468  0.17122  1.0000
  H   H4        1.0  0.45989  0.03825  0.16304  1.0000
  H   H5        1.0  0.37866  0.29672  0.34626  1.0000
  H   H6        1.0  0.42033  0.27579  0.35361  1.0000
  H   H7        1.0  0.38818  0.30348  0.29025  1.0000
  H   H8        1.0  0.38642  0.98880  0.46950  1.0000
  H   H9        1.0  0.37292  0.99541  0.52146  1.0000
  H   H10       1.0  0.41810  0.01387  0.50942  1.0000
  C   C3        1.0  0.39920  0.30408  0.32202  1.0000
  H   H11       1.0  0.46293  0.21877  0.11545  1.0000
  H   H12       1.0  0.46278  0.02588  0.10898  1.0000
  C   C4        1.0  0.44978  0.99190  0.02068  1.0000
  H   H13       1.0  0.42433  0.05539  0.92157  1.0000
  H   H14       1.0  0.38753  0.01563  0.90463  1.0000
  C   C5        1.0  0.43680  0.02066  0.88808  1.0000
  H   H15       1.0  0.46243  0.19641  0.91505  1.0000
  C   C6        1.0  0.41400  0.02746  0.91796  1.0000
  H   H16       1.0  0.41250  0.01621  0.94981  1.0000
  H   H17       1.0  0.44496  0.01238  0.01312  1.0000
  H   H18       1.0  0.42520  0.99257  0.88525  1.0000
  H   H19       1.0  0.45517  0.19311  0.77298  1.0000
  H   H20       1.0  0.44966  0.19780  0.99092  1.0000
  H   H21       1.0  0.45396  0.00718  0.80621  1.0000
  H   H22       1.0  0.43630  0.03131  0.85651  1.0000
  H   H23       1.0  0.45290  0.23456  0.96442  1.0000
  H   H24       1.0  0.46311  0.97926  0.86080  1.0000
  Fe  Fe1       1.0  0.16495  0.55496  0.48019  1.0000
  S   S1        1.0  0.12787  0.56970  0.45340  1.0000
  H   H25       1.0  0.04265  0.46581  0.48690  1.0000
  Fe  Fe2       1.0  0.18676  0.54295  0.39173  1.0000
  S   S2        1.0  0.15063  0.55567  0.35756  1.0000
  S   S3        1.0  0.22547  0.52799  0.36834  1.0000
  Fe  Fe3       1.0  0.16968  0.59901  0.40511  1.0000
  C   C7        1.0  0.19987  0.62957  0.26784  1.0000
  Fe  Fe4       1.0  0.11100  0.52514  0.40814  1.0000
  S   S4        1.0  0.05536  0.48120  0.39671  1.0000
  S   S5        1.0  0.20790  0.58813  0.43572  1.0000
  S   S6        1.0  0.14599  0.50874  0.43834  1.0000
  Fe  Fe5       1.0  0.34856  0.56413  0.16913  1.0000
  S   S7        1.0  0.40064  0.58229  0.19811  1.0000
  S   S8        1.0  0.31026  0.57877  0.19520  1.0000
  Fe  Fe6       1.0  0.36738  0.53929  0.08791  1.0000
  S   S9        1.0  0.42073  0.55560  0.11067  1.0000
  Fe  Fe7       1.0  0.39634  0.53321  0.17367  1.0000
  S   S10       1.0  0.41569  0.50662  0.21881  1.0000
  Fe  Fe8       1.0  0.42136  0.60303  0.13352  1.0000
  N   N1        1.0  0.42495  0.36973  0.32885  1.0000
  S   S11       1.0  0.34186  0.51307  0.14959  1.0000
  S   S12       1.0  0.37011  0.58860  0.10551  1.0000
  H   H26       1.0  0.39937  0.58394  0.32467  1.0000
  H   H27       1.0  0.09898  0.50982  0.51685  1.0000
  H   H28       1.0  0.39659  0.62949  0.28327  1.0000
  H   H29       1.0  0.18055  0.62829  0.29103  1.0000
  H   H30       1.0  0.45268  0.34360  0.31245  1.0000
  C   C8        1.0  0.39865  0.36599  0.36150  1.0000
  C   C9        1.0  0.44928  0.48302  0.16563  1.0000
  C   C10       1.0  0.97516  0.50016  0.38983  1.0000
  H   H31       1.0  0.37908  0.39109  0.43159  1.0000
  H   H32       1.0  0.25362  0.51871  0.45650  1.0000
  H   H33       1.0  0.13097  0.57869  0.04193  1.0000
  C   C11       1.0  0.24733  0.54076  0.31888  1.0000
  C   C12       1.0  0.24203  0.56135  0.29049  1.0000
  C   C13       1.0  0.26139  0.57266  0.25263  1.0000
  C   C14       1.0  0.28565  0.56283  0.24234  1.0000
  C   C15       1.0  0.29013  0.54132  0.27003  1.0000
  C   C16       1.0  0.27122  0.53056  0.30826  1.0000
  H   H34       1.0  0.22304  0.56855  0.29786  1.0000
  H   H35       1.0  0.25726  0.58873  0.23097  1.0000
  H   H36       1.0  0.30806  0.53289  0.26192  1.0000
  H   H37       1.0  0.27484  0.51391  0.32941  1.0000
  H   H38       1.0  0.34128  0.59267  0.50963  1.0000
  C   C17       1.0  0.01377  0.47698  0.39153  1.0000
  C   C18       1.0  0.00876  0.50505  0.39282  1.0000
  H   H39       1.0  0.30953  0.59849  0.45728  1.0000
  H   H40       1.0  0.03074  0.53053  0.39609  1.0000
  H   H41       1.0  0.04439  0.59939  0.48059  1.0000
  H   H42       1.0  0.20681  0.53105  0.03803  1.0000
  C   C19       1.0  0.00649  0.45462  0.20712  1.0000
  C   C20       1.0  0.43059  0.33971  0.33263  1.0000
  C   C21       1.0  0.30489  0.51078  0.41100  1.0000
  H   H43       1.0  0.01457  0.46503  0.23991  1.0000
  H   H44       1.0  0.18810  0.62398  0.23556  1.0000
  C   C22       1.0  0.36704  0.39115  0.40071  1.0000
  H   H45       1.0  0.37846  0.39703  0.33395  1.0000
  H   H46       1.0  0.27831  0.49204  0.40028  1.0000
  C   C23       1.0  0.41171  0.37126  0.28520  1.0000
  H   H47       1.0  0.30994  0.61592  0.09896  1.0000
  H   H48       1.0  0.32203  0.51929  0.38277  1.0000
  C   C24       1.0  0.28800  0.61530  0.50691  1.0000
  C   C25       1.0  0.98470  0.44407  0.38662  1.0000
  H   H49       1.0  0.35362  0.56439  0.33560  1.0000
  H   H50       1.0  0.31398  0.49801  0.43330  1.0000
  C   C26       1.0  0.38618  0.63504  0.35069  1.0000
  C   C27       1.0  0.41636  0.37079  0.20467  1.0000
  N   N2        1.0  0.28617  0.55711  0.50275  1.0000
  C   C28       1.0  0.31986  0.57058  0.52658  1.0000
  C   C29       1.0  0.43218  0.36884  0.24691  1.0000
  C   C30       1.0  0.27996  0.52973  0.47058  1.0000
  H   H51       1.0  0.97566  0.48539  0.52953  1.0000
  C   C31       1.0  0.96731  0.43181  0.20458  1.0000
  H   H52       1.0  0.45634  0.41334  0.40415  1.0000
  C   C32       1.0  0.05620  0.58298  0.48153  1.0000
  H   H53       1.0  0.06045  0.57752  0.44823  1.0000
  C   C33       1.0  0.31731  0.63573  0.34044  1.0000
  H   H54       1.0  0.09112  0.45275  0.49645  1.0000
  H   H55       1.0  0.27986  0.50774  0.48599  1.0000
  C   C34       1.0  0.44182  0.48823  0.20736  1.0000
  H   H56       1.0  0.43920  0.49050  0.13913  1.0000
  C   C35       1.0  0.39119  0.39591  0.36372  1.0000
  H   H57       1.0  0.05125  0.52036  0.47234  1.0000
  H   H58       1.0  0.01888  0.43942  0.19898  1.0000
  H   H59       1.0  0.01569  0.47613  0.18427  1.0000
  H   H60       1.0  0.26387  0.57658  0.45764  1.0000
  H   H61       1.0  0.31388  0.60975  0.33858  1.0000
  H   H62       1.0  0.34219  0.36677  0.39709  1.0000
  H   H63       1.0  0.36161  0.41252  0.40117  1.0000
  C   C36       1.0  0.28409  0.63172  0.35948  1.0000
  C   C37       1.0  0.45911  0.40205  0.33613  1.0000
  H   H64       1.0  0.45793  0.42494  0.32599  1.0000
  H   H65       1.0  0.20633  0.60974  0.27653  1.0000
  C   C38       1.0  0.99069  0.47505  0.51360  1.0000
  H   H66       1.0  0.45539  0.57867  0.26226  1.0000
  H   H67       1.0  0.36993  0.61687  0.37602  1.0000
  H   H68       1.0  0.26311  0.62059  0.33552  1.0000
  C   C39       1.0  0.28683  0.58634  0.47886  1.0000
  H   H69       1.0  0.40612  0.36183  0.39378  1.0000
  C   C40       1.0  0.37449  0.58054  0.31303  1.0000
  C   C41       1.0  0.04376  0.47139  0.52169  1.0000
  H   H70       1.0  0.29808  0.55444  0.40850  1.0000
  H   H71       1.0  0.08147  0.59731  0.49805  1.0000
  H   H72       1.0  0.07406  0.54125  0.51969  1.0000
  C   C42       1.0  0.30553  0.54141  0.43262  1.0000
  H   H73       1.0  0.36844  0.56697  0.28195  1.0000
  H   H74       1.0  0.33230  0.55965  0.44283  1.0000
  H   H75       1.0  0.35174  0.61032  0.29477  1.0000
  H   H76       1.0  0.00708  0.53749  0.48844  1.0000
  H   H77       1.0  0.38424  0.35089  0.28137  1.0000
  H   H78       1.0  0.37343  0.34264  0.35481  1.0000
  C   C43       1.0  0.04774  0.52586  0.50607  1.0000
  H   H79       1.0  0.24100  0.60016  0.05857  1.0000
  H   H80       1.0  0.26750  0.58264  0.11486  1.0000
  H   H81       1.0  0.26295  0.55892  0.04260  1.0000
  H   H82       1.0  0.19692  0.62501  0.52943  1.0000
  H   H83       1.0  0.41505  0.42094  0.36815  1.0000
  H   H84       1.0  0.43209  0.34434  0.24677  1.0000
  H   H85       1.0  0.98817  0.42211  0.38556  1.0000
  C   C44       1.0  0.03233  0.54983  0.50509  1.0000
  C   C45       1.0  0.37665  0.61507  0.30773  1.0000
  H   H86       1.0  0.97168  0.52209  0.39116  1.0000
  H   H87       1.0  0.41180  0.39574  0.28127  1.0000
  H   H88       1.0  0.38984  0.34865  0.20109  1.0000
  H   H89       1.0  0.99048  0.48054  0.47902  1.0000
  H   H90       1.0  0.43840  0.33779  0.36563  1.0000
  H   H91       1.0  0.27599  0.61423  0.38719  1.0000
  H   H92       1.0  0.44967  0.48216  0.27377  1.0000
  H   H93       1.0  0.41552  0.39484  0.20270  1.0000
  H   H94       1.0  0.45929  0.39003  0.24796  1.0000
  C   C46       1.0  0.28226  0.60833  0.10007  1.0000
  H   H95       1.0  0.43228  0.37036  0.17781  1.0000
  H   H96       1.0  0.34296  0.54026  0.50511  1.0000
  H   H97       1.0  0.41292  0.64096  0.35797  1.0000
  H   H98       1.0  0.23161  0.53455  0.51473  1.0000
  C   C47       1.0  0.96957  0.43546  0.51598  1.0000
  C   C48       1.0  0.26859  0.60806  0.05536  1.0000
  H   H99       1.0  0.28289  0.63470  0.04347  1.0000
  H   H100      1.0  0.97975  0.42436  0.49238  1.0000
  H   H101      1.0  0.26183  0.60702  0.51940  1.0000
  C   C49       1.0  0.45508  0.47808  0.24137  1.0000
  C   C50       1.0  0.09419  0.46140  0.53018  1.0000
  H   H102      1.0  0.27953  0.62686  0.12059  1.0000
  N   N3        1.0  0.02733  0.49283  0.53034  1.0000
  Fe  Fe9       1.0  0.16668  0.54865  0.84100  1.0000
  S   S13       1.0  0.18379  0.59487  0.79997  1.0000
  S   S14       1.0  0.20336  0.53029  0.85813  1.0000
  Fe  Fe10      1.0  0.09980  0.54619  0.86877  1.0000
  S   S15       1.0  0.11283  0.59279  0.83036  1.0000
  S   S16       1.0  0.05570  0.52272  0.91694  1.0000
  Fe  Fe11      1.0  0.12838  0.56845  0.77893  1.0000
  S   S17       1.0  0.10960  0.57099  0.71263  1.0000
  H   H103      1.0  0.29123  0.56939  0.93899  1.0000
  S   S18       1.0  0.11209  0.52003  0.81605  1.0000
  S   S19       1.0  0.15308  0.57033  0.89706  1.0000
  Fe  Fe12      1.0  0.35646  0.54686  0.72854  1.0000
  S   S20       1.0  0.39241  0.60007  0.75217  1.0000
  S   S21       1.0  0.30130  0.53065  0.71223  1.0000
  Fe  Fe13      1.0  0.41411  0.52931  0.71933  1.0000
  Fe  Fe14      1.0  0.41578  0.57554  0.79156  1.0000
  S   S22       1.0  0.43504  0.59311  0.85911  1.0000
  H   H104      1.0  0.35185  0.63990  0.59478  1.0000
  S   S23       1.0  0.37680  0.52183  0.77225  1.0000
  S   S24       1.0  0.39011  0.54975  0.67380  1.0000
  H   H105      1.0  0.21442  0.58452  0.99606  1.0000
  H   H106      1.0  0.07787  0.58902  0.95929  1.0000
  C   C51       1.0  0.10379  0.61246  0.96061  1.0000
  C   C52       1.0  0.41079  0.56994  0.90381  1.0000
  C   C53       1.0  0.37770  0.54150  0.89977  1.0000
  C   C54       1.0  0.35897  0.52440  0.93646  1.0000
  C   C55       1.0  0.37263  0.53634  0.97732  1.0000
  C   C56       1.0  0.40593  0.56445  0.98125  1.0000
  C   C57       1.0  0.42512  0.58068  0.94456  1.0000
  H   H107      1.0  0.36648  0.53274  0.86850  1.0000
  H   H108      1.0  0.33371  0.50199  0.93320  1.0000
  H   H109      1.0  0.05088  0.50006  0.66002  1.0000
  C   C58       1.0  0.26713  0.49955  0.94792  1.0000
  C   C59       1.0  0.23123  0.53216  0.81734  1.0000
  C   C60       1.0  0.22236  0.53114  0.77447  1.0000
  C   C61       1.0  0.24392  0.53045  0.74249  1.0000
  C   C62       1.0  0.27511  0.53217  0.75308  1.0000
  C   C63       1.0  0.28443  0.53413  0.79595  1.0000
  C   C64       1.0  0.26222  0.53353  0.82799  1.0000
  H   H110      1.0  0.19830  0.52964  0.76600  1.0000
  H   H111      1.0  0.23607  0.52809  0.70956  1.0000
  H   H112      1.0  0.30823  0.53508  0.80439  1.0000
  H   H113      1.0  0.26895  0.53388  0.86103  1.0000
  C   C65       1.0  0.01146  0.50594  0.90453  1.0000
  C   C66       1.0  0.98704  0.49362  0.93766  1.0000
  C   C67       1.0  0.00011  0.50452  0.86270  1.0000
  H   H114      1.0  0.99556  0.49477  0.97016  1.0000
  H   H115      1.0  0.01860  0.51406  0.83691  1.0000
  C   C68       1.0  0.16030  0.55716  0.59326  1.0000
  C   C69       1.0  0.13599  0.56763  0.58968  1.0000
  C   C70       1.0  0.12068  0.57193  0.62656  1.0000
  C   C71       1.0  0.12984  0.56612  0.66716  1.0000
  C   C72       1.0  0.15461  0.55630  0.67073  1.0000
  C   C73       1.0  0.16961  0.55168  0.63389  1.0000
  H   H116      1.0  0.41042  0.44314  0.94379  1.0000
  H   H117      1.0  0.10179  0.57992  0.62373  1.0000
  H   H118      1.0  0.16181  0.55175  0.70186  1.0000
  H   H119      1.0  0.18830  0.54355  0.63709  1.0000
  C   C74       1.0  0.26566  0.61294  0.91200  1.0000
  H   H120      1.0  0.05982  0.61546  0.82668  1.0000
  H   H121      1.0  0.24665  0.54262  0.92910  1.0000
  H   H122      1.0  0.20938  0.56085  0.94923  1.0000
  C   C75       1.0  0.21985  0.56507  0.98223  1.0000
  H   H123      1.0  0.26957  0.59474  0.89240  1.0000
  H   H124      1.0  0.98569  0.45664  0.60616  1.0000
  H   H125      1.0  0.24906  0.49152  0.54323  1.0000
  H   H126      1.0  0.30723  0.59719  0.67255  1.0000
  C   C76       1.0  0.26788  0.52586  0.97920  1.0000
  H   H127      1.0  0.27156  0.48082  0.96539  1.0000
  H   H128      1.0  0.45122  0.51090  0.81107  1.0000
  H   H129      1.0  0.12918  0.57259  0.55860  1.0000
  C   C77       1.0  0.26695  0.60822  0.65448  1.0000
  H   H130      1.0  0.37198  0.54191  0.57184  1.0000
  H   H131      1.0  0.34651  0.42395  0.76227  1.0000
  H   H132      1.0  0.43134  0.42832  0.67952  1.0000
  H   H133      1.0  0.21813  0.51916  0.60830  1.0000
  H   H134      1.0  0.37962  0.47857  0.85907  1.0000
  C   C78       1.0  0.36208  0.55977  0.56764  1.0000
  H   H135      1.0  0.20888  0.63142  0.60634  1.0000
  H   H136      1.0  0.45503  0.50795  0.93013  1.0000
  H   H137      1.0  0.24645  0.51205  0.00193  1.0000
  C   C79       1.0  0.34930  0.43187  0.79629  1.0000
  H   H138      1.0  0.01121  0.46359  0.67742  1.0000
  H   H139      1.0  0.40157  0.47131  0.78609  1.0000
  C   C80       1.0  0.42859  0.49430  0.91636  1.0000
  H   H140      1.0  0.03340  0.60568  0.91901  1.0000
  H   H141      1.0  0.38300  0.61952  0.64023  1.0000
  C   C81       1.0  0.04068  0.61190  0.85155  1.0000
  H   H142      1.0  0.30369  0.62469  0.96168  1.0000
  H   H143      1.0  0.19449  0.63115  0.95251  1.0000
  H   H144      1.0  0.02914  0.44597  0.53690  1.0000
  C   C82       1.0  0.33287  0.54519  0.53493  1.0000
  S   S25       1.0  0.42161  0.48489  0.69844  1.0000
  C   C83       1.0  0.96470  0.49050  0.85413  1.0000
  H   H145      1.0  0.33420  0.40872  0.81607  1.0000
  H   H146      1.0  0.28756  0.51226  0.92349  1.0000
  S   S26       1.0  0.45437  0.58176  0.74117  1.0000
  C   C84       1.0  0.02252  0.48535  0.65483  1.0000
  C   C85       1.0  0.23106  0.64064  0.58431  1.0000
  H   H147      1.0  0.01415  0.51535  0.58285  1.0000
  H   H148      1.0  0.02875  0.55697  0.53771  1.0000
  H   H149      1.0  0.33838  0.61170  0.84889  1.0000
  H   H150      1.0  0.39559  0.45623  0.01541  1.0000
  H   H151      1.0  0.05551  0.58578  0.89547  1.0000
  C   C86       1.0  0.41349  0.47715  0.99396  1.0000
  Fe  Fe15      1.0  0.42724  0.60166  0.69990  1.0000
  H   H152      1.0  0.29245  0.53698  0.99743  1.0000
  H   H153      1.0  0.44031  0.48451  0.00266  1.0000
  C   C87       1.0  0.27523  0.61273  0.95958  1.0000
  H   H154      1.0  0.45112  0.60181  0.94769  1.0000
  C   C88       1.0  0.01414  0.47192  0.60899  1.0000
  H   H155      1.0  0.31239  0.52022  0.54693  1.0000
  H   H156      1.0  0.34897  0.62573  0.92501  1.0000
  H   H157      1.0  0.40972  0.49933  0.99909  1.0000
  C   C89       1.0  0.44814  0.51634  0.84480  1.0000
  H   H158      1.0  0.07945  0.43889  0.55107  1.0000
  H   H159      1.0  0.11943  0.60911  0.93544  1.0000
  H   H160      1.0  0.41696  0.57350  0.01253  1.0000
  H   H161      1.0  0.02520  0.45515  0.60419  1.0000
  H   H162      1.0  0.41928  0.51286  0.91779  1.0000
  H   H163      1.0  0.24440  0.59669  0.63306  1.0000
  H   H164      1.0  0.43232  0.52889  0.84287  1.0000
  Fe  Fe16      1.0  0.16691  0.61485  0.85490  1.0000
  H   H165      1.0  0.05561  0.52053  0.58668  1.0000
  H   H166      1.0  0.24170  0.48557  0.93168  1.0000
  C   C90       1.0  0.05342  0.60914  0.89568  1.0000
  H   H167      1.0  0.26826  0.56097  0.65267  1.0000
  H   H168      1.0  0.36864  0.59642  0.84872  1.0000
  H   H169      1.0  0.14551  0.63397  0.00902  1.0000
  H   H170      1.0  0.25747  0.60410  0.68791  1.0000
  H   H171      1.0  0.37684  0.60784  0.92766  1.0000
  C   C91       1.0  0.08182  0.48700  0.53608  1.0000
  H   H172      1.0  0.12191  0.47376  0.53882  1.0000
  C   C92       1.0  0.96590  0.35924  0.80548  1.0000
  H   H173      1.0  0.26890  0.63056  0.97616  1.0000
  H   H174      1.0  0.29725  0.59281  0.61633  1.0000
  C   C93       1.0  0.28620  0.58873  0.64866  1.0000
  H   H175      1.0  0.13998  0.57933  0.98596  1.0000
  H   H176      1.0  0.05267  0.61957  0.98536  1.0000
  H   H177      1.0  0.23833  0.60618  0.90891  1.0000
  H   H178      1.0  0.32969  0.57441  0.87910  1.0000
  H   H179      1.0  0.23669  0.61992  0.57818  1.0000
  C   C94       1.0  0.36838  0.62227  0.90759  1.0000
  H   H180      1.0  0.99380  0.37867  0.80430  1.0000
  N   N4        1.0  0.25810  0.57831  0.98120  1.0000
  C   C95       1.0  0.26583  0.55470  0.95523  1.0000
  H   H181      1.0  0.38370  0.58489  0.55712  1.0000
  C   C96       1.0  0.45790  0.47957  0.70506  1.0000
  H   H182      1.0  0.17919  0.63560  0.70333  1.0000
  C   C97       1.0  0.12160  0.57944  0.00946  1.0000
  H   H183      1.0  0.27202  0.52224  0.58536  1.0000
  H   H184      1.0  0.01616  0.58798  0.84422  1.0000
  H   H185      1.0  0.42801  0.43553  0.87536  1.0000
  C   C98       1.0  0.38740  0.45012  0.80874  1.0000
  H   H186      1.0  0.33854  0.44905  0.80025  1.0000
  C   C99       1.0  0.27345  0.58346  0.02534  1.0000
  C   C100      1.0  0.02867  0.50184  0.57698  1.0000
  H   H187      1.0  0.39593  0.43116  0.80505  1.0000
  N   N5        1.0  0.42954  0.48396  0.87065  1.0000
  H   H188      1.0  0.01175  0.50215  0.66205  1.0000
  H   H189      1.0  0.37790  0.43998  0.87476  1.0000
  C   C101      1.0  0.35024  0.60003  0.86860  1.0000
  H   H190      1.0  0.35253  0.56303  0.59901  1.0000
  C   C102      1.0  0.39274  0.46334  0.85521  1.0000
  C   C103      1.0  0.11919  0.61170  0.00465  1.0000
  H   H191      1.0  0.19467  0.48928  0.56580  1.0000
  H   H192      1.0  0.37824  0.45586  0.94185  1.0000
  S   S27       1.0  0.18026  0.55142  0.54802  1.0000
  H   H193      1.0  0.21412  0.47764  0.60788  1.0000
  H   H194      1.0  0.30168  0.59323  0.02288  1.0000
  H   H195      1.0  0.08514  0.49441  0.57022  1.0000
  C   C104      1.0  0.40596  0.46497  0.94761  1.0000
  C   C105      1.0  0.21730  0.49897  0.58740  1.0000
  H   H196      1.0  0.45985  0.38292  0.54188  1.0000
  H   H197      1.0  0.10262  0.61163  0.03090  1.0000
  H   H198      1.0  0.25804  0.56297  0.55546  1.0000
  H   H199      1.0  0.97076  0.42584  0.54786  1.0000
  S   S28       1.0  0.34773  0.51541  0.02272  1.0000
  H   H200      1.0  0.22596  0.63044  0.67117  1.0000
  H   H201      1.0  0.31831  0.58132  0.55780  1.0000
  H   H202      1.0  0.15840  0.54154  0.02889  1.0000
  C   C106      1.0  0.25066  0.51308  0.56188  1.0000
  C   C107      1.0  0.19749  0.53068  0.00526  1.0000
  C   C108      1.0  0.44712  0.46291  0.86921  1.0000
  C   C109      1.0  0.16010  0.52227  0.00867  1.0000
  H   H203      1.0  0.09596  0.55615  0.00472  1.0000
  H   H204      1.0  0.19735  0.50971  0.98665  1.0000
  C   C110      1.0  0.45541  0.44854  0.69239  1.0000
  H   H205      1.0  0.45485  0.41166  0.82756  1.0000
  H   H206      1.0  0.14931  0.52161  0.97658  1.0000
  H   H207      1.0  0.45182  0.46111  0.79858  1.0000
  H   H208      1.0  0.03588  0.63366  0.85051  1.0000
  H   H209      1.0  0.14427  0.49678  0.02353  1.0000
  H   H210      1.0  0.10820  0.64114  0.88402  1.0000
  H   H211      1.0  0.41849  0.64042  0.97005  1.0000
  C   C111      1.0  0.08885  0.64109  0.90628  1.0000
  H   H212      1.0  0.36789  0.64127  0.98981  1.0000
  C   C112      1.0  0.25591  0.54296  0.53302  1.0000
  H   H213      1.0  0.30590  0.62180  0.53424  1.0000
  Fe  Fe17      1.0  0.35950  0.78724  0.47254  1.0000
  S   S29       1.0  0.36935  0.74667  0.44803  1.0000
  S   S30       1.0  0.30969  0.78649  0.46201  1.0000
  C   C113      1.0  0.29952  0.64798  0.48156  1.0000
  H   H214      1.0  0.37707  0.70451  0.17482  1.0000
  Fe  Fe18      1.0  0.42028  0.79033  0.42754  1.0000
  S   S31       1.0  0.43909  0.78628  0.36190  1.0000
  Fe  Fe19      1.0  0.39446  0.75107  0.51155  1.0000
  S   S32       1.0  0.40868  0.83117  0.44728  1.0000
  H   H215      1.0  0.41035  0.66517  0.12365  1.0000
  H   H216      1.0  0.30696  0.75430  0.21638  1.0000
  Fe  Fe20      1.0  0.37601  0.80482  0.13700  1.0000
  S   S33       1.0  0.42384  0.83840  0.09958  1.0000
  S   S34       1.0  0.36879  0.81595  0.20542  1.0000
  C   C114      1.0  0.25967  0.66768  0.23774  1.0000
  H   H217      1.0  0.30565  0.71470  0.36705  1.0000
  Fe  Fe21      1.0  0.41406  0.78906  0.06928  1.0000
  H   H218      1.0  0.24117  0.82788  0.46215  1.0000
  S   S35       1.0  0.34019  0.80700  0.08890  1.0000
  S   S36       1.0  0.36938  0.75573  0.11108  1.0000
  H   H219      1.0  0.40772  0.88891  0.19953  1.0000
  C   C115      1.0  0.40532  0.67939  0.43127  1.0000
  C   C116      1.0  0.38974  0.80856  0.24794  1.0000
  C   C117      1.0  0.38420  0.81625  0.28950  1.0000
  C   C118      1.0  0.39946  0.80977  0.32450  1.0000
  C   C119      1.0  0.42063  0.79576  0.31822  1.0000
  C   C120      1.0  0.42677  0.78871  0.27654  1.0000
  C   C121      1.0  0.41118  0.79485  0.24142  1.0000
  H   H220      1.0  0.36763  0.82684  0.29475  1.0000
  H   H221      1.0  0.39446  0.81526  0.35637  1.0000
  H   H222      1.0  0.45566  0.96245  0.31758  1.0000
  H   H223      1.0  0.41583  0.78911  0.20942  1.0000
  H   H224      1.0  0.34397  0.92884  0.48555  1.0000
  C   C122      1.0  0.43297  0.68776  0.11201  1.0000
  C   C123      1.0  0.43040  0.71581  0.09724  1.0000
  H   H225      1.0  0.37864  0.93470  0.12105  1.0000
  Fe  Fe22      1.0  0.43131  0.83016  0.51053  1.0000
  S   S37       1.0  0.18417  0.65197  0.38322  1.0000
  H   H226      1.0  0.40585  0.71471  0.09763  1.0000
  C   C124      1.0  0.39375  0.89701  0.13735  1.0000
  H   H227      1.0  0.38539  0.90116  0.37190  1.0000
  C   C125      1.0  0.21946  0.68840  0.40631  1.0000
  C   C126      1.0  0.22233  0.72027  0.39979  1.0000
  C   C127      1.0  0.24985  0.74996  0.41748  1.0000
  C   C128      1.0  0.27536  0.74828  0.44099  1.0000
  C   C129      1.0  0.27291  0.71648  0.44727  1.0000
  C   C130      1.0  0.24481  0.68652  0.43016  1.0000
  H   H228      1.0  0.20290  0.72195  0.38136  1.0000
  H   H229      1.0  0.25154  0.77437  0.41248  1.0000
  C   C131      1.0  0.32876  0.67602  0.20980  1.0000
  H   H230      1.0  0.41043  0.71649  0.38445  1.0000
  H   H231      1.0  0.04863  0.67094  0.04142  1.0000
  C   C132      1.0  0.31160  0.71383  0.27433  1.0000
  H   H232      1.0  0.34729  0.74519  0.34584  1.0000
  C   C133      1.0  0.32012  0.73889  0.34911  1.0000
  H   H233      1.0  0.33977  0.73016  0.26782  1.0000
  H   H234      1.0  0.31389  0.76170  0.29256  1.0000
  C   C134      1.0  0.35408  0.67842  0.17549  1.0000
  H   H235      1.0  0.31968  0.75953  0.36783  1.0000
  H   H236      1.0  0.27549  0.72477  0.31073  1.0000
  H   H237      1.0  0.41238  0.91752  0.26917  1.0000
  C   C135      1.0  0.41011  0.69173  0.38433  1.0000
  H   H238      1.0  0.30323  0.85101  0.45420  1.0000
  C   C136      1.0  0.31418  0.69977  0.19938  1.0000
  C   C137      1.0  0.28291  0.72897  0.21796  1.0000
  C   C138      1.0  0.30344  0.73555  0.30558  1.0000
  H   H239      1.0  0.26630  0.73247  0.24112  1.0000
  H   H240      1.0  0.33647  0.72573  0.19260  1.0000
  H   H241      1.0  0.38026  0.86870  0.13834  1.0000
  H   H242      1.0  0.30875  0.69135  0.29208  1.0000
  H   H243      1.0  0.28727  0.65661  0.36970  1.0000
  N   N6        1.0  0.29145  0.70244  0.23293  1.0000
  H   H244      1.0  0.23682  0.74902  0.18787  1.0000
  H   H245      1.0  0.34866  0.68363  0.37411  1.0000
  H   H246      1.0  0.28267  0.72415  0.14783  1.0000
  H   H247      1.0  0.37305  0.66784  0.28564  1.0000
  H   H248      1.0  0.24117  0.69740  0.17241  1.0000
  C   C139      1.0  0.37323  0.88747  0.48214  1.0000
  C   C140      1.0  0.26515  0.72267  0.17377  1.0000
  C   C141      1.0  0.34874  0.65928  0.36875  1.0000
  C   C142      1.0  0.44009  0.92583  0.26505  1.0000
  C   C143      1.0  0.37273  0.90308  0.43828  1.0000
  H   H249      1.0  0.30000  0.68985  0.16879  1.0000
  S   S38       1.0  0.45752  0.77886  0.05669  1.0000
  H   H250      1.0  0.34563  0.89688  0.14771  1.0000
  C   C144      1.0  0.42998  0.70650  0.24549  1.0000
  H   H251      1.0  0.26679  0.64890  0.24928  1.0000
  H   H252      1.0  0.38983  0.93125  0.43905  1.0000
  H   H253      1.0  0.24725  0.65763  0.20622  1.0000
  H   H254      1.0  0.24403  0.74553  0.13193  1.0000
  H   H255      1.0  0.36301  0.85958  0.47755  1.0000
  H   H256      1.0  0.44480  0.72855  0.45674  1.0000
  C   C145      1.0  0.23202  0.66513  0.26938  1.0000
  C   C146      1.0  0.25570  0.74998  0.16421  1.0000
  H   H257      1.0  0.24203  0.66921  0.30250  1.0000
  H   H258      1.0  0.39187  0.91713  0.20000  1.0000
  H   H259      1.0  0.31643  0.83943  0.52437  1.0000
  H   H260      1.0  0.22373  0.68381  0.26210  1.0000
  C   C147      1.0  0.42812  0.70092  0.29367  1.0000
  S   S39       1.0  0.28847  0.70938  0.04690  1.0000
  C   C148      1.0  0.36696  0.90665  0.12417  1.0000
  H   H261      1.0  0.32611  0.65819  0.46956  1.0000
  N   N7        1.0  0.44583  0.94112  0.18364  1.0000
  H   H262      1.0  0.38507  0.70655  0.31266  1.0000
  Fe  Fe23      1.0  0.33738  0.76039  0.05930  1.0000
  H   H263      1.0  0.44472  0.72617  0.30924  1.0000
  H   H264      1.0  0.34171  0.67236  0.14356  1.0000
  H   H265      1.0  0.34263  0.68304  0.24057  1.0000
  C   C149      1.0  0.39067  0.68521  0.31056  1.0000
  H   H266      1.0  0.38417  0.68159  0.44638  1.0000
  H   H267      1.0  0.41244  0.89538  0.40927  1.0000
  H   H268      1.0  0.29237  0.71495  0.46571  1.0000
  C   C150      1.0  0.38564  0.88927  0.40266  1.0000
  H   H269      1.0  0.41319  0.90453  0.11195  1.0000
  H   H270      1.0  0.36865  0.86112  0.39946  1.0000
  N   N8        1.0  0.38370  0.66713  0.35282  1.0000
  C   C151      1.0  0.45603  0.95326  0.22929  1.0000
  H   H271      1.0  0.40089  0.89808  0.48994  1.0000
  H   H272      1.0  0.24281  0.66208  0.43513  1.0000
  C   C152      1.0  0.40954  0.91096  0.18216  1.0000
  H   H273      1.0  0.34674  0.89782  0.42924  1.0000
  H   H274      1.0  0.35583  0.89481  0.09277  1.0000
  C   C153      1.0  0.29441  0.85948  0.48230  1.0000
  H   H275      1.0  0.43927  0.96216  0.12461  1.0000
  C   C154      1.0  0.25721  0.83144  0.49075  1.0000
  H   H276      1.0  0.43313  0.69267  0.49122  1.0000
  H   H277      1.0  0.46058  0.91651  0.48029  1.0000
  S   S40       1.0  0.44695  0.79197  0.48926  1.0000
  H   H278      1.0  0.44369  0.77854  0.27142  1.0000
  H   H279      1.0  0.43651  0.69808  0.37464  1.0000
  C   C155      1.0  0.31771  0.86443  0.52114  1.0000
  H   H280      1.0  0.44923  0.87915  0.18254  1.0000
  H   H281      1.0  0.41620  0.68160  0.22838  1.0000
  H   H282      1.0  0.43918  0.68446  0.30091  1.0000
  H   H283      1.0  0.27912  0.77584  0.16482  1.0000
  H   H284      1.0  0.25593  0.80674  0.49742  1.0000
  H   H285      1.0  0.45971  0.69895  0.44529  1.0000
  H   H286      1.0  0.41846  0.72229  0.23666  1.0000
  H   H287      1.0  0.29948  0.66776  0.50254  1.0000
  H   H288      1.0  0.44567  0.92003  0.33264  1.0000
  C   C156      1.0  0.44600  0.96962  0.15863  1.0000
  H   H289      1.0  0.44165  0.90271  0.25788  1.0000
  C   C157      1.0  0.43781  0.70131  0.45758  1.0000
  H   H290      1.0  0.36262  0.65980  0.18232  1.0000
  H   H291      1.0  0.24071  0.65709  0.51792  1.0000
  Fe  Fe24      1.0  0.38820  0.83839  0.04964  1.0000
  N   N9        1.0  0.35471  0.89320  0.51870  1.0000
  H   H292      1.0  0.29405  0.88313  0.47455  1.0000
  C   C158      1.0  0.45794  0.94007  0.30784  1.0000
  C   C159      1.0  0.39153  0.95930  0.52077  1.0000
  C   C160      1.0  0.46143  0.93824  0.04110  1.0000
  H   H293      1.0  0.39913  0.65246  0.43344  1.0000
  C   C161      1.0  0.35537  0.92680  0.51589  1.0000
  H   H294      1.0  0.41148  0.95648  0.50354  1.0000
  C   C162      1.0  0.45950  0.74472  0.08077  1.0000
  H   H295      1.0  0.32000  0.64599  0.30784  1.0000
  H   H296      1.0  0.30780  0.64892  0.21117  1.0000
  H   H297      1.0  0.34313  0.64638  0.40018  1.0000
  H   H298      1.0  0.44857  0.97258  0.23788  1.0000
  H   H299      1.0  0.28189  0.64319  0.45446  1.0000
  H   H300      1.0  0.35102  0.66510  0.05075  1.0000
  H   H301      1.0  0.24629  0.83842  0.51818  1.0000
  H   H302      1.0  0.45730  0.71997  0.23499  1.0000
  S   S41       1.0  0.19990  0.67003  0.87624  1.0000
  H   H303      1.0  0.30515  0.86749  0.55016  1.0000
  H   H304      1.0  0.26065  0.73175  0.90291  1.0000
  H   H305      1.0  0.12651  0.71404  0.92986  1.0000
  H   H306      1.0  0.18560  0.67708  0.71662  1.0000
  C   C163      1.0  0.14644  0.70661  0.92873  1.0000
  N   N10       1.0  0.42175  0.68064  0.92938  1.0000
  C   C164      1.0  0.43905  0.73203  0.87864  1.0000
  C   C165      1.0  0.43291  0.66319  0.62780  1.0000
  C   C166      1.0  0.39726  0.68683  0.57700  1.0000
  C   C167      1.0  0.43303  0.70666  0.58154  1.0000
  H   H307      1.0  0.24668  0.70438  0.69564  1.0000
  H   H308      1.0  0.05527  0.67031  0.94395  1.0000
  S   S42       1.0  0.37362  0.69958  0.54439  1.0000
  C   C168      1.0  0.22534  0.68016  0.92293  1.0000
  C   C169      1.0  0.21661  0.65650  0.95587  1.0000
  C   C170      1.0  0.23596  0.66602  0.99381  1.0000
  C   C171      1.0  0.26477  0.69893  0.99877  1.0000
  C   C172      1.0  0.27375  0.72249  0.96569  1.0000
  C   C173      1.0  0.25388  0.71321  0.92810  1.0000
  H   H309      1.0  0.25884  0.69441  0.60058  1.0000
  H   H310      1.0  0.39475  0.84189  0.61808  1.0000
  H   H311      1.0  0.46075  0.70035  0.00474  1.0000
  H   H312      1.0  0.35956  0.89889  0.58748  1.0000
  H   H313      1.0  0.42851  0.71768  0.84835  1.0000
  H   H314      1.0  0.28428  0.67874  0.57821  1.0000
  H   H315      1.0  0.35345  0.77417  0.64867  1.0000
  C   C174      1.0  0.29109  0.64689  0.64569  1.0000
  C   C175      1.0  0.36187  0.68021  0.02124  1.0000
  H   H316      1.0  0.38252  0.69410  0.94092  1.0000
  H   H317      1.0  0.31148  0.65532  0.67067  1.0000
  C   C176      1.0  0.38429  0.66854  0.99833  1.0000
  C   C177      1.0  0.45043  0.71226  0.90849  1.0000
  C   C178      1.0  0.03889  0.66839  0.00828  1.0000
  C   C179      1.0  0.18060  0.73746  0.94278  1.0000
  H   H318      1.0  0.39950  0.91434  0.56018  1.0000
  C   C180      1.0  0.37942  0.65535  0.59819  1.0000
  H   H319      1.0  0.31528  0.65566  0.89218  1.0000
  H   H320      1.0  0.14946  0.70101  0.89495  1.0000
  H   H321      1.0  0.27918  0.64829  0.85940  1.0000
  H   H322      1.0  0.37821  0.86777  0.63972  1.0000
  H   H323      1.0  0.36986  0.75436  0.68452  1.0000
  C   C181      1.0  0.39241  0.86484  0.61258  1.0000
  H   H324      1.0  0.38751  0.76678  0.63177  1.0000
  C   C182      1.0  0.36345  0.75626  0.65084  1.0000
  H   H325      1.0  0.34920  0.70498  0.63427  1.0000
  H   H326      1.0  0.41451  0.65287  0.87047  1.0000
  C   C183      1.0  0.40232  0.69144  0.95907  1.0000
  H   H327      1.0  0.45380  0.92471  0.89677  1.0000
  H   H328      1.0  0.34034  0.67682  0.00056  1.0000
  C   C184      1.0  0.21982  0.64845  0.54187  1.0000
  H   H329      1.0  0.29576  0.74797  0.96925  1.0000
  H   H330      1.0  0.39903  0.96386  0.55497  1.0000
  C   C185      1.0  0.43795  0.66289  0.95199  1.0000
  H   H331      1.0  0.28485  0.66782  0.91113  1.0000
  H   H332      1.0  0.46084  0.78013  0.84467  1.0000
  C   C186      1.0  0.37326  0.86069  0.57071  1.0000
  N   N11       1.0  0.10135  0.64394  0.95159  1.0000
  H   H333      1.0  0.15711  0.66816  0.94843  1.0000
  H   H334      1.0  0.17873  0.74510  0.97592  1.0000
  S   S43       1.0  0.45614  0.64854  0.65808  1.0000
  H   H335      1.0  0.31007  0.70470  0.69381  1.0000
  H   H336      1.0  0.38658  0.66989  0.87644  1.0000
  C   C187      1.0  0.22861  0.67846  0.68305  1.0000
  C   C188      1.0  0.45080  0.69469  0.60655  1.0000
  N   N12       1.0  0.27533  0.66964  0.64602  1.0000
  H   H337      1.0  0.01508  0.64310  0.00441  1.0000
  H   H338      1.0  0.33217  0.72443  0.59963  1.0000
  H   H339      1.0  0.18724  0.75938  0.92138  1.0000
  H   H340      1.0  0.41879  0.88748  0.61147  1.0000
  C   C189      1.0  0.30312  0.70500  0.65975  1.0000
  H   H341      1.0  0.29372  0.72344  0.65788  1.0000
  H   H342      1.0  0.41991  0.71742  0.97257  1.0000
  C   C190      1.0  0.42314  0.95744  0.01662  1.0000
  C   C191      1.0  0.33705  0.72106  0.63339  1.0000
  H   H343      1.0  0.08888  0.69825  0.98086  1.0000
  H   H344      1.0  0.20166  0.73144  0.94102  1.0000
  H   H345      1.0  0.22865  0.64779  0.01946  1.0000
  C   C192      1.0  0.06627  0.67235  0.97615  1.0000
  H   H346      1.0  0.21823  0.68087  0.65204  1.0000
  C   C193      1.0  0.19851  0.66172  0.71431  1.0000
  C   C194      1.0  0.42879  0.93037  0.02662  1.0000
  C   C195      1.0  0.39872  0.65751  0.89420  1.0000
  H   H347      1.0  0.21276  0.66852  0.54606  1.0000
  C   C196      1.0  0.26354  0.67252  0.60195  1.0000
  H   H348      1.0  0.08720  0.66381  0.89711  1.0000
  H   H349      1.0  0.14218  0.68329  0.99061  1.0000
  C   C197      1.0  0.37203  0.89347  0.56018  1.0000
  H   H350      1.0  0.39800  0.95171  0.00546  1.0000
  H   H351      1.0  0.30452  0.64946  0.61486  1.0000
  H   H352      1.0  0.38690  0.85535  0.54504  1.0000
  H   H353      1.0  0.34719  0.83811  0.57470  1.0000
  S   S44       1.0  0.38217  0.79137  0.01552  1.0000
  H   H354      1.0  0.44708  0.73095  0.56540  1.0000
  C   C198      1.0  0.13712  0.67489  0.95666  1.0000
  S   S45       1.0  0.38070  0.78897  0.53753  1.0000
  H   H355      1.0  0.33869  0.92829  0.54114  1.0000
  S   S46       1.0  0.39488  0.88733  0.01883  1.0000
  C   C199      1.0  0.39705  0.64370  0.62383  1.0000
  C   C200      1.0  0.24661  0.65703  0.67838  1.0000
  H   H356      1.0  0.03224  0.68861  0.00293  1.0000
  H   H357      1.0  0.37741  0.70766  0.03025  1.0000
  H   H358      1.0  0.40370  0.67032  0.02159  1.0000
  H   H359      1.0  0.20778  0.66018  0.74657  1.0000
  H   H360      1.0  0.41912  0.73612  0.89391  1.0000
  H   H361      1.0  0.08783  0.64982  0.01601  1.0000
  H   H362      1.0  0.44858  0.65235  0.92809  1.0000
  H   H363      1.0  0.25654  0.65565  0.71044  1.0000
  C   C201      1.0  0.07666  0.64499  0.98339  1.0000
  C   C202      1.0  0.28771  0.64842  0.89266  1.0000
  H   H364      1.0  0.45554  0.64523  0.02981  1.0000
  H   H365      1.0  0.45980  0.97454  0.93762  1.0000
  N   N13       1.0  0.64173  0.30628  0.27192  1.0000
  N   N14       1.0  0.59654  0.04267  0.47243  1.0000
  S   S47       1.0  0.54899  0.14032  0.06552  1.0000
  N   N15       1.0  0.61614  0.26962  0.50342  1.0000
  C   C203      1.0  0.66465  0.24805  0.34034  1.0000
  H   H366      1.0  0.51335  0.97831  0.05545  1.0000
  C   C204      1.0  0.64245  0.25552  0.31048  1.0000
  H   H367      1.0  0.72487  0.29704  0.12438  1.0000
  C   C205      1.0  0.50972  0.22009  0.09652  1.0000
  C   C206      1.0  0.54348  0.28236  0.14353  1.0000
  C   C207      1.0  0.56240  0.26967  0.12241  1.0000
  C   C208      1.0  0.54573  0.23878  0.09907  1.0000
  C   C209      1.0  0.60322  0.29893  0.33770  1.0000
  H   H368      1.0  0.56070  0.22921  0.08345  1.0000
  C   C210      1.0  0.73463  0.27389  0.46850  1.0000
  C   C211      1.0  0.71447  0.25243  0.43531  1.0000
  C   C212      1.0  0.68454  0.22103  0.44447  1.0000
  C   C213      1.0  0.67395  0.21112  0.48678  1.0000
  H   H369      1.0  0.59576  0.28897  0.23357  1.0000
  C   C214      1.0  0.72373  0.26421  0.51081  1.0000
  H   H370      1.0  0.72291  0.25929  0.40272  1.0000
  H   H371      1.0  0.66992  0.20396  0.41865  1.0000
  S   S48       1.0  0.63747  0.17020  0.49633  1.0000
  H   H372      1.0  0.67337  0.28981  0.44011  1.0000
  H   H373      1.0  0.54477  0.24847  0.50799  1.0000
  C   C215      1.0  0.48262  0.99970  0.03423  1.0000
  H   H374      1.0  0.61839  0.24908  0.32753  1.0000
  H   H375      1.0  0.59422  0.25724  0.26701  1.0000
  H   H376      1.0  0.49915  0.00183  0.13599  1.0000
  C   C216      1.0  0.57057  0.21252  0.46777  1.0000
  H   H377      1.0  0.63496  0.29374  0.06708  1.0000
  H   H378      1.0  0.56589  0.08340  0.48869  1.0000
  H   H379      1.0  0.66843  0.28130  0.51590  1.0000
  C   C217      1.0  0.56707  0.18463  0.43705  1.0000
  H   H380      1.0  0.59946  0.22130  0.16383  1.0000
  H   H381      1.0  0.69048  0.13098  0.39663  1.0000
  H   H382      1.0  0.65028  0.22078  0.34997  1.0000
  H   H383      1.0  0.53949  0.16456  0.43414  1.0000
  H   H384      1.0  0.58126  0.05595  0.53140  1.0000
  C   C218      1.0  0.65462  0.29405  0.50311  1.0000
  H   H385      1.0  0.56882  0.23072  0.18819  1.0000
  C   C219      1.0  0.59252  0.22942  0.19391  1.0000
  C   C220      1.0  0.47567  0.03281  0.14060  1.0000
  C   C221      1.0  0.64684  0.08757  0.42656  1.0000
  H   H386      1.0  0.59516  0.28698  0.45382  1.0000
  H   H387      1.0  0.49275  0.01191  0.18951  1.0000
  H   H388      1.0  0.61779  0.25054  0.44044  1.0000
  H   H389      1.0  0.57693  0.19540  0.40496  1.0000
  C   C222      1.0  0.54367  0.29265  0.48576  1.0000
  C   C223      1.0  0.60879  0.24072  0.47310  1.0000
  Fe  Fe25      1.0  0.51532  0.15704  0.03354  1.0000
  H   H390      1.0  0.53666  0.28240  0.45283  1.0000
  H   H391      1.0  0.62997  0.09614  0.48855  1.0000
  H   H392      1.0  0.58153  0.17248  0.44915  1.0000
  H   H393      1.0  0.69886  0.12248  0.45003  1.0000
  C   C224      1.0  0.50751  0.26392  0.14064  1.0000
  C   C225      1.0  0.69326  0.23323  0.51994  1.0000
  C   C226      1.0  0.60006  0.01391  0.45343  1.0000
  H   H394      1.0  0.62852  0.08931  0.40458  1.0000
  H   H395      1.0  0.62921  0.28195  0.18060  1.0000
  C   C227      1.0  0.67924  0.12290  0.42895  1.0000
  H   H396      1.0  0.63540  0.23785  0.28285  1.0000
  H   H397      1.0  0.62326  0.01411  0.46621  1.0000
  H   H398      1.0  0.60473  0.01776  0.41850  1.0000
  S   S49       1.0  0.48751  0.18060  0.06817  1.0000
  H   H399      1.0  0.55905  0.20003  0.49850  1.0000
  H   H400      1.0  0.65054  0.07169  0.48945  1.0000
  C   C228      1.0  0.66227  0.29325  0.29527  1.0000
  H   H401      1.0  0.67131  0.26414  0.36950  1.0000
  C   C229      1.0  0.62224  0.26422  0.20800  1.0000
  C   C230      1.0  0.49077  0.23297  0.11725  1.0000
  H   H402      1.0  0.62344  0.22811  0.48305  1.0000
  H   H403      1.0  0.59017  0.28359  0.12462  1.0000
  C   C231      1.0  0.63115  0.07508  0.47151  1.0000
  H   H404      1.0  0.64481  0.26140  0.21538  1.0000
  H   H405      1.0  0.54145  0.07595  0.39562  1.0000
  C   C232      1.0  0.61201  0.27887  0.24653  1.0000
  H   H406      1.0  0.55542  0.22335  0.45407  1.0000
  H   H407      1.0  0.67289  0.14210  0.44135  1.0000
  C   C233      1.0  0.57003  0.04629  0.44696  1.0000
  C   C234      1.0  0.56898  0.07966  0.45449  1.0000
  C   C235      1.0  0.53901  0.07880  0.43041  1.0000
  H   H408      1.0  0.54369  0.02469  0.45401  1.0000
  H   H409      1.0  0.57361  0.04439  0.41216  1.0000
  H   H410      1.0  0.58705  0.20987  0.21864  1.0000
  H   H411      1.0  0.65424  0.06969  0.41235  1.0000
  H   H412      1.0  0.59296  0.10243  0.44334  1.0000
  H   H413      1.0  0.49257  0.27331  0.15666  1.0000
  H   H414      1.0  0.68882  0.25317  0.32419  1.0000
  H   H415      1.0  0.51403  0.05736  0.44184  1.0000
  H   H416      1.0  0.53909  0.10305  0.43613  1.0000
  C   C236      1.0  0.48072  0.00404  0.15756  1.0000
  H   H417      1.0  0.70557  0.26794  0.04798  1.0000
  H   H418      1.0  0.61752  0.29206  0.36061  1.0000
  H   H419      1.0  0.57130  0.30014  0.38881  1.0000
  C   C237      1.0  0.58435  0.03505  0.51796  1.0000
  C   C238      1.0  0.59786  0.28824  0.48915  1.0000
  H   H420      1.0  0.51962  0.28650  0.50299  1.0000
  H   H421      1.0  0.55808  0.01233  0.51954  1.0000
  H   H422      1.0  0.68377  0.28886  0.14396  1.0000
  H   H423      1.0  0.68381  0.29558  0.27507  1.0000
  C   C239      1.0  0.56188  0.27656  0.50884  1.0000
  S   S50       1.0  0.51772  0.04251  0.03876  1.0000
  H   H424      1.0  0.58127  0.27537  0.32422  1.0000
  H   H425      1.0  0.50113  0.05644  0.13677  1.0000
  S   S51       1.0  0.64030  0.20861  0.03487  1.0000
  H   H426      1.0  0.47428  0.97692  0.47537  1.0000
  C   C240      1.0  0.56860  0.97741  0.45959  1.0000
  H   H427      1.0  0.54446  0.97587  0.44840  1.0000
  S   S52       1.0  0.54720  0.12820  0.53226  1.0000
  H   H428      1.0  0.53252  0.22168  0.78869  1.0000
  Fe  Fe26      1.0  0.57695  0.13013  0.64598  1.0000
  S   S53       1.0  0.52054  0.10504  0.62887  1.0000
  S   S54       1.0  0.59724  0.13258  0.71311  1.0000
  Fe  Fe27      1.0  0.53435  0.08257  0.57284  1.0000
  S   S55       1.0  0.48924  0.10944  0.99213  1.0000
  Fe  Fe28      1.0  0.53864  0.15246  0.58934  1.0000
  S   S56       1.0  0.51167  0.18188  0.57481  1.0000
  S   S57       1.0  0.58983  0.10471  0.59246  1.0000
  S   S58       1.0  0.59411  0.17883  0.60920  1.0000
  Fe  Fe29      1.0  0.53132  0.13993  0.94469  1.0000
  S   S59       1.0  0.56773  0.12400  0.97029  1.0000
  S   S60       1.0  0.51472  0.13727  0.87563  1.0000
  C   C241      1.0  0.48797  0.99432  0.87785  1.0000
  C   C242      1.0  0.61520  0.28225  0.58428  1.0000
  Fe  Fe30      1.0  0.58659  0.16976  0.01338  1.0000
  C   C243      1.0  0.49996  0.21808  0.84400  1.0000
  H   H429      1.0  0.63840  0.28003  0.99141  1.0000
  C   C244      1.0  0.50889  0.24806  0.91213  1.0000
  S   S61       1.0  0.55382  0.18831  0.98364  1.0000
  C   C245      1.0  0.57460  0.13474  0.75811  1.0000
  C   C246      1.0  0.54343  0.13429  0.75375  1.0000
  C   C247      1.0  0.52562  0.13528  0.79011  1.0000
  C   C248      1.0  0.53892  0.13719  0.83113  1.0000
  C   C249      1.0  0.57029  0.13799  0.83559  1.0000
  C   C250      1.0  0.58796  0.13661  0.79919  1.0000
  H   H430      1.0  0.53282  0.13277  0.72236  1.0000
  H   H431      1.0  0.50114  0.13406  0.78637  1.0000
  H   H432      1.0  0.58085  0.13947  0.86699  1.0000
  H   H433      1.0  0.61206  0.13693  0.80283  1.0000
  H   H434      1.0  0.69474  0.24255  0.89331  1.0000
  H   H435      1.0  0.69379  0.27148  0.80983  1.0000
  C   C251      1.0  0.49758  0.97739  0.57832  1.0000
  H   H436      1.0  0.50808  0.99420  0.60564  1.0000
  H   H437      1.0  0.65809  0.24753  0.72233  1.0000
  H   H438      1.0  0.61558  0.23982  0.90536  1.0000
  H   H439      1.0  0.50490  0.28345  0.61091  1.0000
  C   C252      1.0  0.51814  0.21554  0.60905  1.0000
  C   C253      1.0  0.53224  0.21922  0.64980  1.0000
  C   C254      1.0  0.53554  0.24554  0.67694  1.0000
  H   H440      1.0  0.64659  0.20545  0.94233  1.0000
  H   H441      1.0  0.53958  0.20118  0.66082  1.0000
  H   H442      1.0  0.54533  0.24761  0.70891  1.0000
  H   H443      1.0  0.59357  0.30121  0.89275  1.0000
  C   C255      1.0  0.72910  0.28481  0.98638  1.0000
  H   H444      1.0  0.63843  0.26294  0.62885  1.0000
  C   C256      1.0  0.67261  0.23472  0.99834  1.0000
  C   C257      1.0  0.66949  0.22760  0.95457  1.0000
  C   C258      1.0  0.69674  0.24857  0.92694  1.0000
  C   C259      1.0  0.51293  0.26589  0.62167  1.0000
  H   H445      1.0  0.47586  0.21936  0.84624  1.0000
  C   C260      1.0  0.59977  0.22040  0.88086  1.0000
  H   H446      1.0  0.56164  0.21034  0.83356  1.0000
  H   H447      1.0  0.53076  0.04826  0.93684  1.0000
  H   H448      1.0  0.59232  0.25514  0.84242  1.0000
  H   H449      1.0  0.48781  0.23884  0.99784  1.0000
  C   C261      1.0  0.52576  0.26884  0.66297  1.0000
  C   C262      1.0  0.67449  0.27025  0.78676  1.0000
  C   C263      1.0  0.50850  0.23891  0.59515  1.0000
  C   C264      1.0  0.80958  0.26303  0.87195  1.0000
  H   H450      1.0  0.49401  0.26057  0.90246  1.0000
  H   H451      1.0  0.79626  0.26579  0.90021  1.0000
  H   H452      1.0  0.50658  0.99040  0.85877  1.0000
  H   H453      1.0  0.56565  0.24708  0.91811  1.0000
  H   H454      1.0  0.78981  0.24362  0.85027  1.0000
  H   H455      1.0  0.49252  0.19158  0.85374  1.0000
  H   H456      1.0  0.56022  0.27684  0.82339  1.0000
  H   H457      1.0  0.50540  0.99124  0.94301  1.0000
  C   C265      1.0  0.61917  0.28713  0.00188  1.0000
  S   S62       1.0  0.52635  0.29920  0.69876  1.0000
  H   H458      1.0  0.61707  0.21805  0.85763  1.0000
  H   H459      1.0  0.56469  0.28490  0.54258  1.0000
  C   C266      1.0  0.57592  0.23021  0.85805  1.0000
  C   C267      1.0  0.48371  0.21459  0.93610  1.0000
  H   H460      1.0  0.57882  0.23671  0.55051  1.0000
  H   H461      1.0  0.68556  0.22585  0.55264  1.0000
  C   C268      1.0  0.55052  0.23160  0.89011  1.0000
  C   C269      1.0  0.54698  0.27840  0.85249  1.0000
  H   H462      1.0  0.51080  0.24554  0.78290  1.0000
  H   H463      1.0  0.47317  0.02961  0.93887  1.0000
  C   C270      1.0  0.83001  0.29708  0.84859  1.0000
  H   H464      1.0  0.84382  0.29315  0.82186  1.0000
  H   H465      1.0  0.59041  0.30704  0.74568  1.0000
  H   H466      1.0  0.62357  0.27963  0.76420  1.0000
  H   H467      1.0  0.65039  0.20122  0.77102  1.0000
  H   H468      1.0  0.53489  0.20518  0.90235  1.0000
  C   C271      1.0  0.70262  0.26308  0.01407  1.0000
  H   H469      1.0  0.58461  0.19529  0.89677  1.0000
  C   C272      1.0  0.67584  0.21890  0.75654  1.0000
  H   H470      1.0  0.64889  0.25205  0.80063  1.0000
  H   H471      1.0  0.49717  0.23590  0.56390  1.0000
  H   H472      1.0  0.49613  0.06763  0.83601  1.0000
  H   H473      1.0  0.61721  0.06594  0.89406  1.0000
  H   H474      1.0  0.54297  0.07989  0.89735  1.0000
  C   C273      1.0  0.59725  0.07215  0.90395  1.0000
  H   H475      1.0  0.61462  0.30091  0.97586  1.0000
  H   H476      1.0  0.69660  0.22258  0.77890  1.0000
  C   C274      1.0  0.48578  0.04166  0.75720  1.0000
  H   H477      1.0  0.67823  0.20674  0.72689  1.0000
  N   N16       1.0  0.52717  0.24403  0.87392  1.0000
  C   C275      1.0  0.72648  0.27736  0.94284  1.0000
  N   N17       1.0  0.49899  0.03177  0.87938  1.0000
  C   C276      1.0  0.53333  0.05209  0.90163  1.0000
  C   C277      1.0  0.58984  0.01554  0.59180  1.0000
  H   H478      1.0  0.52778  0.26512  0.93651  1.0000
  H   H479      1.0  0.59691  0.07319  0.93935  1.0000
  Fe  Fe31      1.0  0.52659  0.09539  0.01986  1.0000
  H   H480      1.0  0.49128  0.00418  0.79226  1.0000
  C   C278      1.0  0.56208  0.04488  0.88696  1.0000
  H   H481      1.0  0.55691  0.01982  0.89941  1.0000
  H   H482      1.0  0.48645  0.19423  0.73615  1.0000
  C   C279      1.0  0.50270  0.04700  0.83526  1.0000
  H   H483      1.0  0.65182  0.29137  0.71973  1.0000
  H   H484      1.0  0.59226  0.27320  0.60520  1.0000
  C   C280      1.0  0.64515  0.28724  0.61251  1.0000
  N   N18       1.0  0.67749  0.30480  0.78142  1.0000
  C   C281      1.0  0.60668  0.25549  0.54799  1.0000
  H   H485      1.0  0.62063  0.30739  0.57202  1.0000
  H   H486      1.0  0.70412  0.26950  0.73094  1.0000
  H   H487      1.0  0.56755  0.98931  0.58727  1.0000
  H   H488      1.0  0.49721  0.20159  0.94846  1.0000
  H   H489      1.0  0.59459  0.26326  0.00869  1.0000
  Fe  Fe32      1.0  0.60183  0.15139  0.55417  1.0000
  H   H490      1.0  0.52872  0.28655  0.84107  1.0000
  H   H491      1.0  0.61901  0.24005  0.55540  1.0000
  C   C282      1.0  0.67862  0.25312  0.74595  1.0000
  C   C283      1.0  0.60800  0.02990  0.54933  1.0000
  H   H492      1.0  0.82696  0.25372  0.88255  1.0000
  H   H493      1.0  0.60800  0.01423  0.61462  1.0000
  C   C284      1.0  0.64892  0.30010  0.75180  1.0000
  H   H494      1.0  0.56372  0.04412  0.85175  1.0000
  H   H495      1.0  0.48374  0.06571  0.90772  1.0000
  H   H496      1.0  0.47099  0.02336  0.73121  1.0000
  H   H497      1.0  0.60436  0.09766  0.89101  1.0000
  C   C285      1.0  0.50831  0.22150  0.79555  1.0000
  H   H498      1.0  0.51331  0.05645  0.74752  1.0000
  H   H499      1.0  0.58064  0.03210  0.60579  1.0000
  H   H500      1.0  0.61577  0.01196  0.53651  1.0000
  H   H501      1.0  0.52992  0.06069  0.82422  1.0000
  H   H502      1.0  0.66732  0.27904  0.86942  1.0000
  H   H503      1.0  0.63160  0.05479  0.55609  1.0000
  H   H504      1.0  0.66894  0.29575  0.59355  1.0000
  H   H505      1.0  0.47585  0.05953  0.76131  1.0000
  S   S63       1.0  0.76050  0.30378  0.90842  1.0000
  C   C286      1.0  0.48179  0.02218  0.79849  1.0000
  C   C287      1.0  0.47412  0.03772  0.90522  1.0000
  C   C288      1.0  0.47931  0.19212  0.77035  1.0000
  S   S64       1.0  0.50142  0.03280  0.53471  1.0000
  H   H506      1.0  0.65036  0.30697  0.63713  1.0000
  H   H507      1.0  0.47452  0.16708  0.78225  1.0000
  C   C289      1.0  0.46759  0.22211  0.97454  1.0000
  C   C290      1.0  0.57480  0.30796  0.88002  1.0000
  H   H508      1.0  0.73934  0.28051  0.53670  1.0000
  C   C291      1.0  0.49189  0.98980  0.54034  1.0000
  H   H509      1.0  0.81118  0.30359  0.83505  1.0000
  C   C292      1.0  0.48289  0.97679  0.92172  1.0000
  C   C293      1.0  0.68351  0.30698  0.86478  1.0000
  H   H510      1.0  0.75211  0.30665  0.99900  1.0000
  Fe  Fe33      1.0  0.84986  0.41680  0.37066  1.0000
  S   S65       1.0  0.83485  0.36257  0.35473  1.0000
  S   S66       1.0  0.90429  0.46280  0.38228  1.0000
  Fe  Fe34      1.0  0.77352  0.39914  0.36827  1.0000
  S   S67       1.0  0.75398  0.34434  0.35085  1.0000
  S   S68       1.0  0.73260  0.41158  0.38787  1.0000
  Fe  Fe35      1.0  0.79044  0.34622  0.40088  1.0000
  Fe  Fe36      1.0  0.79934  0.36575  0.30607  1.0000
  S   S69       1.0  0.79330  0.34396  0.23892  1.0000
  S   S70       1.0  0.80827  0.40043  0.42024  1.0000
  S   S71       1.0  0.81614  0.42066  0.31982  1.0000
  H   H511      1.0  0.55275  0.52096  0.19911  1.0000
  Fe  Fe37      1.0  0.55131  0.35504  0.21140  1.0000
  S   S72       1.0  0.57471  0.40961  0.18996  1.0000
  Fe  Fe38      1.0  0.53430  0.37443  0.29953  1.0000
  S   S73       1.0  0.55732  0.43012  0.28350  1.0000
  S   S74       1.0  0.51170  0.35236  0.36456  1.0000
  Fe  Fe39      1.0  0.52985  0.41075  0.22060  1.0000
  S   S75       1.0  0.50553  0.43558  0.18042  1.0000
  Fe  Fe40      1.0  0.59968  0.42405  0.25421  1.0000
  S   S76       1.0  0.65711  0.45949  0.25936  1.0000
  S   S77       1.0  0.57853  0.37009  0.27458  1.0000
  C   C294      1.0  0.53494  0.37241  0.41183  1.0000
  C   C295      1.0  0.52231  0.35655  0.45146  1.0000
  C   C296      1.0  0.54004  0.37215  0.48960  1.0000
  C   C297      1.0  0.57031  0.40403  0.48843  1.0000
  C   C298      1.0  0.58262  0.41999  0.44885  1.0000
  C   C299      1.0  0.56532  0.40417  0.41073  1.0000
  H   H512      1.0  0.50950  0.46294  0.37400  1.0000
  H   H513      1.0  0.65789  0.36867  0.51490  1.0000
  H   H514      1.0  0.60567  0.44479  0.44762  1.0000
  H   H515      1.0  0.57533  0.41672  0.38051  1.0000
  H   H516      1.0  0.60880  0.34104  0.37788  1.0000
  C   C300      1.0  0.67776  0.44466  0.29353  1.0000
  C   C301      1.0  0.65986  0.42299  0.32748  1.0000
  C   C302      1.0  0.67700  0.41271  0.35580  1.0000
  C   C303      1.0  0.71186  0.42331  0.34986  1.0000
  C   C304      1.0  0.72982  0.44476  0.31580  1.0000
  C   C305      1.0  0.71283  0.45567  0.28789  1.0000
  H   H517      1.0  0.63317  0.41529  0.33296  1.0000
  H   H518      1.0  0.66326  0.39679  0.38269  1.0000
  H   H519      1.0  0.75691  0.45351  0.31150  1.0000
  H   H520      1.0  0.72685  0.47269  0.26191  1.0000
  C   C306      1.0  0.80675  0.40416  0.11563  1.0000
  C   C307      1.0  0.80191  0.37116  0.11398  1.0000
  C   C308      1.0  0.79800  0.35308  0.15202  1.0000
  C   C309      1.0  0.79890  0.36778  0.19193  1.0000
  C   C310      1.0  0.80403  0.40085  0.19349  1.0000
  C   C311      1.0  0.80791  0.41891  0.15555  1.0000
  H   H521      1.0  0.80105  0.35953  0.08346  1.0000
  H   H522      1.0  0.79405  0.32747  0.15048  1.0000
  H   H523      1.0  0.80473  0.41247  0.22391  1.0000
  H   H524      1.0  0.81172  0.44446  0.15714  1.0000
  H   H525      1.0  0.58998  0.56336  0.20079  1.0000
  C   C312      1.0  0.94609  0.46724  0.38503  1.0000
  C   C313      1.0  0.63155  0.30910  0.04223  1.0000
  H   H526      1.0  0.49883  0.33197  0.45265  1.0000
  H   H527      1.0  0.92915  0.41371  0.37965  1.0000
  S   S78       1.0  0.50414  0.35457  0.23799  1.0000
  H   H528      1.0  0.90719  0.40321  0.15595  1.0000
  H   H529      1.0  0.48962  0.44442  0.53188  1.0000
  H   H530      1.0  0.89275  0.50355  0.30998  1.0000
  H   H531      1.0  0.47890  0.62330  0.24830  1.0000
  C   C314      1.0  0.70724  0.34002  0.46435  1.0000
  C   C315      1.0  0.65658  0.37730  0.08842  1.0000
  C   C316      1.0  0.56014  0.59697  0.16107  1.0000
  C   C317      1.0  0.70684  0.32868  0.09575  1.0000
  H   H532      1.0  0.53024  0.35953  0.51984  1.0000
  H   H533      1.0  0.57217  0.64111  0.09847  1.0000
  H   H534      1.0  0.57265  0.54216  0.15011  1.0000
  H   H535      1.0  0.46727  0.58549  0.18542  1.0000
  C   C318      1.0  0.50852  0.58812  0.11988  1.0000
  C   C319      1.0  0.94924  0.45197  0.21704  1.0000
  H   H536      1.0  0.59977  0.53441  0.47218  1.0000
  C   C320      1.0  0.72212  0.49659  0.52050  1.0000
  H   H537      1.0  0.47386  0.56688  0.04125  1.0000
  H   H538      1.0  0.74557  0.40950  0.24620  1.0000
  C   C321      1.0  0.67985  0.47766  0.42589  1.0000
  C   C322      1.0  0.52313  0.61910  0.18923  1.0000
  C   C323      1.0  0.56599  0.54617  0.18292  1.0000
  H   H539      1.0  0.96086  0.42159  0.17164  1.0000
  H   H540      1.0  0.48969  0.56404  0.13583  1.0000
  H   H541      1.0  0.91266  0.45520  0.06268  1.0000
  H   H542      1.0  0.75398  0.46815  0.04939  1.0000
  H   H543      1.0  0.72346  0.33343  0.48427  1.0000
  H   H544      1.0  0.62582  0.39009  0.15918  1.0000
  H   H545      1.0  0.52584  0.50583  0.51739  1.0000
  H   H546      1.0  0.68535  0.38296  0.27298  1.0000
  H   H547      1.0  0.65600  0.43521  0.16244  1.0000
  C   C324      1.0  0.47304  0.40851  0.38263  1.0000
  H   H548      1.0  0.78070  0.50253  0.43702  1.0000
  C   C325      1.0  0.89966  0.42200  0.16605  1.0000
  H   H549      1.0  0.58036  0.61404  0.18414  1.0000
  H   H550      1.0  0.47431  0.38640  0.39526  1.0000
  H   H551      1.0  0.70247  0.36564  0.13402  1.0000
  H   H552      1.0  0.53613  0.59957  0.05825  1.0000
  H   H553      1.0  0.71461  0.39671  0.20381  1.0000
  H   H554      1.0  0.48542  0.45526  0.26021  1.0000
  H   H555      1.0  0.58731  0.49358  0.44813  1.0000
  H   H556      1.0  0.47414  0.46281  0.12571  1.0000
  H   H557      1.0  0.69895  0.49429  0.36129  1.0000
  C   C326      1.0  0.51924  0.57720  0.07829  1.0000
  C   C327      1.0  0.68506  0.43690  0.49328  1.0000
  C   C328      1.0  0.54210  0.56103  0.18162  1.0000
  H   H558      1.0  0.49363  0.60071  0.11069  1.0000
  H   H559      1.0  0.91964  0.43088  0.52886  1.0000
  H   H560      1.0  0.66245  0.32858  0.12319  1.0000
  H   H561      1.0  0.91652  0.41937  0.07994  1.0000
  H   H562      1.0  0.51871  0.54256  0.16393  1.0000
  S   S79       1.0  0.56641  0.32087  0.17364  1.0000
  C   C329      1.0  0.47522  0.46266  0.23384  1.0000
  C   C330      1.0  0.56337  0.49025  0.50933  1.0000
  C   C331      1.0  0.66534  0.34335  0.03394  1.0000
  H   H563      1.0  0.90583  0.51968  0.25671  1.0000
  H   H564      1.0  0.75263  0.46042  0.51954  1.0000
  H   H565      1.0  0.48838  0.56574  0.21066  1.0000
  H   H566      1.0  0.87554  0.41782  0.08342  1.0000
  H   H567      1.0  0.91744  0.39351  0.50510  1.0000
  H   H568      1.0  0.72416  0.47303  0.41737  1.0000
  H   H569      1.0  0.65533  0.31751  0.44093  1.0000
  C   C332      1.0  0.57785  0.50810  0.46682  1.0000
  C   C333      1.0  0.67196  0.40726  0.12105  1.0000
  H   H570      1.0  0.53509  0.56279  0.21507  1.0000
  N   N19       1.0  0.68109  0.36610  0.07244  1.0000
  H   H571      1.0  0.47932  0.40202  0.31555  1.0000
  C   C334      1.0  0.48859  0.59007  0.20722  1.0000
  C   C335      1.0  0.93168  0.42190  0.50505  1.0000
  H   H572      1.0  0.79084  0.51919  0.49054  1.0000
  C   C336      1.0  0.71546  0.48470  0.44225  1.0000
  H   H573      1.0  0.66109  0.43799  0.48968  1.0000
  H   H574      1.0  0.73379  0.51277  0.44078  1.0000
  H   H575      1.0  0.69660  0.52612  0.39375  1.0000
  H   H576      1.0  0.54305  0.46357  0.50200  1.0000
  C   C337      1.0  0.48197  0.45670  0.19210  1.0000
  H   H577      1.0  0.51828  0.44372  0.41901  1.0000
  N   N20       1.0  0.53740  0.61140  0.14963  1.0000
  C   C338      1.0  0.90389  0.43456  0.08674  1.0000
  N   N21       1.0  0.91063  0.43386  0.21142  1.0000
  C   C339      1.0  0.89283  0.40392  0.24169  1.0000
  C   C340      1.0  0.89909  0.45913  0.22209  1.0000
  C   C341      1.0  0.90347  0.47121  0.26925  1.0000
  C   C342      1.0  0.88616  0.36860  0.22531  1.0000
  H   H578      1.0  0.74210  0.44301  0.46740  1.0000
  H   H579      1.0  0.68328  0.41849  0.46820  1.0000
  H   H580      1.0  0.70698  0.36044  0.28888  1.0000
  H   H581      1.0  0.90722  0.40988  0.27242  1.0000
  H   H582      1.0  0.86676  0.39938  0.25034  1.0000
  H   H583      1.0  0.87141  0.44813  0.21368  1.0000
  H   H584      1.0  0.91346  0.48275  0.20278  1.0000
  H   H585      1.0  0.80393  0.46426  0.45156  1.0000
  H   H586      1.0  0.53287  0.56311  0.08566  1.0000
  H   H587      1.0  0.88880  0.44932  0.29092  1.0000
  H   H588      1.0  0.86475  0.35802  0.20171  1.0000
  C   C343      1.0  0.66533  0.33370  0.24102  1.0000
  H   H589      1.0  0.87163  0.31813  0.24876  1.0000
  H   H590      1.0  0.52750  0.43543  0.36607  1.0000
  H   H591      1.0  0.89612  0.35218  0.28634  1.0000
  H   H592      1.0  0.70632  0.36186  0.47916  1.0000
  C   C344      1.0  0.50928  0.43966  0.38541  1.0000
  H   H593      1.0  0.62977  0.41771  0.11530  1.0000
  H   H594      1.0  0.73329  0.34698  0.08472  1.0000
  C   C345      1.0  0.68365  0.49844  0.38593  1.0000
  H   H595      1.0  0.94159  0.46666  0.13306  1.0000
  C   C346      1.0  0.78242  0.49603  0.47063  1.0000
  C   C347      1.0  0.72411  0.38714  0.22976  1.0000
  H   H596      1.0  0.64938  0.34403  0.32017  1.0000
  H   H597      1.0  0.87100  0.40793  0.16395  1.0000
  H   H598      1.0  0.73297  0.38783  0.04798  1.0000
  H   H599      1.0  0.64566  0.38480  0.06154  1.0000
  H   H600      1.0  0.81461  0.48083  0.50547  1.0000
  H   H601      1.0  0.56043  0.32089  0.48465  1.0000
  C   C348      1.0  0.64408  0.41284  0.14049  1.0000
  H   H602      1.0  0.68497  0.40225  0.14752  1.0000
  C   C349      1.0  0.71524  0.39638  0.05977  1.0000
  H   H603      1.0  0.54252  0.62824  0.21542  1.0000
  C   C350      1.0  0.91318  0.45020  0.13147  1.0000
  H   H604      1.0  0.83538  0.50853  0.46071  1.0000
  H   H605      1.0  0.69099  0.43150  0.10551  1.0000
  H   H606      1.0  0.92916  0.43056  0.47287  1.0000
  H   H607      1.0  0.90124  0.46636  0.13529  1.0000
  C   C351      1.0  0.46910  0.46726  0.15813  1.0000
  S   S80       1.0  0.81201  0.42838  0.06915  1.0000
  C   C352      1.0  0.69536  0.36644  0.26154  1.0000
  H   H608      1.0  0.90886  0.37017  0.20948  1.0000
  N   N22       1.0  0.71691  0.47125  0.48583  1.0000
  C   C353      1.0  0.68724  0.34750  0.10806  1.0000
  H   H609      1.0  0.72888  0.41258  0.08801  1.0000
  H   H610      1.0  0.86284  0.48421  0.26644  1.0000
  H   H611      1.0  0.73431  0.37133  0.21623  1.0000
  H   H612      1.0  0.63370  0.35548  0.10375  1.0000
  C   C354      1.0  0.74757  0.46589  0.48670  1.0000
  H   H613      1.0  0.93088  0.48461  0.27922  1.0000
  H   H614      1.0  0.65779  0.49034  0.37239  1.0000
  H   H615      1.0  0.72306  0.32690  0.16081  1.0000
  H   H616      1.0  0.69334  0.30974  0.07010  1.0000
  H   H617      1.0  0.65036  0.34187  0.22075  1.0000
  C   C355      1.0  0.95114  0.43920  0.38318  1.0000
  C   C356      1.0  0.81074  0.48675  0.47233  1.0000
  H   H618      1.0  0.71961  0.34814  0.43265  1.0000
  C   C357      1.0  0.87572  0.34282  0.26150  1.0000
  C   C358      1.0  0.89038  0.49619  0.27578  1.0000
  H   H619      1.0  0.74595  0.52144  0.51461  1.0000
  H   H620      1.0  0.85122  0.33810  0.27609  1.0000
  H   H621      1.0  0.66575  0.48379  0.44981  1.0000
  H   H622      1.0  0.66349  0.45019  0.41748  1.0000
  H   H623      1.0  0.61478  0.33355  0.28445  1.0000
  H   H624      1.0  0.46988  0.53015  0.06927  1.0000
  C   C359      1.0  0.48775  0.55354  0.05120  1.0000
  H   H625      1.0  0.55757  0.50926  0.44795  1.0000
  H   H626      1.0  0.96009  0.41061  0.22734  1.0000
  H   H627      1.0  0.95620  0.45924  0.25103  1.0000
  H   H628      1.0  0.58422  0.48891  0.52622  1.0000
  H   H629      1.0  0.61354  0.31596  0.49644  1.0000
  H   H630      1.0  0.57462  0.59643  0.13253  1.0000
  H   H631      1.0  0.67716  0.32343  0.21862  1.0000
  C   C360      1.0  0.62800  0.32237  0.30258  1.0000
  H   H632      1.0  0.61080  0.31401  0.05259  1.0000
  H   H633      1.0  0.96183  0.47661  0.19948  1.0000
  H   H634      1.0  0.66151  0.31606  0.52474  1.0000
  C   C361      1.0  0.48057  0.59971  0.25074  1.0000
  H   H635      1.0  0.69396  0.52167  0.49989  1.0000
  C   C362      1.0  0.58809  0.31713  0.36316  1.0000
  H   H636      1.0  0.57200  0.32328  0.34239  1.0000
  H   H637      1.0  0.50069  0.60371  0.27432  1.0000
  C   C363      1.0  0.70971  0.30926  0.13372  1.0000
  H   H638      1.0  0.51805  0.64043  0.18302  1.0000
  H   H639      1.0  0.67526  0.30972  0.32358  1.0000
  S   S81       1.0  0.77501  0.31126  0.45888  1.0000
  C   C364      1.0  0.67096  0.30922  0.45918  1.0000
  H   H640      1.0  0.66723  0.48170  0.52722  1.0000
  C   C365      1.0  0.69302  0.50501  0.52630  1.0000
  H   H641      1.0  0.62784  0.38214  0.53138  1.0000
  Fe  Fe41      1.0  0.84763  0.43050  0.91520  1.0000
  S   S82       1.0  0.82169  0.45449  0.95109  1.0000
  S   S83       1.0  0.89586  0.45915  0.87408  1.0000
  Fe  Fe42      1.0  0.78692  0.35875  0.92980  1.0000
  S   S84       1.0  0.75746  0.37723  0.96786  1.0000
  H   H642      1.0  0.51014  0.55803  0.80092  1.0000
  Fe  Fe43      1.0  0.77284  0.41696  0.91693  1.0000
  S   S85       1.0  0.72884  0.42480  0.89553  1.0000
  Fe  Fe44      1.0  0.80814  0.41260  0.99926  1.0000
  H   H643      1.0  0.96411  0.41789  0.94068  1.0000
  S   S86       1.0  0.79960  0.39635  0.87720  1.0000
  S   S87       1.0  0.83699  0.39065  0.96510  1.0000
  C   C366      1.0  0.74404  0.33804  0.78683  1.0000
  H   H644      1.0  0.65130  0.37291  0.57070  1.0000
  Fe  Fe45      1.0  0.58335  0.40597  0.60376  1.0000
  S   S88       1.0  0.53360  0.38471  0.64046  1.0000
  Fe  Fe46      1.0  0.62569  0.41163  0.68502  1.0000
  S   S89       1.0  0.57937  0.39277  0.72708  1.0000
  S   S90       1.0  0.67901  0.42179  0.70426  1.0000
  Fe  Fe47      1.0  0.55270  0.35367  0.67519  1.0000
  H   H645      1.0  0.79962  0.36747  0.78135  1.0000
  Fe  Fe48      1.0  0.56463  0.42566  0.68890  1.0000
  S   S91       1.0  0.55199  0.46477  0.71761  1.0000
  S   S92       1.0  0.59953  0.37144  0.63426  1.0000
  S   S93       1.0  0.61391  0.44805  0.65106  1.0000
  H   H646      1.0  0.48722  0.49061  0.57203  1.0000
  H   H647      1.0  0.71342  0.32265  0.72859  1.0000
  H   H648      1.0  0.49152  0.52955  0.73117  1.0000
  C   C367      1.0  0.90362  0.38350  0.89239  1.0000
  C   C368      1.0  0.51508  0.46937  0.71265  1.0000
  H   H649      1.0  0.46860  0.43408  0.58286  1.0000
  H   H650      1.0  0.53471  0.55410  0.62555  1.0000
  H   H651      1.0  0.46907  0.53317  0.57350  1.0000
  H   H652      1.0  0.56294  0.31417  0.90705  1.0000
  C   C369      1.0  0.71475  0.42221  0.84209  1.0000
  C   C370      1.0  0.68316  0.42063  0.83433  1.0000
  C   C371      1.0  0.67154  0.41982  0.79239  1.0000
  C   C372      1.0  0.69177  0.42125  0.75767  1.0000
  C   C373      1.0  0.72318  0.42238  0.76541  1.0000
  C   C374      1.0  0.73447  0.42250  0.80738  1.0000
  H   H653      1.0  0.66785  0.42066  0.86094  1.0000
  H   H654      1.0  0.64737  0.41901  0.78695  1.0000
  H   H655      1.0  0.73905  0.42359  0.73878  1.0000
  H   H656      1.0  0.75892  0.42392  0.81287  1.0000
  H   H657      1.0  0.49419  0.44089  0.85573  1.0000
  H   H658      1.0  0.53091  0.58911  0.84284  1.0000
  C   C375      1.0  0.94022  0.47776  0.88717  1.0000
  H   H659      1.0  0.95968  0.37812  0.86542  1.0000
  H   H660      1.0  0.93312  0.47052  0.95484  1.0000
  C   C376      1.0  0.50932  0.50355  0.59450  1.0000
  N   N23       1.0  0.88520  0.35676  0.85821  1.0000
  H   H661      1.0  0.61382  0.52861  0.57512  1.0000
  H   H662      1.0  0.89886  0.43687  0.75166  1.0000
  C   C377      1.0  0.52501  0.45951  0.58711  1.0000
  C   C378      1.0  0.60054  0.51496  0.60470  1.0000
  C   C379      1.0  0.61186  0.32340  0.72377  1.0000
  H   H663      1.0  0.72320  0.54810  0.56923  1.0000
  H   H664      1.0  0.85386  0.37887  0.84211  1.0000
  H   H665      1.0  0.71063  0.31332  0.86313  1.0000
  H   H666      1.0  0.92669  0.40638  0.87957  1.0000
  H   H667      1.0  0.47166  0.53081  0.63083  1.0000
  C   C380      1.0  0.48913  0.50546  0.72172  1.0000
  H   H668      1.0  0.49904  0.49210  0.62631  1.0000
  H   H669      1.0  0.49350  0.57159  0.60464  1.0000
  H   H670      1.0  0.55901  0.50984  0.64512  1.0000
  H   H671      1.0  0.47997  0.38735  0.59280  1.0000
  H   H672      1.0  0.76913  0.44711  0.01376  1.0000
  H   H673      1.0  0.88698  0.39358  0.90381  1.0000
  C   C381      1.0  0.54835  0.50884  0.53593  1.0000
  H   H674      1.0  0.71276  0.35548  0.75809  1.0000
  H   H675      1.0  0.61412  0.51929  0.67217  1.0000
  H   H676      1.0  0.48065  0.55728  0.88976  1.0000
  H   H677      1.0  0.85372  0.35057  0.80263  1.0000
  H   H678      1.0  0.59453  0.48818  0.60243  1.0000
  C   C382      1.0  0.87922  0.41491  0.77040  1.0000
  H   H679      1.0  0.57697  0.54512  0.60967  1.0000
  H   H680      1.0  0.74478  0.31446  0.79381  1.0000
  C   C383      1.0  0.77668  0.36200  0.76206  1.0000
  H   H681      1.0  0.60799  0.30994  0.69281  1.0000
  C   C384      1.0  0.90814  0.34537  0.83725  1.0000
  H   H682      1.0  0.60767  0.33638  0.82634  1.0000
  C   C385      1.0  0.94069  0.40098  0.95957  1.0000
  H   H683      1.0  0.89842  0.33534  0.80464  1.0000
  C   C386      1.0  0.59475  0.34061  0.85385  1.0000
  H   H684      1.0  0.61477  0.36123  0.87409  1.0000
  H   H685      1.0  0.89151  0.35564  0.95288  1.0000
  C   C387      1.0  0.94719  0.37235  0.83361  1.0000
  H   H686      1.0  0.94846  0.39115  0.98719  1.0000
  C   C388      1.0  0.69743  0.52457  0.56781  1.0000
  H   H687      1.0  0.68675  0.31499  0.93317  1.0000
  C   C389      1.0  0.50558  0.57023  0.82898  1.0000
  H   H688      1.0  0.86458  0.31438  0.90238  1.0000
  C   C390      1.0  0.56778  0.51736  0.61164  1.0000
  H   H689      1.0  0.49609  0.54570  0.02206  1.0000
  H   H690      1.0  0.57717  0.34927  0.84181  1.0000
  C   C391      1.0  0.91441  0.37110  0.93245  1.0000
  H   H691      1.0  0.69641  0.35225  0.90255  1.0000
  H   H692      1.0  0.69426  0.50818  0.59570  1.0000
  H   H693      1.0  0.46631  0.47048  0.89549  1.0000
  H   H694      1.0  0.64968  0.34745  0.77279  1.0000
  H   H695      1.0  0.77776  0.38662  0.75551  1.0000
  H   H696      1.0  0.91659  0.42184  0.81763  1.0000
  H   H697      1.0  0.86522  0.42416  0.79059  1.0000
  C   C392      1.0  0.68222  0.42084  0.53777  1.0000
  C   C393      1.0  0.64652  0.33257  0.74339  1.0000
  H   H698      1.0  0.68586  0.34649  0.82394  1.0000
  H   H699      1.0  0.54149  0.52050  0.73865  1.0000
  H   H700      1.0  0.64919  0.52986  0.63634  1.0000
  H   H701      1.0  0.91013  0.39155  0.77603  1.0000
  H   H702      1.0  0.52139  0.45282  0.62156  1.0000
  H   H703      1.0  0.68432  0.33786  0.01829  1.0000
  H   H704      1.0  0.95187  0.39683  0.82014  1.0000
  C   C394      1.0  0.48367  0.39882  0.56068  1.0000
  H   H705      1.0  0.74506  0.35122  0.81708  1.0000
  H   H706      1.0  0.53253  0.55571  0.56813  1.0000
  C   C395      1.0  0.51745  0.50028  0.72571  1.0000
  H   H707      1.0  0.66696  0.34956  0.72067  1.0000
  H   H708      1.0  0.61109  0.34715  0.71815  1.0000
  H   H709      1.0  0.64470  0.30953  0.82892  1.0000
  C   C396      1.0  0.71136  0.33041  0.76166  1.0000
  H   H710      1.0  0.95621  0.48943  0.82162  1.0000
  H   H711      1.0  0.54429  0.45260  0.57656  1.0000
  C   C397      1.0  0.85512  0.32620  0.87905  1.0000
  C   C398      1.0  0.95160  0.47969  0.92908  1.0000
  C   C399      1.0  0.47788  0.43774  0.82756  1.0000
  C   C400      1.0  0.67938  0.32416  0.90450  1.0000
  C   C401      1.0  0.48380  0.44344  0.69609  1.0000
  C   C402      1.0  0.89699  0.40059  0.79801  1.0000
  C   C403      1.0  0.67238  0.31799  0.82382  1.0000
  H   H712      1.0  0.56736  0.53677  0.53529  1.0000
  H   H713      1.0  0.95556  0.35457  0.77246  1.0000
  C   C404      1.0  0.51850  0.54146  0.59704  1.0000
  H   H714      1.0  0.50545  0.39847  0.54439  1.0000
  H   H715      1.0  0.83938  0.33435  0.89793  1.0000
  H   H716      1.0  0.49093  0.49008  0.82512  1.0000
  H   H717      1.0  0.63401  0.55953  0.64400  1.0000
  H   H718      1.0  0.86081  0.39510  0.74794  1.0000
  H   H719      1.0  0.70591  0.42062  0.54671  1.0000
  C   C405      1.0  0.87061  0.37066  0.82582  1.0000
  H   H720      1.0  0.77763  0.35004  0.73148  1.0000
  H   H721      1.0  0.90688  0.32339  0.85470  1.0000
  H   H722      1.0  0.49238  0.58413  0.81870  1.0000
  H   H723      1.0  0.49883  0.53156  0.87377  1.0000
  H   H724      1.0  0.92917  0.41598  0.97193  1.0000
  C   C406      1.0  0.74805  0.45253  0.01987  1.0000
  N   N24       1.0  0.53808  0.49720  0.58144  1.0000
  C   C407      1.0  0.49030  0.43525  0.56436  1.0000
  H   H725      1.0  0.49307  0.44047  0.79837  1.0000
  C   C408      1.0  0.48402  0.54353  0.86241  1.0000
  H   H726      1.0  0.48143  0.41941  0.68630  1.0000
  H   H727      1.0  0.65899  0.35683  0.00918  1.0000
  C   C409      1.0  0.71368  0.41924  0.02414  1.0000
  H   H728      1.0  0.92551  0.35491  0.92367  1.0000
  C   C410      1.0  0.62595  0.53203  0.64153  1.0000
  H   H729      1.0  0.74684  0.46750  0.99266  1.0000
  H   H730      1.0  0.67696  0.43521  0.56259  1.0000
  H   H731      1.0  0.70799  0.40576  0.99294  1.0000
  C   C411      1.0  0.48614  0.54429  0.60170  1.0000
  H   H732      1.0  0.67745  0.53205  0.56959  1.0000
  H   H733      1.0  0.72658  0.48779  0.55168  1.0000
  C   C412      1.0  0.65286  0.38381  0.53861  1.0000
  H   H734      1.0  0.96307  0.33521  0.81858  1.0000
  H   H735      1.0  0.65232  0.31801  0.90815  1.0000
  C   C413      1.0  0.46709  0.46478  0.82775  1.0000
  S   S94       1.0  0.59361  0.42536  0.53514  1.0000
  H   H736      1.0  0.69360  0.42606  0.03027  1.0000
  H   H737      1.0  0.59664  0.95076  0.44583  1.0000
  H   H738      1.0  0.62711  0.72789  0.14595  1.0000
  C   C414      1.0  0.50054  0.89759  0.15928  1.0000
  C   C415      1.0  0.49129  0.74606  0.08116  1.0000
  H   H739      1.0  0.48460  0.96688  0.23282  1.0000
  H   H740      1.0  0.50084  0.87510  0.17275  1.0000
  C   C416      1.0  0.60642  0.70712  0.12655  1.0000
  H   H741      1.0  0.51889  0.72028  0.09719  1.0000
  C   C417      1.0  0.47035  0.93315  0.50785  1.0000
  H   H742      1.0  0.58798  0.71540  0.11676  1.0000
  H   H743      1.0  0.61830  0.70310  0.09766  1.0000
  H   H744      1.0  0.51391  0.76833  0.06875  1.0000
  C   C418      1.0  0.57315  0.95080  0.43492  1.0000
  C   C419      1.0  0.49410  0.71879  0.09722  1.0000
  H   H745      1.0  0.52679  0.92028  0.16233  1.0000
  C   C420      1.0  0.58807  0.67439  0.15286  1.0000
  H   H746      1.0  0.46634  0.91777  0.04844  1.0000
  H   H747      1.0  0.54229  0.65423  0.11343  1.0000
  S   S95       1.0  0.46966  0.65434  0.12727  1.0000
  H   H748      1.0  0.60772  0.66789  0.16295  1.0000
  H   H749      1.0  0.57769  0.68033  0.18168  1.0000
  H   H750      1.0  0.46661  0.92803  0.12897  1.0000
  H   H751      1.0  0.55051  0.92497  0.44054  1.0000
  H   H752      1.0  0.49379  0.89257  0.12494  1.0000
  C   C421      1.0  0.47840  0.96750  0.50509  1.0000
  C   C422      1.0  0.48809  0.97264  0.04485  1.0000
  H   H753      1.0  0.48359  0.90960  0.21670  1.0000
  C   C423      1.0  0.46491  0.68915  0.11158  1.0000
  H   H754      1.0  0.57506  0.95601  0.40017  1.0000
  C   C424      1.0  0.55911  0.64476  0.12639  1.0000
  H   H755      1.0  0.49792  0.95589  0.16543  1.0000
  C   C425      1.0  0.47430  0.90341  0.18338  1.0000
  H   H756      1.0  0.56539  0.96998  0.49370  1.0000
  H   H757      1.0  0.48561  0.94775  0.30585  1.0000
  C   C426      1.0  0.47156  0.93316  0.16359  1.0000
  H   H758      1.0  0.47249  0.92850  0.94862  1.0000
  C   C427      1.0  0.47543  0.92054  0.54608  1.0000
  C   C428      1.0  0.48944  0.94300  0.58108  1.0000
  H   H759      1.0  0.49117  0.70360  0.96512  1.0000
  H   H760      1.0  0.49385  0.93366  0.61070  1.0000
  C   C429      1.0  0.46952  0.76702  0.86699  1.0000
  H   H761      1.0  0.49010  0.76419  0.85118  1.0000
  C   C430      1.0  0.47767  0.66356  0.01001  1.0000
  H   H762      1.0  0.46733  0.73095  0.93319  1.0000
  H   H763      1.0  0.49940  0.68023  0.03143  1.0000
  H   H764      1.0  0.48022  0.78325  0.89595  1.0000
  H   H765      1.0  0.49976  0.94126  0.90218  1.0000
  H   H766      1.0  0.48626  0.64936  0.98934  1.0000
  C   C431      1.0  0.47691  0.94063  0.91677  1.0000
  H   H767      1.0  0.47853  0.70993  0.60955  1.0000
  C   C432      1.0  0.46779  0.68537  0.98315  1.0000
  S   S96       1.0  0.46540  0.87736  0.55167  1.0000
  H   H768      1.0  0.46731  0.70565  0.88948  1.0000
