data_image0
_chemical_formula_structural       FeS2FeS2FeSFeS3FeS2FeS2FeSFeS3FeS2FeS2FeSFeS3C3H2CH2C3H2C6H4C2H2C6H4CH5CH5C3HC5HCH2NC12H28CH2CH4CHCNH5CHCNC11H11CH10CH5CH2C2H4NCH2C4HC3HCH14CH7CHC3H5C2H3NHCH2C2HC2H5NC11H14CH4C2H4CH2NC3H2CHCH7C2H4CH2CH5CH2C2H6CH2CH2FeS2FeS2FeSFeS3FeS2FeS2FeSFeS3FeS2FeS2FeSFeS3CH2C6H4CH2C2H2CHC2H2C6H4CHCHC3H4CHC2HNCHC3H2NC11H33CH2NC8HC3H26CHC2H2C3H3C2HCH2CH3CH3CHCH4CH6CHCH6NC2H5CHCHCHC4HCH2CHCH6C2H3CH3C2H2CHC2H7CH2CH6C3H4CHCHCHCHCHNC2HCNCH7C2H3CH2C2H9FeS2FeS2FeSFeS3FeS2FeS2FeSFeS3FeS2FeS2FeSFeS3CHC2HC3HCH2C2H3C6H4CHC7H4C3H2C2H2C3HCH2C5H2CH9CH4CH2C4NH2CH3CH4CH2NC10HCH17NH4CH5C2H9C3H4NC4H5CH4CHCH6CH2C2H2CH3C3H4CHCH2CH2C2H4CH2NCHCH7CHC2HCH2CH4CH5C2H5NHCH3CH3CH9NCHCH2C2H4CHCH2CHCH2C2HCH3C2H2CH2C2HCH4CH2CFeS2FeS2FeSFeS3FeS2FeS2FeSFeS3FeSHFeS2FeSFeS3C3H4C6H4C2HC2H4C2NHC6H4CH3CH2CNCHC2HC2H3CH3SCHCH5C2HCH3CNHCH3CHCH7CH6C4H3CHCH3CH4C2HCH3CNC9H2CH20C2H7CH2C3HC5H6CNHC2H2C2H8CHCH3CH2CH5CH3CHCHCH8CH4CHCHCH3CHCH3CH2CHC3H2CHC2FeS2FeS2FeSFeS3FeS2FeS2FeSFeS3H2NH2C2H2CH8CHC4HC6H10C2H4CHCHCH2C2H4CH3CH2CH2CHCH4CH6C2H9CH5C2H2C4H2CH4C7H2C2HC3NCHCHCH7C2H3CHC2H3NC2HCH2CH7CH4CHNH3CH2C2H6C2H3CH4CFeS2FeS2FeSFeS3FeS2FeS2FeSFeS3H4CHCHC2H2CHC6H6C4H3CH2CH4C2HC2H3CHC3H2CHCH2CH4CH8NCHCH2CH3CHC2HCH2CH7C2H3CH2C5H4NHCH2CH9CH2C2HCHCH2CH2C2H4CHFeS2FeS2FeSFeS3FeS2FeS2FeSFeCS3HCH3C3H2C2H3CH5C2H5C7H4NC12H25C3NC4HC7H6C2H11C3H10CH5CHC3H5CH8NHCH3CH3CH3CH3CHCH2CH2CHCH5C2H5CHCH2CH2FeS2FeS2FeSFeS3FeSCFeS2FeSFeS3H4CH6C3H2CHC7H5C2H3C3HCH3CH5C3HCH5CHC2H5NCH7CHCH2C2H3C2HCH2CHCH2CH2CHCH5CH3CH3CH3CH4CN2C3HCHC2H2CH4CH2C2H10C3HC2H8CHNHCHCHCHCFeS2FeS2FeSFeS3FeSCFeS2FeSFeS3FeS2FeS2FeSFeS3CH3NHCNCH2CHCHC7H4C2HCH2C6H5C3HC2HCH2C2H3C2HC2H3C2NCH2CHC3HC2HCH4CHCH2NCH4CH3CH3CH2NH18C2HC3H3CH3CH6CH4C2H5CHC2HCHNC12H16C2H10CH3CH14CHSCH3C4H4C2H3CH7CH2CH3CH4CHC3H3CH10CHC4HCFeS2FeS2FeSFeS3FeSHFeS2FeSFeS3FeS2FeS2FeSFeS3HCHNC2HC6H4C2H2C2H2C3H2C2HC7H4CHN2CH2C2H5C3H3CH4CSC3H2C2HC4H3CNH7CH11CH2CHCHC2H3CH6CH6CHCHCNC12H28NC5HC4HCH11CH7CH3C2H3C2HC2H5CH6C2HCH2CH3C2H3C2HCHCH2CH7CH6CH2C2HCH4CH5CHCH4C2H5C3H7CH2C2H2CH2C2HCH2FeS2FeS2FeSFeS3FeS2FeS2FeSFeS3FeS2FeS2FeSFeS3C2H2C3HCHNHCHCH2C6H5CH5C6H4CHCH3CH2CH2CHCH3CNHCHCH3CHCH4CH2NC12H21CH8CHC2H2CH2CHNH6CH3CH3CHC3H5NCHC2HCHCH3NC9HC2H21CHCH10CH5C2H3CHCH2C2H4C2HCH7C6HCH2CHCHCHCH2CH2C3H4CHC2H7CH2CH4CHCHC2FeS2FeS2FeSFeS3FeS2FeS2FeSFeS3FeS2FeS2FeSFeS3CH6C6H7CH4C3HC3H2C6H4C2H2CHCHC2H2C2H3NC9H18NHC3H2C3HC3H3CH4CH9SH2NC12H26CHCNC12H31NCHC5H2C3H3CH5CH6CH3NCH7CHCH3CH2NHCHCH2C2H2C2H3C2H2CHCH2C2H3C3H2CH2NCH4C3H8C5HC2H12C2H2CH13C3HC
_chemical_formula_sum              "Fe128 S256 C1152 H2048 N64"
_cell_length_a       60.0619
_cell_length_b       60.0801
_cell_length_c       39.5162
_cell_angle_alpha    89.9797
_cell_angle_beta     89.7891
_cell_angle_gamma    88.1245

_space_group_name_H-M_alt    "P 1"
_space_group_IT_number       1

loop_
  _space_group_symop_operation_xyz
  'x, y, z'

loop_
  _atom_site_type_symbol
  _atom_site_label
  _atom_site_symmetry_multiplicity
  _atom_site_fract_x
  _atom_site_fract_y
  _atom_site_fract_z
  _atom_site_occupancy
  Fe  Fe1       1.0  0.25535  0.07351  0.17175  1.0000
  S   S1        1.0  0.21947  0.07846  0.15762  1.0000
  S   S2        1.0  0.27012  0.04185  0.19734  1.0000
  Fe  Fe2       1.0  0.26611  0.12148  0.14850  1.0000
  S   S3        1.0  0.23041  0.12930  0.13424  1.0000
  S   S4        1.0  0.29144  0.14657  0.13090  1.0000
  Fe  Fe3       1.0  0.22144  0.11208  0.18267  1.0000
  S   S5        1.0  0.19490  0.12090  0.22248  1.0000
  Fe  Fe4       1.0  0.23175  0.09529  0.11036  1.0000
  S   S6        1.0  0.21546  0.09009  0.05896  1.0000
  S   S7        1.0  0.25712  0.10658  0.19884  1.0000
  S   S8        1.0  0.26768  0.08799  0.12241  1.0000
  Fe  Fe5       1.0  0.12062  0.23435  0.36664  1.0000
  S   S9        1.0  0.09769  0.26407  0.35985  1.0000
  S   S10       1.0  0.13090  0.21978  0.41794  1.0000
  Fe  Fe6       1.0  0.13229  0.23293  0.29076  1.0000
  S   S11       1.0  0.11046  0.26351  0.27948  1.0000
  S   S12       1.0  0.15295  0.21863  0.24681  1.0000
  Fe  Fe7       1.0  0.12502  0.27765  0.32722  1.0000
  S   S13       1.0  0.13685  0.31188  0.34307  1.0000
  Fe  Fe8       1.0  0.08513  0.24714  0.31271  1.0000
  S   S14       1.0  0.04715  0.24432  0.30495  1.0000
  S   S15       1.0  0.14835  0.24841  0.33576  1.0000
  S   S16       1.0  0.10647  0.21601  0.32207  1.0000
  Fe  Fe9       1.0  0.28710  0.38579  0.32311  1.0000
  S   S17       1.0  0.26822  0.39886  0.27837  1.0000
  S   S18       1.0  0.31614  0.36036  0.31906  1.0000
  Fe  Fe10      1.0  0.25530  0.40964  0.37349  1.0000
  S   S19       1.0  0.23393  0.42433  0.33127  1.0000
  S   S20       1.0  0.24220  0.41622  0.42737  1.0000
  Fe  Fe11      1.0  0.23751  0.39020  0.30779  1.0000
  S   S21       1.0  0.21190  0.37127  0.27792  1.0000
  Fe  Fe12      1.0  0.26618  0.43219  0.30505  1.0000
  S   S22       1.0  0.27616  0.46352  0.27467  1.0000
  S   S23       1.0  0.25651  0.37511  0.35118  1.0000
  S   S24       1.0  0.28749  0.41949  0.34875  1.0000
  C   C1        1.0  0.25556  0.41323  0.46732  1.0000
  C   C2        1.0  0.00529  0.29309  0.32133  1.0000
  C   C3        1.0  0.27758  0.40519  0.47045  1.0000
  H   H1        1.0  0.24551  0.03221  0.28182  1.0000
  H   H2        1.0  0.28712  0.40088  0.44798  1.0000
  C   C4        1.0  0.26458  0.48903  0.25760  1.0000
  H   H3        1.0  0.27101  0.05658  0.28380  1.0000
  H   H4        1.0  0.08159  0.17909  0.29561  1.0000
  C   C5        1.0  0.12237  0.23159  0.45719  1.0000
  C   C6        1.0  0.10175  0.24281  0.46098  1.0000
  C   C7        1.0  0.26342  0.02885  0.07261  1.0000
  H   H5        1.0  0.09098  0.24509  0.43928  1.0000
  H   H6        1.0  0.30342  0.02956  0.13690  1.0000
  C   C8        1.0  0.15951  0.32634  0.32555  1.0000
  C   C9        1.0  0.16947  0.34287  0.34504  1.0000
  C   C10       1.0  0.18630  0.35602  0.33128  1.0000
  C   C11       1.0  0.19290  0.35319  0.29752  1.0000
  C   C12       1.0  0.18316  0.33646  0.27816  1.0000
  C   C13       1.0  0.16676  0.32289  0.29221  1.0000
  H   H7        1.0  0.16389  0.34578  0.37075  1.0000
  H   H8        1.0  0.19355  0.36892  0.34638  1.0000
  H   H9        1.0  0.18811  0.33417  0.25202  1.0000
  H   H10       1.0  0.15914  0.31034  0.27688  1.0000
  C   C14       1.0  0.02880  0.24151  0.26972  1.0000
  C   C15       1.0  0.03520  0.24613  0.23641  1.0000
  H   H11       1.0  0.05181  0.25168  0.23145  1.0000
  H   H12       1.0  0.12129  0.17729  0.47566  1.0000
  C   C16       1.0  0.18382  0.14829  0.22952  1.0000
  C   C17       1.0  0.18890  0.16596  0.20811  1.0000
  C   C18       1.0  0.17938  0.18736  0.21400  1.0000
  C   C19       1.0  0.16490  0.19144  0.24152  1.0000
  C   C20       1.0  0.15983  0.17379  0.26303  1.0000
  C   C21       1.0  0.16918  0.15229  0.25691  1.0000
  H   H13       1.0  0.20007  0.16312  0.18690  1.0000
  H   H14       1.0  0.18335  0.20088  0.19717  1.0000
  H   H15       1.0  0.14867  0.17668  0.28423  1.0000
  H   H16       1.0  0.16512  0.13872  0.27358  1.0000
  C   C22       1.0  0.21332  0.06121  0.25817  1.0000
  H   H17       1.0  0.25460  0.16172  0.06350  1.0000
  H   H18       1.0  0.17530  0.08613  0.36587  1.0000
  H   H19       1.0  0.27133  0.00800  0.11755  1.0000
  H   H20       1.0  0.26222  0.08272  0.04087  1.0000
  H   H21       1.0  0.26289  0.04712  0.06758  1.0000
  C   C23       1.0  0.25897  0.01575  0.20947  1.0000
  H   H22       1.0  0.19342  0.02601  0.06432  1.0000
  H   H23       1.0  0.21443  0.15340  0.06812  1.0000
  H   H24       1.0  0.22853  0.47798  0.09810  1.0000
  H   H25       1.0  0.27276  0.50021  0.32980  1.0000
  H   H26       1.0  0.31092  0.37356  0.24804  1.0000
  C   C24       1.0  0.19557  0.08945  0.32035  1.0000
  C   C25       1.0  0.20031  0.02269  0.08985  1.0000
  C   C26       1.0  0.10402  0.17141  0.47824  1.0000
  H   H27       1.0  0.25705  0.07098  0.24946  1.0000
  C   C27       1.0  0.24050  0.07591  0.29843  1.0000
  C   C28       1.0  0.09473  0.25045  0.49313  1.0000
  C   C29       1.0  0.16925  0.36815  0.48226  1.0000
  C   C30       1.0  0.30773  0.16528  0.15423  1.0000
  C   C31       1.0  0.32503  0.10757  0.06720  1.0000
  H   H28       1.0  0.25193  0.36433  0.43660  1.0000
  C   C32       1.0  0.33209  0.35051  0.21942  1.0000
  H   H29       1.0  0.29610  0.30714  0.12671  1.0000
  H   H30       1.0  0.32226  0.17870  0.10902  1.0000
  N   N1        1.0  0.08948  0.19191  0.19086  1.0000
  C   C33       1.0  0.06711  0.19677  0.17477  1.0000
  C   C34       1.0  0.10393  0.21189  0.18685  1.0000
  C   C35       1.0  0.10072  0.17299  0.17130  1.0000
  C   C36       1.0  0.08772  0.18477  0.22754  1.0000
  C   C37       1.0  0.06965  0.19652  0.25017  1.0000
  C   C38       1.0  0.05122  0.17694  0.17359  1.0000
  C   C39       1.0  0.12518  0.16701  0.18158  1.0000
  C   C40       1.0  0.09358  0.23507  0.19599  1.0000
  C   C41       1.0  0.11025  0.25337  0.18986  1.0000
  C   C42       1.0  0.06567  0.18311  0.28245  1.0000
  C   C43       1.0  0.02729  0.18485  0.16603  1.0000
  C   C44       1.0  0.13409  0.14625  0.16298  1.0000
  H   H31       1.0  0.06939  0.20267  0.14826  1.0000
  H   H32       1.0  0.05815  0.21081  0.18768  1.0000
  H   H33       1.0  0.11924  0.20972  0.20228  1.0000
  H   H34       1.0  0.10978  0.21318  0.16011  1.0000
  H   H35       1.0  0.10073  0.17676  0.14365  1.0000
  H   H36       1.0  0.09130  0.15745  0.17417  1.0000
  H   H37       1.0  0.08472  0.16659  0.22901  1.0000
  H   H38       1.0  0.10393  0.18676  0.24072  1.0000
  H   H39       1.0  0.05321  0.19844  0.23785  1.0000
  H   H40       1.0  0.07508  0.21312  0.25805  1.0000
  H   H41       1.0  0.05657  0.16515  0.15324  1.0000
  H   H42       1.0  0.05115  0.16771  0.19791  1.0000
  H   H43       1.0  0.12649  0.16367  0.20911  1.0000
  H   H44       1.0  0.13634  0.18078  0.17513  1.0000
  H   H45       1.0  0.07884  0.23932  0.18015  1.0000
  H   H46       1.0  0.08881  0.23580  0.22293  1.0000
  H   H47       1.0  0.10262  0.26977  0.19718  1.0000
  H   H48       1.0  0.12547  0.25042  0.20532  1.0000
  H   H49       1.0  0.11506  0.25404  0.16272  1.0000
  H   H50       1.0  0.10485  0.15306  0.48082  1.0000
  H   H51       1.0  0.05463  0.19295  0.29989  1.0000
  H   H52       1.0  0.29666  0.15545  0.20370  1.0000
  H   H53       1.0  0.18323  0.07165  0.20472  1.0000
  H   H54       1.0  0.16042  0.08233  0.32652  1.0000
  H   H55       1.0  0.01650  0.17028  0.16360  1.0000
  H   H56       1.0  0.13370  0.14891  0.13516  1.0000
  H   H57       1.0  0.15164  0.14260  0.17057  1.0000
  H   H58       1.0  0.12415  0.13159  0.16956  1.0000
  C   C45       1.0  0.26167  0.07206  0.27643  1.0000
  H   H59       1.0  0.18510  0.03839  0.26346  1.0000
  H   H60       1.0  0.21982  0.16929  0.03046  1.0000
  C   C46       1.0  0.14663  0.33389  0.47111  1.0000
  H   H61       1.0  0.30056  0.48979  0.33846  1.0000
  H   H62       1.0  0.02650  0.19448  0.14203  1.0000
  H   H63       1.0  0.23255  0.48754  0.28177  1.0000
  H   H64       1.0  0.25288  0.31989  0.47569  1.0000
  C   C47       1.0  0.22285  0.15296  0.04306  1.0000
  H   H65       1.0  0.16661  0.37408  0.45587  1.0000
  C   C48       1.0  0.27292  0.02542  0.10875  1.0000
  N   N2        1.0  0.22220  0.05944  0.29391  1.0000
  H   H66       1.0  0.26382  0.03665  0.12666  1.0000
  H   H67       1.0  0.21543  0.13963  0.02767  1.0000
  H   H68       1.0  0.21235  0.01331  0.27172  1.0000
  H   H69       1.0  0.22725  0.35096  0.49898  1.0000
  H   H70       1.0  0.22725  0.02064  0.18511  1.0000
  C   C49       1.0  0.27771  0.09112  0.28051  1.0000
  H   H71       1.0  0.24040  0.03609  0.32592  1.0000
  C   C50       1.0  0.33390  0.26180  0.26458  1.0000
  N   N3        1.0  0.22886  0.43045  0.19438  1.0000
  C   C51       1.0  0.22520  0.43466  0.15711  1.0000
  C   C52       1.0  0.22429  0.40644  0.20316  1.0000
  C   C53       1.0  0.21233  0.44522  0.21360  1.0000
  C   C54       1.0  0.25194  0.43642  0.20535  1.0000
  C   C55       1.0  0.27166  0.42439  0.18698  1.0000
  C   C56       1.0  0.22872  0.45883  0.14466  1.0000
  C   C57       1.0  0.21162  0.44187  0.25257  1.0000
  C   C58       1.0  0.22987  0.38840  0.17596  1.0000
  C   C59       1.0  0.22885  0.36495  0.19083  1.0000
  C   C60       1.0  0.29391  0.43356  0.19821  1.0000
  C   C61       1.0  0.29349  0.12952  0.03909  1.0000
  H   H72       1.0  0.07523  0.16963  0.44486  1.0000
  H   H73       1.0  0.20793  0.43019  0.15016  1.0000
  H   H74       1.0  0.23629  0.42372  0.14143  1.0000
  H   H75       1.0  0.23308  0.40151  0.22690  1.0000
  H   H76       1.0  0.20627  0.40443  0.20896  1.0000
  H   H77       1.0  0.19518  0.44290  0.20375  1.0000
  H   H78       1.0  0.21594  0.46311  0.20988  1.0000
  H   H79       1.0  0.25411  0.45472  0.20366  1.0000
  H   H80       1.0  0.25423  0.43260  0.23254  1.0000
  H   H81       1.0  0.27061  0.42645  0.15917  1.0000
  H   H82       1.0  0.27216  0.40644  0.19356  1.0000
  C   C62       1.0  0.16918  0.34273  0.48375  1.0000
  H   H83       1.0  0.24562  0.46440  0.15107  1.0000
  H   H84       1.0  0.22739  0.44714  0.26413  1.0000
  H   H85       1.0  0.20901  0.42427  0.25964  1.0000
  H   H86       1.0  0.21751  0.38971  0.15513  1.0000
  H   H87       1.0  0.24661  0.39014  0.16475  1.0000
  H   H88       1.0  0.23250  0.35239  0.17080  1.0000
  H   H89       1.0  0.24134  0.36260  0.21132  1.0000
  H   H90       1.0  0.21200  0.36204  0.20134  1.0000
  H   H91       1.0  0.10982  0.31164  0.48221  1.0000
  H   H92       1.0  0.30776  0.42502  0.18415  1.0000
  C   C63       1.0  0.23322  0.02706  0.03162  1.0000
  H   H93       1.0  0.25199  0.33695  0.27230  1.0000
  H   H94       1.0  0.30638  0.32242  0.16236  1.0000
  H   H95       1.0  0.28367  0.09202  0.30704  1.0000
  H   H96       1.0  0.02060  0.19550  0.18695  1.0000
  H   H97       1.0  0.22397  0.05090  0.24066  1.0000
  C   C64       1.0  0.30731  0.16632  0.18960  1.0000
  H   H98       1.0  0.29443  0.45173  0.19320  1.0000
  H   H99       1.0  0.18628  0.05419  0.10901  1.0000
  C   C65       1.0  0.25289  0.08568  0.01789  1.0000
  C   C66       1.0  0.18244  0.05462  0.21549  1.0000
  H   H100      1.0  0.19460  0.47388  0.26267  1.0000
  H   H101      1.0  0.24340  0.30978  0.28511  1.0000
  H   H102      1.0  0.20936  0.45550  0.09840  1.0000
  H   H103      1.0  0.29462  0.49605  0.23013  1.0000
  N   N4        1.0  0.14491  0.30889  0.46996  1.0000
  C   C67       1.0  0.12103  0.30336  0.46324  1.0000
  H   H104      1.0  0.02027  0.29891  0.30776  1.0000
  H   H105      1.0  0.33136  0.24382  0.26045  1.0000
  C   C68       1.0  0.16015  0.30003  0.44227  1.0000
  C   C69       1.0  0.15906  0.27478  0.43457  1.0000
  C   C70       1.0  0.11180  0.30993  0.42792  1.0000
  C   C71       1.0  0.29752  0.03111  0.11036  1.0000
  H   H106      1.0  0.16514  0.04897  0.21259  1.0000
  C   C72       1.0  0.18863  0.05492  0.25286  1.0000
  C   C73       1.0  0.17602  0.26794  0.40730  1.0000
  C   C74       1.0  0.08695  0.30549  0.42549  1.0000
  H   H107      1.0  0.24041  0.31860  0.24146  1.0000
  C   C75       1.0  0.25659  0.33782  0.47401  1.0000
  H   H108      1.0  0.11867  0.28524  0.46662  1.0000
  H   H109      1.0  0.22989  0.34449  0.43749  1.0000
  H   H110      1.0  0.32848  0.35847  0.19541  1.0000
  H   H111      1.0  0.28626  0.13263  0.06453  1.0000
  H   H112      1.0  0.14397  0.34108  0.44541  1.0000
  H   H113      1.0  0.15702  0.30921  0.41811  1.0000
  H   H114      1.0  0.17779  0.30304  0.44865  1.0000
  H   H115      1.0  0.14235  0.27042  0.42534  1.0000
  H   H116      1.0  0.16300  0.26457  0.45724  1.0000
  H   H117      1.0  0.11396  0.32781  0.42241  1.0000
  H   H118      1.0  0.12035  0.30000  0.40789  1.0000
  H   H119      1.0  0.28733  0.21821  0.17565  1.0000
  H   H120      1.0  0.21619  0.47063  0.15595  1.0000
  H   H121      1.0  0.19309  0.45385  0.29651  1.0000
  C   C76       1.0  0.24781  0.14822  0.04779  1.0000
  H   H122      1.0  0.27605  0.02147  0.05486  1.0000
  H   H123      1.0  0.17283  0.27755  0.38367  1.0000
  H   H124      1.0  0.19324  0.27083  0.41601  1.0000
  H   H125      1.0  0.17464  0.24991  0.40169  1.0000
  H   H126      1.0  0.08389  0.28762  0.43026  1.0000
  H   H127      1.0  0.07731  0.31583  0.44406  1.0000
  H   H128      1.0  0.08094  0.30974  0.39965  1.0000
  C   C77       1.0  0.26004  0.14621  0.01322  1.0000
  H   H129      1.0  0.09012  0.19523  0.44156  1.0000
  C   C78       1.0  0.29165  0.16997  0.02514  1.0000
  C   C79       1.0  0.00682  0.23490  0.27563  1.0000
  C   C80       1.0  0.32713  0.34938  0.28055  1.0000
  H   H130      1.0  0.16788  0.10980  0.33963  1.0000
  H   H131      1.0  0.27879  0.18272  0.01735  1.0000
  H   H132      1.0  0.22564  0.04753  0.09226  1.0000
  H   H133      1.0  0.24594  0.07631  0.32537  1.0000
  H   H134      1.0  0.19312  0.09590  0.29424  1.0000
  C   C81       1.0  0.25018  0.02308  0.00234  1.0000
  C   C82       1.0  0.24816  0.34644  0.43979  1.0000
  H   H135      1.0  0.29993  0.04849  0.10182  1.0000
  H   H136      1.0  0.23901  0.44970  0.09333  1.0000
  H   H137      1.0  0.21139  0.06142  0.34616  1.0000
  N   N5        1.0  0.28520  0.14691  0.01415  1.0000
  H   H138      1.0  0.32293  0.29970  0.14425  1.0000
  C   C83       1.0  0.32170  0.17950  0.13631  1.0000
  H   H139      1.0  0.17715  0.06727  0.26524  1.0000
  H   H140      1.0  0.19380  0.04304  0.20129  1.0000
  C   C84       1.0  0.24295  0.49699  0.26505  1.0000
  C   C85       1.0  0.13605  0.22851  0.48573  1.0000
  H   H141      1.0  0.05741  0.16735  0.27631  1.0000
  C   C86       1.0  0.20465  0.06489  0.32036  1.0000
  C   C87       1.0  0.32092  0.18133  0.20677  1.0000
  H   H142      1.0  0.29235  0.08822  0.26361  1.0000
  H   H143      1.0  0.27491  0.33967  0.47402  1.0000
  H   H144      1.0  0.25656  0.33694  0.41900  1.0000
  H   H145      1.0  0.27725  0.20795  0.21575  1.0000
  H   H146      1.0  0.26951  0.10731  0.27351  1.0000
  N   N6        1.0  0.29649  0.27429  0.23612  1.0000
  C   C88       1.0  0.27428  0.28508  0.24582  1.0000
  C   C89       1.0  0.29387  0.25005  0.22670  1.0000
  C   C90       1.0  0.31130  0.27508  0.26696  1.0000
  C   C91       1.0  0.30770  0.28669  0.20792  1.0000
  C   C92       1.0  0.29459  0.28933  0.17446  1.0000
  C   C93       1.0  0.27463  0.30999  0.25651  1.0000
  C   C94       1.0  0.22623  0.46049  0.10625  1.0000
  C   C95       1.0  0.27211  0.24378  0.20840  1.0000
  C   C96       1.0  0.27381  0.21994  0.19486  1.0000
  C   C97       1.0  0.30572  0.30566  0.15059  1.0000
  C   C98       1.0  0.25115  0.31927  0.26425  1.0000
  H   H147      1.0  0.22640  0.42497  0.49478  1.0000
  H   H148      1.0  0.26677  0.27564  0.26709  1.0000
  H   H149      1.0  0.26206  0.28414  0.22498  1.0000
  H   H150      1.0  0.30832  0.24398  0.21100  1.0000
  H   H151      1.0  0.29426  0.23937  0.24981  1.0000
  H   H152      1.0  0.30233  0.26875  0.28959  1.0000
  H   H153      1.0  0.31548  0.29252  0.27294  1.0000
  H   H154      1.0  0.31227  0.30348  0.21665  1.0000
  H   H155      1.0  0.32382  0.27829  0.20089  1.0000
  H   H156      1.0  0.27732  0.29573  0.17869  1.0000
  H   H157      1.0  0.29436  0.27306  0.16119  1.0000
  H   H158      1.0  0.28465  0.31218  0.27974  1.0000
  H   H159      1.0  0.28157  0.32040  0.23609  1.0000
  H   H160      1.0  0.20763  0.10026  0.33312  1.0000
  C   C99       1.0  0.22501  0.02900  0.09256  1.0000
  H   H161      1.0  0.25790  0.24476  0.22652  1.0000
  H   H162      1.0  0.26802  0.25495  0.18694  1.0000
  H   H163      1.0  0.25788  0.21560  0.18273  1.0000
  H   H164      1.0  0.28781  0.11286  0.03141  1.0000
  C   C100      1.0  0.23221  0.03645  0.30063  1.0000
  C   C101      1.0  0.17342  0.09197  0.33933  1.0000
  H   H165      1.0  0.23421  0.09309  0.29226  1.0000
  H   H166      1.0  0.19028  0.05392  0.31810  1.0000
  H   H167      1.0  0.21458  0.07853  0.24839  1.0000
  H   H168      1.0  0.29194  0.17097  0.05335  1.0000
  C   C102      1.0  0.18583  0.03611  0.11491  1.0000
  H   H169      1.0  0.29653  0.43053  0.22569  1.0000
  H   H170      1.0  0.18325  0.33638  0.46787  1.0000
  N   N7        1.0  0.24083  0.01931  0.06620  1.0000
  C   C103      1.0  0.01993  0.24392  0.20954  1.0000
  C   C104      1.0  0.21641  0.01663  0.29862  1.0000
  C   C105      1.0  0.22994  0.09011  0.01968  1.0000
  H   H171      1.0  0.02517  0.24746  0.18392  1.0000
  H   H172      1.0  0.15201  0.21981  0.48301  1.0000
  C   C106      1.0  0.32209  0.35910  0.24921  1.0000
  H   H173      1.0  0.17633  0.45055  0.25925  1.0000
  C   C107      1.0  0.19272  0.45595  0.26858  1.0000
  H   H174      1.0  0.21740  0.01947  0.02423  1.0000
  H   H175      1.0  0.24963  0.13226  0.06188  1.0000
  H   H176      1.0  0.16830  0.03092  0.11315  1.0000
  H   H177      1.0  0.26377  0.03514  0.00417  1.0000
  H   H178      1.0  0.22912  0.04524  0.03214  1.0000
  H   H179      1.0  0.20079  0.01958  0.31310  1.0000
  H   H180      1.0  0.10180  0.17000  0.42343  1.0000
  C   C108      1.0  0.23761  0.00946  0.20017  1.0000
  C   C109      1.0  0.09198  0.17692  0.44510  1.0000
  H   H181      1.0  0.19861  0.00485  0.09633  1.0000
  H   H182      1.0  0.19170  0.03320  0.14119  1.0000
  H   H183      1.0  0.23020  0.02374  0.11843  1.0000
  H   H184      1.0  0.32065  0.18189  0.23412  1.0000
  C   C110      1.0  0.27788  0.50196  0.23624  1.0000
  H   H185      1.0  0.13306  0.34155  0.48696  1.0000
  H   H186      1.0  0.31644  0.10895  0.09212  1.0000
  C   C111      1.0  0.24344  0.41872  0.49692  1.0000
  H   H187      1.0  0.32033  0.09187  0.05466  1.0000
  H   H188      1.0  0.00620  0.29853  0.34813  1.0000
  H   H189      1.0  0.30773  0.01950  0.09433  1.0000
  H   H190      1.0  0.07856  0.25876  0.49590  1.0000
  H   H191      1.0  0.18559  0.37407  0.49097  1.0000
  C   C112      1.0  0.31892  0.12768  0.04497  1.0000
  H   H192      1.0  0.25775  0.00600  0.00329  1.0000
  H   H193      1.0  0.15598  0.37554  0.49883  1.0000
  C   C113      1.0  0.33493  0.19549  0.18876  1.0000
  C   C114      1.0  0.31414  0.17858  0.01157  1.0000
  H   H194      1.0  0.32831  0.12572  0.02093  1.0000
  H   H195      1.0  0.32445  0.14269  0.05858  1.0000
  H   H196      1.0  0.30656  0.21358  0.02308  1.0000
  H   H197      1.0  0.28879  0.00534  0.23613  1.0000
  H   H198      1.0  0.32179  0.19863  0.05587  1.0000
  H   H199      1.0  0.32819  0.16663  0.01615  1.0000
  C   C115      1.0  0.31981  0.20068  0.02811  1.0000
  H   H200      1.0  0.00550  0.27460  0.32087  1.0000
  H   H201      1.0  0.24999  0.36887  0.50017  1.0000
  C   C116      1.0  0.33515  0.19460  0.15341  1.0000
  H   H202      1.0  0.25470  0.13055  0.00116  1.0000
  H   H203      1.0  0.33577  0.20660  0.01762  1.0000
  Fe  Fe13      1.0  0.24754  0.06565  0.79625  1.0000
  S   S25       1.0  0.22472  0.08161  0.83615  1.0000
  S   S26       1.0  0.24266  0.02819  0.78458  1.0000
  Fe  Fe14      1.0  0.27661  0.10734  0.79463  1.0000
  S   S27       1.0  0.25622  0.12497  0.83429  1.0000
  S   S28       1.0  0.30519  0.12536  0.76947  1.0000
  Fe  Fe15      1.0  0.25593  0.09234  0.86203  1.0000
  S   S29       1.0  0.26726  0.08983  0.91745  1.0000
  Fe  Fe16      1.0  0.22671  0.11326  0.80509  1.0000
  S   S30       1.0  0.19995  0.14122  0.80023  1.0000
  S   S31       1.0  0.27871  0.07520  0.82389  1.0000
  S   S32       1.0  0.24715  0.09678  0.76363  1.0000
  Fe  Fe17      1.0  0.23789  0.40122  0.67703  1.0000
  S   S33       1.0  0.26754  0.38044  0.66012  1.0000
  S   S34       1.0  0.20362  0.38776  0.68756  1.0000
  Fe  Fe18      1.0  0.26421  0.44455  0.68183  1.0000
  S   S35       1.0  0.29585  0.42654  0.66489  1.0000
  S   S36       1.0  0.26197  0.48267  0.68892  1.0000
  Fe  Fe19      1.0  0.27457  0.40968  0.62602  1.0000
  S   S37       1.0  0.28789  0.40333  0.57243  1.0000
  Fe  Fe20      1.0  0.28616  0.39885  0.69999  1.0000
  S   S38       1.0  0.30693  0.38370  0.74280  1.0000
  S   S39       1.0  0.24350  0.42932  0.64049  1.0000
  S   S40       1.0  0.25584  0.41800  0.71926  1.0000
  Fe  Fe21      1.0  0.13750  0.21854  0.66492  1.0000
  S   S41       1.0  0.13837  0.24510  0.70460  1.0000
  S   S42       1.0  0.15256  0.18331  0.66951  1.0000
  Fe  Fe22      1.0  0.11417  0.24995  0.61338  1.0000
  S   S43       1.0  0.11339  0.27865  0.65009  1.0000
  S   S44       1.0  0.09816  0.25619  0.56177  1.0000
  Fe  Fe23      1.0  0.14874  0.26792  0.66229  1.0000
  S   S45       1.0  0.18132  0.28648  0.65924  1.0000
  Fe  Fe24      1.0  0.10265  0.25338  0.68898  1.0000
  S   S46       1.0  0.07563  0.26082  0.72953  1.0000
  S   S47       1.0  0.14986  0.24057  0.62334  1.0000
  S   S48       1.0  0.10140  0.22537  0.65148  1.0000
  C   C117      1.0  0.04743  0.25248  0.73489  1.0000
  H   H204      1.0  0.22579  0.45837  0.72437  1.0000
  H   H205      1.0  0.04744  0.22895  0.69389  1.0000
  C   C118      1.0  0.19727  0.35976  0.67851  1.0000
  C   C119      1.0  0.21282  0.34519  0.66303  1.0000
  C   C120      1.0  0.20736  0.32299  0.65645  1.0000
  C   C121      1.0  0.18639  0.31506  0.66550  1.0000
  C   C122      1.0  0.17070  0.32970  0.68053  1.0000
  C   C123      1.0  0.17615  0.35196  0.68698  1.0000
  H   H206      1.0  0.22904  0.35101  0.65618  1.0000
  H   H207      1.0  0.21958  0.31176  0.64484  1.0000
  H   H208      1.0  0.15452  0.32378  0.68766  1.0000
  H   H209      1.0  0.16398  0.36312  0.69887  1.0000
  C   C124      1.0  0.21097  0.45381  0.73932  1.0000
  H   H210      1.0  0.22256  0.28375  0.57088  1.0000
  H   H211      1.0  0.26548  0.47475  0.76243  1.0000
  C   C125      1.0  0.25315  0.41625  0.52925  1.0000
  C   C126      1.0  0.27516  0.40819  0.53236  1.0000
  H   H212      1.0  0.04170  0.27419  0.77769  1.0000
  H   H213      1.0  0.24360  0.42051  0.55171  1.0000
  C   C127      1.0  0.24687  0.00844  0.75080  1.0000
  H   H214      1.0  0.28792  0.15912  0.89577  1.0000
  C   C128      1.0  0.10830  0.24717  0.52173  1.0000
  C   C129      1.0  0.31785  0.23030  0.76330  1.0000
  H   H215      1.0  0.28258  0.32343  0.58727  1.0000
  H   H216      1.0  0.13983  0.23395  0.53958  1.0000
  C   C130      1.0  0.18830  0.15321  0.76292  1.0000
  C   C131      1.0  0.17652  0.17380  0.76530  1.0000
  C   C132      1.0  0.16624  0.18360  0.73667  1.0000
  C   C133      1.0  0.16703  0.17259  0.70549  1.0000
  C   C134      1.0  0.17895  0.15210  0.70304  1.0000
  C   C135      1.0  0.18977  0.14257  0.73148  1.0000
  H   H217      1.0  0.17538  0.18221  0.78946  1.0000
  H   H218      1.0  0.15751  0.19953  0.73878  1.0000
  H   H219      1.0  0.17973  0.14344  0.67904  1.0000
  H   H220      1.0  0.19873  0.12671  0.72927  1.0000
  C   C136      1.0  0.27621  0.34485  0.54278  1.0000
  H   H221      1.0  0.07391  0.17917  0.50623  1.0000
  C   C137      1.0  0.10528  0.21000  0.77020  1.0000
  H   H222      1.0  0.23843  0.35056  0.58955  1.0000
  C   C138      1.0  0.01251  0.25510  0.76785  1.0000
  C   C139      1.0  0.05501  0.20962  0.59706  1.0000
  C   C140      1.0  0.03456  0.26173  0.76164  1.0000
  H   H223      1.0  0.26587  0.14781  0.94495  1.0000
  H   H224      1.0  0.27800  0.35241  0.59758  1.0000
  H   H225      1.0  0.09302  0.20116  0.50488  1.0000
  H   H226      1.0  0.11783  0.13068  0.79831  1.0000
  C   C141      1.0  0.17090  0.42595  0.62933  1.0000
  H   H227      1.0  0.16944  0.44125  0.69292  1.0000
  C   C142      1.0  0.31886  0.14721  0.79007  1.0000
  C   C143      1.0  0.12107  0.16666  0.79465  1.0000
  H   H228      1.0  0.07564  0.15086  0.54580  1.0000
  N   N8        1.0  0.10024  0.17643  0.54365  1.0000
  C   C144      1.0  0.31079  0.34359  0.57976  1.0000
  H   H229      1.0  0.09673  0.10857  0.57181  1.0000
  C   C145      1.0  0.22905  0.09347  0.95781  1.0000
  C   C146      1.0  0.25208  0.08927  0.95609  1.0000
  C   C147      1.0  0.15183  0.29831  0.50311  1.0000
  H   H230      1.0  0.21977  0.09660  0.93478  1.0000
  H   H231      1.0  0.32403  0.17223  0.86679  1.0000
  N   N9        1.0  0.26460  0.19419  0.76518  1.0000
  C   C148      1.0  0.25487  0.18248  0.79541  1.0000
  C   C149      1.0  0.27134  0.17736  0.73821  1.0000
  C   C150      1.0  0.28531  0.20558  0.77702  1.0000
  C   C151      1.0  0.24882  0.21194  0.75116  1.0000
  C   C152      1.0  0.22595  0.20426  0.73871  1.0000
  C   C153      1.0  0.24785  0.19748  0.82582  1.0000
  C   C154      1.0  0.30110  0.21417  0.74890  1.0000
  C   C155      1.0  0.25653  0.15678  0.73403  1.0000
  C   C156      1.0  0.26262  0.14373  0.70195  1.0000
  C   C157      1.0  0.21066  0.22424  0.72963  1.0000
  C   C158      1.0  0.23831  0.18366  0.85461  1.0000
  H   H232      1.0  0.31703  0.34080  0.60590  1.0000
  H   H233      1.0  0.26714  0.16959  0.80482  1.0000
  H   H234      1.0  0.23991  0.17315  0.78849  1.0000
  H   H235      1.0  0.27285  0.18571  0.71317  1.0000
  H   H236      1.0  0.28821  0.16999  0.74369  1.0000
  H   H237      1.0  0.29563  0.19412  0.79323  1.0000
  H   H238      1.0  0.28073  0.22011  0.79337  1.0000
  H   H239      1.0  0.24589  0.22547  0.77002  1.0000
  H   H240      1.0  0.25640  0.22027  0.72907  1.0000
  H   H241      1.0  0.21738  0.19448  0.75827  1.0000
  H   H242      1.0  0.22810  0.19417  0.71536  1.0000
  H   H243      1.0  0.26227  0.20624  0.83623  1.0000
  H   H244      1.0  0.23477  0.20993  0.81821  1.0000
  H   H245      1.0  0.29194  0.22298  0.72840  1.0000
  H   H246      1.0  0.31069  0.19998  0.73732  1.0000
  H   H247      1.0  0.25912  0.14535  0.75588  1.0000
  H   H248      1.0  0.23854  0.16117  0.73304  1.0000
  H   H249      1.0  0.25963  0.15419  0.67914  1.0000
  H   H250      1.0  0.28039  0.13797  0.70261  1.0000
  H   H251      1.0  0.25217  0.12887  0.70018  1.0000
  H   H252      1.0  0.19488  0.21833  0.71879  1.0000
  H   H253      1.0  0.20657  0.23432  0.75251  1.0000
  H   H254      1.0  0.21862  0.23488  0.71035  1.0000
  H   H255      1.0  0.25113  0.17157  0.86433  1.0000
  H   H256      1.0  0.23290  0.19478  0.87573  1.0000
  H   H257      1.0  0.22366  0.17445  0.84582  1.0000
  H   H258      1.0  0.20712  0.43621  0.73388  1.0000
  H   H259      1.0  0.22201  0.49978  0.87081  1.0000
  H   H260      1.0  0.20283  0.44999  0.79283  1.0000
  H   H261      1.0  0.23177  0.49101  0.91195  1.0000
  H   H262      1.0  0.05700  0.20036  0.54499  1.0000
  H   H263      1.0  0.16621  0.30162  0.57116  1.0000
  H   H264      1.0  0.13060  0.17937  0.80825  1.0000
  C   C159      1.0  0.29614  0.14974  0.91675  1.0000
  H   H265      1.0  0.06780  0.17253  0.74106  1.0000
  H   H266      1.0  0.05683  0.17726  0.57430  1.0000
  N   N10       1.0  0.26360  0.32146  0.75717  1.0000
  C   C160      1.0  0.26778  0.32723  0.72052  1.0000
  C   C161      1.0  0.25760  0.34242  0.77701  1.0000
  C   C162      1.0  0.28512  0.31165  0.77139  1.0000
  C   C163      1.0  0.24595  0.30434  0.76113  1.0000
  C   C164      1.0  0.22273  0.31043  0.74639  1.0000
  C   C165      1.0  0.27546  0.30774  0.69706  1.0000
  C   C166      1.0  0.28510  0.30611  0.80983  1.0000
  C   C167      1.0  0.24382  0.36104  0.75840  1.0000
  H   H267      1.0  0.29670  0.13176  0.91002  1.0000
  C   C168      1.0  0.20775  0.29034  0.74654  1.0000
  C   C169      1.0  0.27734  0.31552  0.66038  1.0000
  C   C170      1.0  0.30837  0.29870  0.82180  1.0000
  H   H268      1.0  0.28058  0.34019  0.71901  1.0000
  H   H269      1.0  0.25280  0.33507  0.70864  1.0000
  H   H270      1.0  0.24855  0.33817  0.80067  1.0000
  H   H271      1.0  0.27302  0.35074  0.78536  1.0000
  H   H272      1.0  0.29895  0.32312  0.76653  1.0000
  H   H273      1.0  0.28999  0.29577  0.75850  1.0000
  H   H274      1.0  0.25185  0.28810  0.75027  1.0000
  H   H275      1.0  0.24292  0.30091  0.78837  1.0000
  H   H276      1.0  0.22382  0.31623  0.71998  1.0000
  H   H277      1.0  0.21436  0.32356  0.76207  1.0000
  H   H278      1.0  0.29218  0.30103  0.70440  1.0000
  H   H279      1.0  0.26344  0.29412  0.69770  1.0000
  H   H280      1.0  0.27391  0.29222  0.81522  1.0000
  H   H281      1.0  0.27967  0.32071  0.82532  1.0000
  H   H282      1.0  0.25445  0.36907  0.73916  1.0000
  H   H283      1.0  0.22916  0.35465  0.74517  1.0000
  H   H284      1.0  0.21453  0.27722  0.72918  1.0000
  H   H285      1.0  0.20616  0.28341  0.77246  1.0000
  H   H286      1.0  0.19087  0.29551  0.73746  1.0000
  H   H287      1.0  0.26093  0.32177  0.65087  1.0000
  H   H288      1.0  0.28954  0.32896  0.65824  1.0000
  H   H289      1.0  0.28319  0.30136  0.64423  1.0000
  H   H290      1.0  0.23104  0.49067  0.61913  1.0000
  H   H291      1.0  0.19417  0.48571  0.74313  1.0000
  H   H292      1.0  0.31973  0.31288  0.82086  1.0000
  H   H293      1.0  0.06154  0.22656  0.59340  1.0000
  C   C171      1.0  0.09187  0.18283  0.50877  1.0000
  H   H294      1.0  0.17240  0.33775  0.51037  1.0000
  C   C172      1.0  0.11090  0.22276  0.80309  1.0000
  C   C173      1.0  0.12535  0.17821  0.54391  1.0000
  H   H295      1.0  0.30920  0.24579  0.77243  1.0000
  H   H296      1.0  0.25197  0.02493  0.94750  1.0000
  C   C174      1.0  0.13649  0.18467  0.57779  1.0000
  C   C175      1.0  0.16187  0.18314  0.57484  1.0000
  C   C176      1.0  0.08970  0.12039  0.59098  1.0000
  H   H297      1.0  0.13358  0.16252  0.53444  1.0000
  H   H298      1.0  0.13056  0.19132  0.52601  1.0000
  H   H299      1.0  0.09418  0.11397  0.61653  1.0000
  C   C177      1.0  0.01594  0.22945  0.72101  1.0000
  C   C178      1.0  0.09372  0.15281  0.55053  1.0000
  H   H300      1.0  0.14432  0.14068  0.81168  1.0000
  C   C179      1.0  0.02899  0.20019  0.81617  1.0000
  H   H301      1.0  0.16767  0.16568  0.57003  1.0000
  H   H302      1.0  0.16772  0.19402  0.55410  1.0000
  C   C180      1.0  0.24019  0.35912  0.56469  1.0000
  H   H303      1.0  0.17596  0.46286  0.74432  1.0000
  H   H304      1.0  0.12027  0.14475  0.83869  1.0000
  H   H305      1.0  0.05999  0.20331  0.62243  1.0000
  C   C181      1.0  0.23559  0.37918  0.78293  1.0000
  H   H306      1.0  0.15678  0.41953  0.64428  1.0000
  H   H307      1.0  0.22472  0.37212  0.80272  1.0000
  H   H308      1.0  0.24995  0.38721  0.79505  1.0000
  C   C182      1.0  0.14882  0.29649  0.56724  1.0000
  H   H309      1.0  0.13178  0.20217  0.58436  1.0000
  C   C183      1.0  0.18242  0.45015  0.67843  1.0000
  H   H310      1.0  0.22575  0.39211  0.76885  1.0000
  H   H311      1.0  0.19791  0.43957  0.68046  1.0000
  H   H312      1.0  0.28181  0.36144  0.53435  1.0000
  H   H313      1.0  0.21939  0.38239  0.53457  1.0000
  C   C184      1.0  0.23920  0.02660  0.96783  1.0000
  H   H314      1.0  0.09984  0.22271  0.75121  1.0000
  H   H315      1.0  0.02505  0.21779  0.80920  1.0000
  H   H316      1.0  0.21819  0.39495  0.59525  1.0000
  H   H317      1.0  0.25553  0.30822  0.52948  1.0000
  H   H318      1.0  0.19071  0.45460  0.62490  1.0000
  H   H319      1.0  0.13877  0.30212  0.58947  1.0000
  C   C185      1.0  0.09570  0.17290  0.79526  1.0000
  H   H320      1.0  0.08192  0.18292  0.66929  1.0000
  C   C186      1.0  0.22041  0.31416  0.54057  1.0000
  H   H321      1.0  0.14843  0.27802  0.56601  1.0000
  H   H322      1.0  0.19946  0.28527  0.54221  1.0000
  H   H323      1.0  0.31341  0.15552  0.91952  1.0000
  H   H324      1.0  0.24909  0.31505  0.57193  1.0000
  H   H325      1.0  0.12132  0.30232  0.53386  1.0000
  H   H326      1.0  0.20529  0.35773  0.54631  1.0000
  N   N11       1.0  0.08787  0.19261  0.77397  1.0000
  C   C187      1.0  0.08956  0.19263  0.56857  1.0000
  C   C188      1.0  0.12604  0.14432  0.81195  1.0000
  H   H327      1.0  0.21435  0.31879  0.51499  1.0000
  H   H328      1.0  0.09517  0.20969  0.56300  1.0000
  H   H329      1.0  0.11747  0.14166  0.58945  1.0000
  H   H330      1.0  0.09518  0.18921  0.59480  1.0000
  H   H331      1.0  0.07759  0.15501  0.68447  1.0000
  C   C189      1.0  0.24512  0.31980  0.54538  1.0000
  H   H332      1.0  0.05010  0.17252  0.80013  1.0000
  C   C190      1.0  0.21703  0.45505  0.77680  1.0000
  H   H333      1.0  0.18959  0.49102  0.62708  1.0000
  C   C191      1.0  0.03790  0.23627  0.71456  1.0000
  H   H334      1.0  0.29093  0.12260  0.97434  1.0000
  C   C192      1.0  0.20668  0.38250  0.58511  1.0000
  C   C193      1.0  0.08084  0.18519  0.73918  1.0000
  C   C194      1.0  0.06371  0.19384  0.56932  1.0000
  C   C195      1.0  0.04632  0.18989  0.79189  1.0000
  H   H335      1.0  0.10386  0.16187  0.66545  1.0000
  C   C196      1.0  0.26316  0.49246  0.75818  1.0000
  H   H336      1.0  0.23134  0.04357  0.96615  1.0000
  H   H337      1.0  0.00883  0.21689  0.70512  1.0000
  C   C197      1.0  0.28300  0.15362  0.94947  1.0000
  H   H338      1.0  0.21803  0.47131  0.66950  1.0000
  C   C198      1.0  0.32664  0.16898  0.84018  1.0000
  H   H339      1.0  0.06324  0.21971  0.77789  1.0000
  H   H340      1.0  0.14681  0.22295  0.79417  1.0000
  H   H341      1.0  0.19112  0.39135  0.57683  1.0000
  H   H342      1.0  0.03517  0.19955  0.84262  1.0000
  H   H343      1.0  0.16629  0.42598  0.60215  1.0000
  H   H344      1.0  0.20995  0.32274  0.56009  1.0000
  C   C199      1.0  0.28561  0.34067  0.57890  1.0000
  C   C200      1.0  0.16419  0.48646  0.69133  1.0000
  H   H345      1.0  0.12789  0.16554  0.76872  1.0000
  H   H346      1.0  0.25016  0.03230  0.71067  1.0000
  H   H347      1.0  0.07318  0.19962  0.72514  1.0000
  C   C201      1.0  0.09922  0.17450  0.71636  1.0000
  H   H348      1.0  0.16943  0.18874  0.59886  1.0000
  H   H349      1.0  0.10590  0.15882  0.72772  1.0000
  H   H350      1.0  0.11289  0.18610  0.71204  1.0000
  C   C202      1.0  0.21724  0.37004  0.55516  1.0000
  C   C203      1.0  0.19072  0.46949  0.73092  1.0000
  H   H351      1.0  0.13145  0.17403  0.59915  1.0000
  H   H352      1.0  0.15003  0.47656  0.70064  1.0000
  C   C204      1.0  0.20514  0.48408  0.67721  1.0000
  H   H353      1.0  0.09199  0.15429  0.60639  1.0000
  C   C205      1.0  0.31512  0.15188  0.82428  1.0000
  C   C206      1.0  0.20009  0.49915  0.64601  1.0000
  H   H354      1.0  0.31494  0.36076  0.57203  1.0000
  H   H355      1.0  0.11215  0.21138  0.82515  1.0000
  H   H356      1.0  0.03654  0.21092  0.59617  1.0000
  H   H357      1.0  0.30376  0.14195  0.83868  1.0000
  H   H358      1.0  0.30433  0.39649  0.50486  1.0000
  H   H359      1.0  0.12095  0.20276  0.75953  1.0000
  H   H360      1.0  0.08652  0.15781  0.78807  1.0000
  C   C207      1.0  0.09917  0.14350  0.58616  1.0000
  H   H361      1.0  0.28190  0.17176  0.95475  1.0000
  H   H362      1.0  0.13633  0.24358  0.82382  1.0000
  C   C208      1.0  0.32551  0.34535  0.71347  1.0000
  H   H363      1.0  0.28161  0.08158  0.98519  1.0000
  H   H364      1.0  0.09752  0.23551  0.80851  1.0000
  H   H365      1.0  0.13146  0.24754  0.77929  1.0000
  H   H366      1.0  0.20238  0.37069  0.60550  1.0000
  H   H367      1.0  0.07157  0.20821  0.81736  1.0000
  H   H368      1.0  0.30759  0.29281  0.84841  1.0000
  C   C209      1.0  0.06771  0.20368  0.79076  1.0000
  C   C210      1.0  0.24980  0.01480  0.71700  1.0000
  C   C211      1.0  0.08997  0.16824  0.68179  1.0000
  H   H369      1.0  0.17000  0.29994  0.50721  1.0000
  H   H370      1.0  0.31732  0.35050  0.69031  1.0000
  H   H371      1.0  0.09147  0.17568  0.82245  1.0000
  H   H372      1.0  0.03853  0.18959  0.76642  1.0000
  C   C212      1.0  0.13276  0.23489  0.79975  1.0000
  H   H373      1.0  0.10223  0.14118  0.53244  1.0000
  C   C213      1.0  0.26384  0.08509  0.98628  1.0000
  H   H374      1.0  0.16154  0.46035  0.63457  1.0000
  C   C214      1.0  0.17630  0.44952  0.64042  1.0000
  H   H375      1.0  0.13971  0.32523  0.53768  1.0000
  C   C215      1.0  0.26107  0.50053  0.72508  1.0000
  H   H376      1.0  0.15998  0.49041  0.66467  1.0000
  C   C216      1.0  0.12916  0.23645  0.51782  1.0000
  H   H377      1.0  0.25093  0.37351  0.56983  1.0000
  N   N12       1.0  0.18570  0.47286  0.69373  1.0000
  C   C217      1.0  0.13906  0.30691  0.53502  1.0000
  C   C218      1.0  0.24544  0.35115  0.50346  1.0000
  H   H378      1.0  0.18567  0.41460  0.63267  1.0000
  C   C219      1.0  0.32388  0.35900  0.74209  1.0000
  N   N13       1.0  0.25123  0.34359  0.53894  1.0000
  C   C220      1.0  0.28730  0.40275  0.50277  1.0000
  H   H379      1.0  0.31541  0.28493  0.80586  1.0000
  H   H380      1.0  0.07125  0.12119  0.58890  1.0000
  H   H381      1.0  0.23153  0.44362  0.78198  1.0000
  H   H382      1.0  0.31322  0.18154  0.98389  1.0000
  H   H383      1.0  0.31946  0.33147  0.56262  1.0000
  H   H384      1.0  0.22705  0.27949  0.52592  1.0000
  H   H385      1.0  0.01336  0.19086  0.81476  1.0000
  C   C221      1.0  0.21727  0.28916  0.54514  1.0000
  C   C222      1.0  0.29379  0.14054  0.97939  1.0000
  H   H386      1.0  0.22167  0.47221  0.78371  1.0000
  H   H387      1.0  0.28503  0.33248  0.52616  1.0000
  H   H388      1.0  0.25410  0.00373  0.66522  1.0000
  C   C223      1.0  0.33507  0.35231  0.77179  1.0000
  H   H389      1.0  0.33406  0.36284  0.79399  1.0000
  H   H390      1.0  0.32996  0.23488  0.74335  1.0000
  C   C224      1.0  0.21803  0.09367  0.98945  1.0000
  C   C225      1.0  0.33387  0.16016  0.77178  1.0000
  H   H391      1.0  0.22634  0.01405  0.96350  1.0000
  H   H392      1.0  0.21372  0.49488  0.69567  1.0000
  H   H393      1.0  0.14921  0.28008  0.50247  1.0000
  H   H394      1.0  0.26411  0.50089  0.81132  1.0000
  H   H395      1.0  0.32728  0.22259  0.78464  1.0000
  H   H396      1.0  0.20021  0.09682  0.99051  1.0000
  H   H397      1.0  0.31210  0.14194  0.97762  1.0000
  H   H398      1.0  0.25310  0.15986  0.99694  1.0000
  H   H399      1.0  0.30970  0.50187  0.69553  1.0000
  Fe  Fe25      1.0  0.26503  0.87145  0.29058  1.0000
  S   S49       1.0  0.24310  0.86508  0.33540  1.0000
  S   S50       1.0  0.28563  0.84015  0.27698  1.0000
  Fe  Fe26      1.0  0.24065  0.91662  0.27480  1.0000
  S   S51       1.0  0.21683  0.91191  0.31838  1.0000
  S   S52       1.0  0.23200  0.94707  0.24077  1.0000
  Fe  Fe27      1.0  0.24706  0.90094  0.34831  1.0000
  S   S53       1.0  0.25306  0.91557  0.40082  1.0000
  Fe  Fe28      1.0  0.21486  0.87619  0.30155  1.0000
  S   S54       1.0  0.18404  0.85486  0.30439  1.0000
  S   S55       1.0  0.27127  0.90710  0.30561  1.0000
  S   S56       1.0  0.23647  0.88125  0.25610  1.0000
  Fe  Fe29      1.0  0.11029  0.78849  0.17189  1.0000
  S   S57       1.0  0.09972  0.76870  0.21668  1.0000
  S   S58       1.0  0.13411  0.81732  0.17474  1.0000
  Fe  Fe30      1.0  0.08629  0.75843  0.12220  1.0000
  S   S59       1.0  0.07426  0.73630  0.16441  1.0000
  S   S60       1.0  0.07832  0.74615  0.06898  1.0000
  Fe  Fe31      1.0  0.06565  0.76799  0.19261  1.0000
  S   S61       1.0  0.03644  0.77541  0.22965  1.0000
  Fe  Fe32      1.0  0.10886  0.73867  0.18524  1.0000
  S   S62       1.0  0.12747  0.71011  0.21184  1.0000
  S   S63       1.0  0.07570  0.79022  0.14921  1.0000
  S   S64       1.0  0.12146  0.75831  0.14142  1.0000
  Fe  Fe33      1.0  0.27524  0.60891  0.12763  1.0000
  S   S65       1.0  0.23935  0.60185  0.13790  1.0000
  S   S66       1.0  0.29188  0.60182  0.07629  1.0000
  Fe  Fe34      1.0  0.28273  0.62649  0.20010  1.0000
  S   S67       1.0  0.24693  0.62097  0.21408  1.0000
  S   S68       1.0  0.30233  0.63993  0.24510  1.0000
  Fe  Fe35      1.0  0.25143  0.58752  0.18804  1.0000
  S   S69       1.0  0.23704  0.55647  0.21410  1.0000
  Fe  Fe36      1.0  0.23818  0.63558  0.16328  1.0000
  S   S70       1.0  0.21471  0.66430  0.14680  1.0000
  S   S71       1.0  0.28757  0.59247  0.17616  1.0000
  S   S72       1.0  0.27379  0.64314  0.15086  1.0000
  C   C226      1.0  0.28073  0.61026  0.03638  1.0000
  H   H400      1.0  0.18970  0.72318  0.22505  1.0000
  C   C227      1.0  0.25927  0.61980  0.03330  1.0000
  C   C228      1.0  0.16792  0.76091  0.23226  1.0000
  H   H401      1.0  0.24914  0.62254  0.05572  1.0000
  C   C229      1.0  0.14616  0.85828  0.39015  1.0000
  C   C230      1.0  0.23485  0.51749  0.25138  1.0000
  C   C231      1.0  0.24823  0.53053  0.23028  1.0000
  H   H402      1.0  0.15943  0.90786  0.41908  1.0000
  C   C232      1.0  0.20470  0.77871  0.22850  1.0000
  H   H403      1.0  0.21810  0.52341  0.25748  1.0000
  H   H404      1.0  0.23237  0.83453  0.39135  1.0000
  C   C233      1.0  0.08352  0.75887  0.02919  1.0000
  C   C234      1.0  0.09244  0.78001  0.02649  1.0000
  H   H405      1.0  0.19060  0.86399  0.37522  1.0000
  H   H406      1.0  0.09601  0.78933  0.04914  1.0000
  H   H407      1.0  0.03886  0.71464  0.32813  1.0000
  C   C235      1.0  0.15160  0.69725  0.19360  1.0000
  C   C236      1.0  0.15963  0.70397  0.16212  1.0000
  C   C237      1.0  0.17913  0.69384  0.14855  1.0000
  C   C238      1.0  0.19056  0.67655  0.16589  1.0000
  C   C239      1.0  0.18255  0.66978  0.19742  1.0000
  C   C240      1.0  0.16317  0.68017  0.21125  1.0000
  H   H408      1.0  0.15087  0.71702  0.14822  1.0000
  H   H409      1.0  0.18538  0.69933  0.12438  1.0000
  H   H410      1.0  0.19124  0.65651  0.21102  1.0000
  H   H411      1.0  0.15706  0.67485  0.23563  1.0000
  C   C241      1.0  0.30506  0.72901  0.20630  1.0000
  H   H412      1.0  0.31513  0.52767  0.32975  1.0000
  C   C242      1.0  0.30931  0.85933  0.40604  1.0000
  C   C243      1.0  0.17114  0.84354  0.26805  1.0000
  C   C244      1.0  0.15326  0.82920  0.27226  1.0000
  C   C245      1.0  0.14200  0.82070  0.24400  1.0000
  C   C246      1.0  0.14850  0.82646  0.21119  1.0000
  C   C247      1.0  0.16665  0.84042  0.20702  1.0000
  C   C248      1.0  0.17799  0.84883  0.23523  1.0000
  H   H413      1.0  0.14775  0.82507  0.29751  1.0000
  H   H414      1.0  0.12779  0.81036  0.24757  1.0000
  H   H415      1.0  0.17175  0.84510  0.18177  1.0000
  H   H416      1.0  0.19164  0.85988  0.23153  1.0000
  C   C249      1.0  0.25088  0.90231  0.44082  1.0000
  C   C250      1.0  0.25105  0.91539  0.47033  1.0000
  C   C251      1.0  0.24980  0.87918  0.44399  1.0000
  H   H417      1.0  0.25207  0.93329  0.46819  1.0000
  H   H418      1.0  0.25004  0.86888  0.42157  1.0000
  C   C252      1.0  0.24298  0.97343  0.22938  1.0000
  C   C253      1.0  0.26430  0.97980  0.23877  1.0000
  H   H419      1.0  0.27477  0.96851  0.25353  1.0000
  H   H420      1.0  0.29954  0.91065  0.44195  1.0000
  C   C254      1.0  0.18693  0.87852  0.45890  1.0000
  C   C255      1.0  0.19503  0.86339  0.40252  1.0000
  C   C256      1.0  0.11171  0.68916  0.08578  1.0000
  H   H421      1.0  0.31470  0.71610  0.27205  1.0000
  C   C257      1.0  0.31318  0.83287  0.28937  1.0000
  H   H422      1.0  0.24114  0.98917  0.09630  1.0000
  H   H423      1.0  0.17454  0.74631  0.28295  1.0000
  C   C258      1.0  0.28939  0.82746  0.37855  1.0000
  C   C259      1.0  0.30082  0.57936  0.33068  1.0000
  C   C260      1.0  0.22657  0.98039  0.04805  1.0000
  C   C261      1.0  0.22775  0.95586  0.05841  1.0000
  C   C262      1.0  0.30762  0.56083  0.27458  1.0000
  H   H424      1.0  0.20430  0.88437  0.45842  1.0000
  H   H425      1.0  0.27667  0.59593  0.28094  1.0000
  C   C263      1.0  0.17973  0.77806  0.12500  1.0000
  H   H426      1.0  0.22390  0.69539  0.23060  1.0000
  H   H427      1.0  0.02742  0.66639  0.34538  1.0000
  H   H428      1.0  0.13645  0.76221  0.00396  1.0000
  H   H429      1.0  0.16983  0.79226  0.11406  1.0000
  H   H430      1.0  0.18132  0.93545  0.36601  1.0000
  H   H431      1.0  0.20668  0.75764  0.16849  1.0000
  H   H432      1.0  0.23098  0.98124  0.02078  1.0000
  H   H433      1.0  0.27477  0.54662  0.34194  1.0000
  H   H434      1.0  0.21352  0.81166  0.27694  1.0000
  C   C264      1.0  0.21827  0.77683  0.26181  1.0000
  H   H435      1.0  0.30461  0.59181  0.24521  1.0000
  H   H436      1.0  0.32712  0.56432  0.21094  1.0000
  H   H437      1.0  0.30565  0.79841  0.29512  1.0000
  H   H438      1.0  0.23815  0.80600  0.25148  1.0000
  C   C265      1.0  0.29339  0.70495  0.15712  1.0000
  H   H439      1.0  0.21798  0.59819  0.31102  1.0000
  H   H440      1.0  0.31052  0.78577  0.21640  1.0000
  C   C266      1.0  0.03262  0.68344  0.35188  1.0000
  C   C267      1.0  0.25734  0.54734  0.04251  1.0000
  C   C268      1.0  0.01403  0.69633  0.18484  1.0000
  C   C269      1.0  0.29896  0.52353  0.31862  1.0000
  N   N14       1.0  0.29112  0.56552  0.30283  1.0000
  H   H441      1.0  0.17159  0.68881  0.06905  1.0000
  H   H442      1.0  0.13357  0.67751  0.04634  1.0000
  C   C270      1.0  0.18211  0.69366  0.04730  1.0000
  H   H443      1.0  0.32337  0.72326  0.15865  1.0000
  H   H444      1.0  0.20255  0.94771  0.39138  1.0000
  H   H445      1.0  0.28555  0.81951  0.35397  1.0000
  C   C271      1.0  0.23289  0.59677  0.29436  1.0000
  H   H446      1.0  0.25034  0.70421  0.21501  1.0000
  H   H447      1.0  0.26625  0.57109  0.26391  1.0000
  H   H448      1.0  0.28742  0.50993  0.36658  1.0000
  H   H449      1.0  0.33054  0.65740  0.19105  1.0000
  C   C272      1.0  0.17315  0.89386  0.48323  1.0000
  H   H450      1.0  0.18359  0.82924  0.41196  1.0000
  H   H451      1.0  0.20820  0.77084  0.28322  1.0000
  N   N15       1.0  0.05470  0.69950  0.26196  1.0000
  C   C273      1.0  0.03418  0.69533  0.24119  1.0000
  C   C274      1.0  0.05237  0.68759  0.29536  1.0000
  C   C275      1.0  0.05652  0.72428  0.26686  1.0000
  C   C276      1.0  0.07560  0.69079  0.24453  1.0000
  C   C277      1.0  0.07578  0.66590  0.23405  1.0000
  C   C278      1.0  0.03488  0.70309  0.20382  1.0000
  C   C279      1.0  0.07594  0.73157  0.28981  1.0000
  C   C280      1.0  0.19866  0.67427  0.04053  1.0000
  C   C281      1.0  0.30481  0.77056  0.20336  1.0000
  C   C282      1.0  0.09726  0.65933  0.21517  1.0000
  H   H452      1.0  0.16941  0.89695  0.38012  1.0000
  C   C283      1.0  0.07301  0.75595  0.30041  1.0000
  H   H453      1.0  0.23237  0.53662  0.00772  1.0000
  H   H454      1.0  0.03029  0.67734  0.24142  1.0000
  H   H455      1.0  0.04804  0.66994  0.29104  1.0000
  H   H456      1.0  0.06857  0.68645  0.30896  1.0000
  H   H457      1.0  0.04052  0.73181  0.27650  1.0000
  H   H458      1.0  0.05915  0.73262  0.24211  1.0000
  H   H459      1.0  0.07930  0.70099  0.22179  1.0000
  H   H460      1.0  0.09032  0.69278  0.26118  1.0000
  H   H461      1.0  0.06168  0.66231  0.21710  1.0000
  H   H462      1.0  0.07473  0.65507  0.25671  1.0000
  H   H463      1.0  0.03570  0.72146  0.20258  1.0000
  H   H464      1.0  0.04938  0.69568  0.18997  1.0000
  H   H465      1.0  0.09201  0.72962  0.27588  1.0000
  H   H466      1.0  0.07726  0.72163  0.31334  1.0000
  H   H467      1.0  0.11766  0.84173  0.36962  1.0000
  H   H468      1.0  0.15984  0.68291  0.00904  1.0000
  H   H469      1.0  0.33532  0.56513  0.32821  1.0000
  N   N16       1.0  0.32486  0.87845  0.40341  1.0000
  H   H470      1.0  0.17179  0.73836  0.04881  1.0000
  H   H471      1.0  0.11203  0.66202  0.23134  1.0000
  H   H472      1.0  0.09714  0.64144  0.20813  1.0000
  H   H473      1.0  0.09881  0.66931  0.19163  1.0000
  C   C284      1.0  0.30463  0.84695  0.37253  1.0000
  H   H474      1.0  0.31028  0.59960  0.00892  1.0000
  H   H475      1.0  0.17301  0.78062  0.04928  1.0000
  H   H476      1.0  0.08734  0.76076  0.31617  1.0000
  H   H477      1.0  0.07226  0.76699  0.27794  1.0000
  H   H478      1.0  0.05744  0.75857  0.31537  1.0000
  C   C285      1.0  0.19913  0.83865  0.41293  1.0000
  C   C286      1.0  0.21588  0.82687  0.38931  1.0000
  H   H479      1.0  0.21145  0.87133  0.40373  1.0000
  H   H480      1.0  0.29631  0.93772  0.36324  1.0000
  H   H481      1.0  0.20598  0.83744  0.43892  1.0000
  H   H482      1.0  0.21783  0.80905  0.39652  1.0000
  H   H483      1.0  0.21006  0.82782  0.36264  1.0000
  H   H484      1.0  0.15052  0.79629  0.02942  1.0000
  H   H485      1.0  0.19741  0.77966  0.11736  1.0000
  H   H486      1.0  0.29488  0.70237  0.12935  1.0000
  H   H487      1.0  0.18370  0.79460  0.17278  1.0000
  C   C287      1.0  0.14114  0.75929  0.28211  1.0000
  C   C288      1.0  0.27168  0.57883  0.28796  1.0000
  C   C289      1.0  0.17398  0.89892  0.40721  1.0000
  H   H488      1.0  0.29826  0.74010  0.15370  1.0000
  H   H489      1.0  0.19354  0.79390  0.23031  1.0000
  H   H490      1.0  0.18815  0.86193  0.47138  1.0000
  H   H491      1.0  0.14332  0.87547  0.43782  1.0000
  N   N17       1.0  0.17803  0.87640  0.42341  1.0000
  C   C290      1.0  0.28240  0.54390  0.31647  1.0000
  C   C291      1.0  0.32888  0.88731  0.43854  1.0000
  C   C292      1.0  0.33487  0.57470  0.23068  1.0000
  C   C293      1.0  0.20166  0.73674  0.22936  1.0000
  H   H492      1.0  0.20483  0.73643  0.25695  1.0000
  H   H493      1.0  0.32623  0.72208  0.33066  1.0000
  H   H494      1.0  0.30053  0.68989  0.16998  1.0000
  H   H495      1.0  0.25470  0.58909  0.33562  1.0000
  H   H496      1.0  0.21701  0.78277  0.20849  1.0000
  C   C294      1.0  0.27897  0.77234  0.20364  1.0000
  H   H497      1.0  0.22006  0.72377  0.18504  1.0000
  H   H498      1.0  0.32616  0.92182  0.48660  1.0000
  H   H499      1.0  0.28029  0.53207  0.20620  1.0000
  H   H500      1.0  0.20880  0.67089  0.06358  1.0000
  C   C295      1.0  0.19397  0.91457  0.40739  1.0000
  H   H501      1.0  0.11188  0.85675  0.40833  1.0000
  C   C296      1.0  0.31432  0.89611  0.38086  1.0000
  H   H502      1.0  0.29953  0.55112  0.25428  1.0000
  H   H503      1.0  0.22255  0.95395  0.08526  1.0000
  H   H504      1.0  0.28867  0.58161  0.35176  1.0000
  H   H505      1.0  0.23269  0.76500  0.25852  1.0000
  H   H506      1.0  0.31386  0.71402  0.21701  1.0000
  H   H507      1.0  0.25989  0.98803  0.06177  1.0000
  C   C297      1.0  0.31843  0.73608  0.31613  1.0000
  H   H508      1.0  0.01932  0.70400  0.25266  1.0000
  H   H509      1.0  0.15770  0.84948  0.44082  1.0000
  C   C298      1.0  0.24251  0.55150  0.01162  1.0000
  C   C299      1.0  0.17740  0.77855  0.16351  1.0000
  H   H510      1.0  0.20030  0.91750  0.43326  1.0000
  H   H511      1.0  0.17327  0.76234  0.11463  1.0000
  C   C300      1.0  0.22974  0.98846  0.20997  1.0000
  H   H512      1.0  0.30233  0.51687  0.29281  1.0000
  H   H513      1.0  0.15958  0.77681  0.22414  1.0000
  H   H514      1.0  0.14486  0.71588  0.07369  1.0000
  C   C301      1.0  0.13527  0.71423  0.04980  1.0000
  C   C302      1.0  0.22739  0.79938  0.27184  1.0000
  C   C303      1.0  0.16551  0.76070  0.27131  1.0000
  H   H515      1.0  0.13999  0.75870  0.31014  1.0000
  H   H516      1.0  0.25226  0.79549  0.18840  1.0000
  H   H517      1.0  0.32224  0.95132  0.35629  1.0000
  H   H518      1.0  0.27348  0.83338  0.39036  1.0000
  C   C304      1.0  0.26984  0.52252  0.22273  1.0000
  H   H519      1.0  0.23753  0.79759  0.29519  1.0000
  C   C305      1.0  0.18978  0.75839  0.18011  1.0000
  H   H520      1.0  0.23533  0.74327  0.20979  1.0000
  H   H521      1.0  0.31048  0.77236  0.17666  1.0000
  C   C306      1.0  0.31870  0.81035  0.29550  1.0000
  H   H522      1.0  0.15944  0.77795  0.16925  1.0000
  H   H523      1.0  0.24015  0.71442  0.25528  1.0000
  C   C307      1.0  0.27220  0.00076  0.22885  1.0000
  C   C308      1.0  0.22366  0.72938  0.21122  1.0000
  H   H524      1.0  0.31885  0.55584  0.36368  1.0000
  H   H525      1.0  0.13139  0.77414  0.27324  1.0000
  H   H526      1.0  0.18139  0.74312  0.17165  1.0000
  H   H527      1.0  0.12221  0.72774  0.05116  1.0000
  C   C309      1.0  0.23518  0.70969  0.22929  1.0000
  H   H528      1.0  0.10013  0.70342  0.09182  1.0000
  H   H529      1.0  0.10204  0.67371  0.08577  1.0000
  N   N18       1.0  0.19137  0.75885  0.21828  1.0000
  C   C310      1.0  0.15618  0.86474  0.42489  1.0000
  H   H530      1.0  0.27543  0.70687  0.16363  1.0000
  C   C311      1.0  0.28928  0.50480  0.33970  1.0000
  H   H531      1.0  0.13375  0.74402  0.27173  1.0000
  H   H532      1.0  0.24296  0.56533  0.31551  1.0000
  H   H533      1.0  0.17173  0.77643  0.28194  1.0000
  H   H534      1.0  0.15768  0.74741  0.22172  1.0000
  H   H535      1.0  0.27638  0.80867  0.20500  1.0000
  H   H536      1.0  0.21011  0.67831  0.01942  1.0000
  H   H537      1.0  0.21685  0.98097  0.30804  1.0000
  C   C312      1.0  0.31775  0.58151  0.25777  1.0000
  H   H538      1.0  0.17463  0.94594  0.40798  1.0000
  C   C313      1.0  0.31406  0.93501  0.35575  1.0000
  C   C314      1.0  0.30816  0.89752  0.45717  1.0000
  H   H539      1.0  0.32604  0.75177  0.32434  1.0000
  C   C315      1.0  0.25064  0.58162  0.31088  1.0000
  H   H540      1.0  0.30032  0.73695  0.32203  1.0000
  H   H541      1.0  0.32647  0.69345  0.39362  1.0000
  C   C316      1.0  0.27073  0.79469  0.18903  1.0000
  H   H542      1.0  0.26769  0.56200  0.04738  1.0000
  H   H543      1.0  0.01433  0.70328  0.15879  1.0000
  H   H544      1.0  0.27220  0.77120  0.22968  1.0000
  H   H545      1.0  0.12460  0.68767  0.10583  1.0000
  C   C317      1.0  0.24881  0.86933  0.47636  1.0000
  H   H546      1.0  0.12746  0.83038  0.40929  1.0000
  H   H547      1.0  0.29767  0.81480  0.39516  1.0000
  H   H548      1.0  0.10898  0.69291  0.03200  1.0000
  H   H549      1.0  0.29616  0.88442  0.46304  1.0000
  H   H550      1.0  0.33545  0.87381  0.45532  1.0000
  C   C318      1.0  0.29362  0.60688  0.00684  1.0000
  C   C319      1.0  0.12446  0.84604  0.39482  1.0000
  H   H551      1.0  0.32256  0.66420  0.29859  1.0000
  H   H552      1.0  0.29356  0.75157  0.26313  1.0000
  H   H553      1.0  0.29620  0.85828  0.35406  1.0000
  H   H554      1.0  0.24683  0.54461  0.06522  1.0000
  H   H555      1.0  0.31387  0.89016  0.35419  1.0000
  N   N19       1.0  0.31530  0.74993  0.21935  1.0000
  H   H556      1.0  0.29656  0.89924  0.38782  1.0000
  C   C320      1.0  0.31163  0.75130  0.25706  1.0000
  H   H557      1.0  0.29276  0.86535  0.41562  1.0000
  H   H558      1.0  0.17152  0.78252  0.00353  1.0000
  H   H559      1.0  0.18975  0.65890  0.03421  1.0000
  C   C321      1.0  0.14749  0.76052  0.02628  1.0000
  H   H560      1.0  0.22770  0.58975  0.26972  1.0000
  H   H561      1.0  0.31491  0.92849  0.32946  1.0000
  H   H562      1.0  0.23930  0.61370  0.29029  1.0000
  C   C322      1.0  0.18760  0.93729  0.39224  1.0000
  H   H563      1.0  0.26871  0.53800  0.30002  1.0000
  H   H564      1.0  0.24802  0.85143  0.47858  1.0000
  H   H565      1.0  0.26844  0.53240  0.03865  1.0000
  H   H566      1.0  0.27702  0.79686  0.16280  1.0000
  H   H567      1.0  0.27179  0.75898  0.18813  1.0000
  H   H568      1.0  0.30368  0.59656  0.32142  1.0000
  H   H569      1.0  0.15768  0.84715  0.37547  1.0000
  H   H570      1.0  0.28750  0.72799  0.21513  1.0000
  H   H571      1.0  0.21324  0.98375  0.20243  1.0000
  N   N20       1.0  0.15015  0.71747  0.01947  1.0000
  C   C323      1.0  0.16163  0.78119  0.02722  1.0000
  H   H572      1.0  0.32589  0.86587  0.28596  1.0000
  C   C324      1.0  0.12252  0.69230  0.05107  1.0000
  H   H573      1.0  0.19197  0.70814  0.05469  1.0000
  H   H574      1.0  0.14235  0.87330  0.37461  1.0000
  C   C325      1.0  0.24288  0.99422  0.06928  1.0000
  C   C326      1.0  0.32589  0.91883  0.38010  1.0000
  H   H575      1.0  0.20768  0.90723  0.39186  1.0000
  H   H576      1.0  0.00549  0.74764  0.19164  1.0000
  H   H577      1.0  0.24390  0.99190  0.30031  1.0000
  H   H578      1.0  0.32561  0.92680  0.40541  1.0000
  C   C327      1.0  0.30586  0.72567  0.16739  1.0000
  H   H579      1.0  0.23127  0.56596  0.01796  1.0000
  C   C328      1.0  0.33554  0.66451  0.21490  1.0000
  H   H580      1.0  0.31785  0.76719  0.26695  1.0000
  H   H581      1.0  0.32182  0.55005  0.28309  1.0000
  C   C329      1.0  0.32436  0.65895  0.24467  1.0000
  H   H582      1.0  0.20908  0.98644  0.05074  1.0000
  C   C330      1.0  0.32256  0.57023  0.34722  1.0000
  H   H583      1.0  0.32092  0.59332  0.38989  1.0000
  H   H584      1.0  0.13698  0.76078  0.04947  1.0000
  C   C331      1.0  0.16233  0.73884  0.02470  1.0000
  C   C332      1.0  0.32229  0.73215  0.27833  1.0000
  H   H585      1.0  0.01344  0.67790  0.18308  1.0000
  C   C333      1.0  0.00939  0.76526  0.23848  1.0000
  H   H586      1.0  0.17115  0.91102  0.47311  1.0000
  H   H587      1.0  0.01989  0.69111  0.36912  1.0000
  H   H588      1.0  0.07175  0.73082  0.00115  1.0000
  C   C334      1.0  0.32990  0.84850  0.29098  1.0000
  C   C335      1.0  0.33284  0.58783  0.36976  1.0000
  H   H589      1.0  0.32626  0.59193  0.27658  1.0000
  H   H590      1.0  0.24494  0.94878  0.05513  1.0000
  C   C336      1.0  0.33122  0.66826  0.27546  1.0000
  H   H591      1.0  0.17486  0.74092  0.00412  1.0000
  H   H592      1.0  0.23016  0.99690  0.34048  1.0000
  C   C337      1.0  0.22757  0.99537  0.31277  1.0000
  C   C338      1.0  0.31464  0.90799  0.49082  1.0000
  H   H593      1.0  0.15638  0.88718  0.48760  1.0000
  C   C339      1.0  0.16753  0.69884  0.01572  1.0000
  H   H594      1.0  0.21635  0.94626  0.04232  1.0000
  H   H595      1.0  0.31548  0.84694  0.42506  1.0000
  H   H596      1.0  0.00733  0.78179  0.28685  1.0000
  H   H597      1.0  0.04879  0.68238  0.36545  1.0000
  C   C340      1.0  0.03452  0.69765  0.31998  1.0000
  H   H598      1.0  0.32021  0.84014  0.36092  1.0000
  H   H599      1.0  0.01786  0.69867  0.30793  1.0000
  C   C341      1.0  0.25085  0.62582  0.00115  1.0000
  Fe  Fe37      1.0  0.22080  0.87833  0.66647  1.0000
  S   S73       1.0  0.24778  0.89204  0.69887  1.0000
  S   S74       1.0  0.18604  0.86914  0.68416  1.0000
  Fe  Fe38      1.0  0.24852  0.88257  0.60037  1.0000
  S   S75       1.0  0.27762  0.89659  0.62853  1.0000
  S   S76       1.0  0.24768  0.86901  0.54595  1.0000
  Fe  Fe39      1.0  0.27135  0.87016  0.66761  1.0000
  S   S77       1.0  0.29473  0.84532  0.69459  1.0000
  Fe  Fe40      1.0  0.25179  0.91763  0.65777  1.0000
  S   S78       1.0  0.25390  0.95574  0.66457  1.0000
  S   S79       1.0  0.24384  0.85497  0.63818  1.0000
  S   S80       1.0  0.22322  0.90504  0.62665  1.0000
  Fe  Fe41      1.0  0.12683  0.77873  0.80591  1.0000
  S   S81       1.0  0.11035  0.74981  0.78077  1.0000
  S   S82       1.0  0.16000  0.79385  0.79011  1.0000
  Fe  Fe42      1.0  0.09875  0.77365  0.87205  1.0000
  S   S83       1.0  0.08027  0.74468  0.85127  1.0000
  S   S84       1.0  0.09785  0.78978  0.92462  1.0000
  Fe  Fe43      1.0  0.11392  0.73249  0.83122  1.0000
  S   S85       1.0  0.12887  0.69832  0.84513  1.0000
  Fe  Fe44      1.0  0.07770  0.76425  0.80227  1.0000
  S   S86       1.0  0.04559  0.77308  0.77166  1.0000
  S   S87       1.0  0.13203  0.76033  0.85488  1.0000
  S   S88       1.0  0.09447  0.79432  0.82462  1.0000
  Fe  Fe45      1.0  0.29198  0.62583  0.81366  1.0000
  S   S89       1.0  0.26639  0.61170  0.77909  1.0000
  H   H600      1.0  0.14472  0.73139  0.96911  1.0000
  Fe  Fe46      1.0  0.26151  0.62266  0.87659  1.0000
  S   S90       1.0  0.23401  0.60826  0.84554  1.0000
  S   S91       1.0  0.25176  0.62985  0.93180  1.0000
  Fe  Fe47      1.0  0.26067  0.58669  0.82026  1.0000
  S   S92       1.0  0.25904  0.54855  0.81700  1.0000
  Fe  Fe48      1.0  0.24204  0.63442  0.80733  1.0000
  S   S93       1.0  0.21731  0.65633  0.77799  1.0000
  S   S94       1.0  0.28766  0.59954  0.85390  1.0000
  S   S95       1.0  0.26811  0.65022  0.83923  1.0000
  C   C342      1.0  0.23455  0.52647  0.90149  1.0000
  C   C343      1.0  0.25983  0.53055  0.78098  1.0000
  C   C344      1.0  0.25768  0.53861  0.74788  1.0000
  H   H601      1.0  0.19034  0.94458  0.82087  1.0000
  H   H602      1.0  0.30104  0.53990  0.71598  1.0000
  H   H603      1.0  0.25543  0.55632  0.74363  1.0000
  H   H604      1.0  0.24641  0.73827  0.82927  1.0000
  C   C345      1.0  0.15332  0.68671  0.82599  1.0000
  C   C346      1.0  0.16729  0.67218  0.84484  1.0000
  C   C347      1.0  0.18699  0.66280  0.83057  1.0000
  C   C348      1.0  0.19247  0.66726  0.79686  1.0000
  C   C349      1.0  0.17808  0.68112  0.77765  1.0000
  C   C350      1.0  0.15880  0.69115  0.79229  1.0000
  H   H605      1.0  0.16296  0.66835  0.87074  1.0000
  H   H606      1.0  0.19781  0.65199  0.84556  1.0000
  H   H607      1.0  0.18206  0.68444  0.75145  1.0000
  H   H608      1.0  0.14797  0.70201  0.77737  1.0000
  C   C351      1.0  0.26199  0.70909  0.78134  1.0000
  C   C352      1.0  0.02126  0.76065  0.75448  1.0000
  H   H609      1.0  0.21960  0.72850  0.86941  1.0000
  C   C353      1.0  0.28522  0.61300  0.97467  1.0000
  C   C354      1.0  0.26369  0.62240  0.97163  1.0000
  H   H610      1.0  0.12094  0.71732  0.92169  1.0000
  H   H611      1.0  0.29543  0.61059  0.95231  1.0000
  H   H612      1.0  0.16490  0.95835  0.80739  1.0000
  H   H613      1.0  0.19119  0.51477  0.65394  1.0000
  C   C355      1.0  0.09221  0.77734  0.96447  1.0000
  C   C356      1.0  0.08329  0.75620  0.96721  1.0000
  N   N21       1.0  0.33119  0.57395  0.72937  1.0000
  H   H614      1.0  0.07956  0.74701  0.94450  1.0000
  C   C357      1.0  0.17914  0.84806  0.71359  1.0000
  C   C358      1.0  0.19499  0.83835  0.73534  1.0000
  C   C359      1.0  0.18870  0.82199  0.75880  1.0000
  C   C360      1.0  0.16656  0.81509  0.76077  1.0000
  C   C361      1.0  0.15067  0.82493  0.73921  1.0000
  C   C362      1.0  0.15694  0.84139  0.71586  1.0000
  H   H615      1.0  0.21202  0.84360  0.73420  1.0000
  H   H616      1.0  0.20101  0.81473  0.77574  1.0000
  H   H617      1.0  0.13357  0.81983  0.74047  1.0000
  H   H618      1.0  0.14450  0.84893  0.69935  1.0000
  C   C363      1.0  0.25140  0.97553  0.69856  1.0000
  H   H619      1.0  0.31505  0.80154  0.60701  1.0000
  H   H620      1.0  0.26501  0.58212  0.92475  1.0000
  H   H621      1.0  0.21927  0.57758  0.89390  1.0000
  C   C364      1.0  0.31868  0.66965  0.75572  1.0000
  H   H622      1.0  0.18273  0.59674  0.89862  1.0000
  H   H623      1.0  0.30171  0.66916  0.76486  1.0000
  C   C365      1.0  0.24648  0.98546  0.75818  1.0000
  N   N22       1.0  0.21106  0.74272  0.82046  1.0000
  C   C366      1.0  0.32057  0.83426  0.67904  1.0000
  H   H624      1.0  0.20533  0.50624  0.90776  1.0000
  C   C367      1.0  0.23659  0.53340  0.93928  1.0000
  C   C368      1.0  0.19839  0.74992  0.75850  1.0000
  H   H625      1.0  0.32267  0.89532  0.50770  1.0000
  C   C369      1.0  0.20600  0.72808  0.85041  1.0000
  C   C370      1.0  0.15863  0.89728  0.75640  1.0000
  H   H626      1.0  0.09871  0.70839  0.94907  1.0000
  H   H627      1.0  0.24148  0.77017  0.85704  1.0000
  H   H628      1.0  0.25028  0.91584  0.52517  1.0000
  C   C371      1.0  0.25821  0.52369  0.72020  1.0000
  H   H629      1.0  0.20710  0.95767  0.76271  1.0000
  H   H630      1.0  0.16440  0.72214  0.91161  1.0000
  H   H631      1.0  0.14421  0.53971  0.71541  1.0000
  S   S96       1.0  0.32716  0.63140  0.79382  1.0000
  C   C372      1.0  0.19187  0.98008  0.81629  1.0000
  H   H632      1.0  0.18632  0.98324  0.84274  1.0000
  C   C373      1.0  0.00579  0.77413  0.73625  1.0000
  H   H633      1.0  0.21997  0.92384  0.74297  1.0000
  H   H634      1.0  0.20334  0.90040  0.73867  1.0000
  H   H635      1.0  0.21385  0.56878  0.96976  1.0000
  H   H636      1.0  0.30747  0.54818  0.77787  1.0000
  H   H637      1.0  0.22625  0.80863  0.84587  1.0000
  C   C374      1.0  0.19731  0.94541  0.69298  1.0000
  C   C375      1.0  0.23433  0.73683  0.80818  1.0000
  H   H638      1.0  0.25128  0.52402  0.88982  1.0000
  C   C376      1.0  0.24881  0.96916  0.73241  1.0000
  H   H639      1.0  0.19216  0.77278  0.83407  1.0000
  H   H640      1.0  0.21801  0.76504  0.88417  1.0000
  H   H641      1.0  0.24885  0.95167  0.73877  1.0000
  C   C377      1.0  0.25009  0.90555  0.50270  1.0000
  N   N23       1.0  0.18489  0.93078  0.75176  1.0000
  H   H642      1.0  0.21859  0.92307  0.80435  1.0000
  C   C378      1.0  0.23172  0.89116  0.78901  1.0000
  H   H643      1.0  0.21230  0.93429  0.69004  1.0000
  H   H644      1.0  0.24790  0.52058  0.95113  1.0000
  H   H645      1.0  0.28150  0.53334  0.92686  1.0000
  C   C379      1.0  0.11529  0.70364  0.93828  1.0000
  H   H646      1.0  0.27090  0.54441  0.97953  1.0000
  C   C380      1.0  0.18331  0.95776  0.80413  1.0000
  H   H647      1.0  0.16352  0.75193  0.74321  1.0000
  H   H648      1.0  0.19381  0.72439  0.91976  1.0000
  H   H649      1.0  0.32330  0.85693  0.63720  1.0000
  H   H650      1.0  0.14371  0.88688  0.80410  1.0000
  H   H651      1.0  0.18129  0.75085  0.87568  1.0000
  H   H652      1.0  0.23142  0.58992  0.95517  1.0000
  H   H653      1.0  0.17721  0.74501  0.80183  1.0000
  C   C381      1.0  0.18136  0.71935  0.90080  1.0000
  H   H654      1.0  0.16958  0.72869  0.85157  1.0000
  H   H655      1.0  0.00907  0.79157  0.73264  1.0000
  H   H656      1.0  0.31584  0.52223  0.66375  1.0000
  H   H657      1.0  0.22689  0.70990  0.77189  1.0000
  H   H658      1.0  0.12422  0.89969  0.77439  1.0000
  H   H659      1.0  0.16337  0.94337  0.71182  1.0000
  C   C382      1.0  0.16487  0.92083  0.76858  1.0000
  C   C383      1.0  0.32513  0.68687  0.73389  1.0000
  C   C384      1.0  0.30799  0.58407  0.72538  1.0000
  C   C385      1.0  0.13918  0.88847  0.77695  1.0000
  H   H660      1.0  0.19910  0.76826  0.76083  1.0000
  H   H661      1.0  0.23031  0.80344  0.89041  1.0000
  H   H662      1.0  0.02835  0.72740  0.77242  1.0000
  C   C386      1.0  0.26244  0.50737  0.78589  1.0000
  H   H663      1.0  0.17447  0.96324  0.65896  1.0000
  C   C387      1.0  0.27675  0.59937  0.68810  1.0000
  H   H664      1.0  0.30656  0.59988  0.74013  1.0000
  H   H665      1.0  0.29520  0.57326  0.73633  1.0000
  H   H666      1.0  0.29117  0.82014  0.61097  1.0000
  C   C388      1.0  0.20977  0.76707  0.82979  1.0000
  H   H667      1.0  0.16715  0.91947  0.79633  1.0000
  H   H668      1.0  0.31814  0.55035  0.92621  1.0000
  H   H669      1.0  0.30045  0.57378  0.67325  1.0000
  H   H670      1.0  0.19874  0.90100  0.80450  1.0000
  C   C389      1.0  0.26077  0.56451  0.91977  1.0000
  C   C390      1.0  0.16354  0.50866  0.71155  1.0000
  H   H671      1.0  0.27532  0.70716  0.65673  1.0000
  C   C391      1.0  0.32084  0.51566  0.68898  1.0000
  H   H672      1.0  0.30121  0.56461  0.95758  1.0000
  H   H673      1.0  0.27154  0.60252  0.66155  1.0000
  H   H674      1.0  0.26484  0.58785  0.69985  1.0000
  C   C392      1.0  0.27748  0.72118  0.67460  1.0000
  N   N24       1.0  0.25446  0.78286  0.67737  1.0000
  C   C393      1.0  0.26526  0.76104  0.68842  1.0000
  C   C394      1.0  0.25971  0.80039  0.70330  1.0000
  C   C395      1.0  0.22968  0.78010  0.67436  1.0000
  C   C396      1.0  0.26337  0.79019  0.64351  1.0000
  C   C397      1.0  0.28910  0.78923  0.63961  1.0000
  C   C398      1.0  0.26274  0.74116  0.66380  1.0000
  C   C399      1.0  0.21583  0.80155  0.66531  1.0000
  C   C400      1.0  0.24827  0.79824  0.73836  1.0000
  C   C401      1.0  0.25529  0.81680  0.76213  1.0000
  H   H675      1.0  0.27600  0.61548  0.70195  1.0000
  H   H676      1.0  0.32414  0.72292  0.79484  1.0000
  C   C402      1.0  0.19086  0.79755  0.66713  1.0000
  H   H677      1.0  0.25815  0.75561  0.71295  1.0000
  H   H678      1.0  0.28333  0.76310  0.69343  1.0000
  H   H679      1.0  0.27793  0.80042  0.70821  1.0000
  H   H680      1.0  0.25559  0.81740  0.69347  1.0000
  H   H681      1.0  0.22283  0.77282  0.69794  1.0000
  H   H682      1.0  0.22605  0.76786  0.65416  1.0000
  H   H683      1.0  0.25632  0.78034  0.62248  1.0000
  H   H684      1.0  0.25767  0.80765  0.63823  1.0000
  H   H685      1.0  0.29544  0.77176  0.63678  1.0000
  H   H686      1.0  0.29725  0.79630  0.66193  1.0000
  H   H687      1.0  0.24523  0.73576  0.66371  1.0000
  H   H688      1.0  0.26744  0.74546  0.63752  1.0000
  H   H689      1.0  0.21971  0.80697  0.63913  1.0000
  H   H690      1.0  0.21925  0.81549  0.68264  1.0000
  H   H691      1.0  0.22991  0.79954  0.73605  1.0000
  H   H692      1.0  0.25286  0.78213  0.75054  1.0000
  H   H693      1.0  0.27356  0.81567  0.76659  1.0000
  H   H694      1.0  0.25098  0.83341  0.75112  1.0000
  H   H695      1.0  0.24654  0.81535  0.78679  1.0000
  H   H696      1.0  0.26397  0.57318  0.98417  1.0000
  C   C403      1.0  0.30313  0.56135  0.93009  1.0000
  C   C404      1.0  0.29658  0.80232  0.60866  1.0000
  H   H697      1.0  0.31075  0.54914  0.83944  1.0000
  H   H698      1.0  0.21036  0.97991  0.81572  1.0000
  H   H699      1.0  0.12551  0.68530  0.98247  1.0000
  H   H700      1.0  0.18144  0.81289  0.65920  1.0000
  H   H701      1.0  0.18633  0.78375  0.65006  1.0000
  H   H702      1.0  0.18582  0.79357  0.69348  1.0000
  H   H703      1.0  0.20254  0.96126  0.70436  1.0000
  C   C405      1.0  0.17946  0.93377  0.71467  1.0000
  H   H704      1.0  0.14997  0.93215  0.76511  1.0000
  H   H705      1.0  0.20263  0.80331  0.87292  1.0000
  C   C406      1.0  0.32510  0.55424  0.82378  1.0000
  C   C407      1.0  0.22523  0.57317  0.94877  1.0000
  C   C408      1.0  0.01672  0.73809  0.75861  1.0000
  H   H706      1.0  0.23421  0.63317  0.99918  1.0000
  C   C409      1.0  0.33615  0.56966  0.76639  1.0000
  C   C410      1.0  0.28271  0.55016  0.91561  1.0000
  C   C411      1.0  0.21254  0.90851  0.79028  1.0000
  C   C412      1.0  0.18930  0.95358  0.76635  1.0000
  C   C413      1.0  0.20984  0.57547  0.91758  1.0000
  H   H707      1.0  0.20114  0.90314  0.51477  1.0000
  H   H708      1.0  0.22014  0.53116  0.95171  1.0000
  H   H709      1.0  0.18319  0.75266  0.70878  1.0000
  H   H710      1.0  0.17969  0.96684  0.75234  1.0000
  H   H711      1.0  0.27381  0.71025  0.80278  1.0000
  H   H712      1.0  0.31301  0.69966  0.72651  1.0000
  C   C414      1.0  0.22158  0.50571  0.62833  1.0000
  N   N25       1.0  0.24461  0.55657  0.94619  1.0000
  H   H713      1.0  0.26389  0.69212  0.77026  1.0000
  C   C415      1.0  0.22046  0.79885  0.86789  1.0000
  C   C416      1.0  0.33098  0.84292  0.65041  1.0000
  H   H714      1.0  0.10334  0.80567  0.99247  1.0000
  H   H715      1.0  0.16069  0.50519  0.73884  1.0000
  C   C417      1.0  0.31862  0.53390  0.71584  1.0000
  C   C418      1.0  0.24898  0.88244  0.50592  1.0000
  H   H716      1.0  0.25658  0.53018  0.69477  1.0000
  H   H717      1.0  0.24653  0.89816  0.77643  1.0000
  H   H718      1.0  0.21553  0.77741  0.80833  1.0000
  H   H719      1.0  0.22534  0.53911  0.88621  1.0000
  H   H720      1.0  0.17430  0.90606  0.53499  1.0000
  H   H721      1.0  0.29535  0.72550  0.67438  1.0000
  H   H722      1.0  0.28961  0.79528  0.58514  1.0000
  H   H723      1.0  0.17840  0.72669  0.73008  1.0000
  C   C419      1.0  0.18345  0.73309  0.86847  1.0000
  H   H724      1.0  0.32295  0.80933  0.71823  1.0000
  C   C420      1.0  0.22266  0.50450  0.89797  1.0000
  H   H725      1.0  0.30590  0.57735  0.91691  1.0000
  H   H726      1.0  0.11350  0.68856  0.92238  1.0000
  H   H727      1.0  0.23226  0.51497  0.64597  1.0000
  C   C421      1.0  0.19384  0.59567  0.92102  1.0000
  H   H728      1.0  0.15344  0.89749  0.72950  1.0000
  H   H729      1.0  0.30462  0.57602  0.79322  1.0000
  C   C422      1.0  0.30043  0.58923  0.68864  1.0000
  H   H730      1.0  0.13498  0.87170  0.76750  1.0000
  H   H731      1.0  0.31135  0.60138  0.67633  1.0000
  H   H732      1.0  0.20541  0.71034  0.84242  1.0000
  H   H733      1.0  0.29945  0.91484  0.50376  1.0000
  H   H734      1.0  0.28587  0.54745  0.88815  1.0000
  C   C423      1.0  0.31671  0.56191  0.78910  1.0000
  H   H735      1.0  0.18707  0.87874  0.52925  1.0000
  H   H736      1.0  0.23489  0.70014  0.81317  1.0000
  H   H737      1.0  0.19964  0.56046  0.91524  1.0000
  C   C424      1.0  0.20536  0.91566  0.75424  1.0000
  H   H738      1.0  0.24471  0.98023  0.78418  1.0000
  C   C425      1.0  0.17973  0.74494  0.73368  1.0000
  H   H739      1.0  0.01403  0.80556  0.81524  1.0000
  C   C426      1.0  0.22346  0.77387  0.86108  1.0000
  H   H740      1.0  0.23971  0.74897  0.78878  1.0000
  H   H741      1.0  0.22669  0.87607  0.77507  1.0000
  H   H742      1.0  0.25302  0.56535  0.89437  1.0000
  H   H743      1.0  0.27284  0.71550  0.70035  1.0000
  H   H744      1.0  0.20328  0.61127  0.92226  1.0000
  H   H745      1.0  0.19237  0.72086  0.78905  1.0000
  H   H746      1.0  0.23647  0.88617  0.81513  1.0000
  H   H747      1.0  0.32273  0.52598  0.74051  1.0000
  C   C427      1.0  0.18852  0.95080  0.65758  1.0000
  H   H748      1.0  0.18287  0.93550  0.64488  1.0000
  H   H749      1.0  0.20206  0.95791  0.64211  1.0000
  H   H750      1.0  0.21759  0.51658  0.60629  1.0000
  H   H751      1.0  0.26623  0.72144  0.76165  1.0000
  C   C428      1.0  0.23801  0.71294  0.79362  1.0000
  H   H752      1.0  0.21424  0.74356  0.74711  1.0000
  C   C429      1.0  0.33428  0.65324  0.76592  1.0000
  H   H753      1.0  0.18380  0.70131  0.89531  1.0000
  C   C430      1.0  0.19404  0.73889  0.79333  1.0000
  H   H754      1.0  0.17283  0.88519  0.75945  1.0000
  H   H755      1.0  0.17710  0.91742  0.70221  1.0000
  H   H756      1.0  0.33343  0.56801  0.83695  1.0000
  C   C431      1.0  0.13652  0.72006  0.98737  1.0000
  H   H757      1.0  0.14778  0.69249  0.95440  1.0000
  C   C432      1.0  0.13207  0.69876  0.96656  1.0000
  H   H758      1.0  0.33420  0.78211  0.55480  1.0000
  H   H759      1.0  0.14728  0.52930  0.67286  1.0000
  H   H760      1.0  0.18339  0.59430  0.94414  1.0000
  C   C433      1.0  0.25663  0.55667  0.97975  1.0000
  H   H761      1.0  0.17947  0.51741  0.70926  1.0000
  H   H762      1.0  0.17884  0.70248  0.99411  1.0000
  C   C434      1.0  0.25197  0.99849  0.69118  1.0000
  H   H763      1.0  0.12834  0.51631  0.70213  1.0000
  C   C435      1.0  0.14465  0.52439  0.69965  1.0000
  C   C436      1.0  0.33467  0.55298  0.70869  1.0000
  C   C437      1.0  0.33083  0.81610  0.69602  1.0000
  H   H764      1.0  0.18539  0.99396  0.80012  1.0000
  H   H765      1.0  0.12013  0.72835  0.99313  1.0000
  C   C438      1.0  0.09661  0.78923  0.99430  1.0000
  H   H766      1.0  0.33400  0.55690  0.68117  1.0000
  C   C439      1.0  0.18464  0.89549  0.51759  1.0000
  C   C440      1.0  0.07880  0.74712  0.99938  1.0000
  Fe  Fe49      1.0  0.61210  0.23236  0.31127  1.0000
  S   S97       1.0  0.63219  0.26144  0.32688  1.0000
  S   S98       1.0  0.62693  0.19757  0.30194  1.0000
  Fe  Fe50      1.0  0.56740  0.25985  0.30987  1.0000
  S   S99       1.0  0.58495  0.29093  0.32504  1.0000
  S   S100      1.0  0.52895  0.25917  0.30900  1.0000
  Fe  Fe51      1.0  0.61194  0.28037  0.28805  1.0000
  S   S101      1.0  0.62622  0.30180  0.24603  1.0000
  Fe  Fe52      1.0  0.60366  0.26925  0.36283  1.0000
  S   S102      1.0  0.60887  0.28200  0.41665  1.0000
  S   S103      1.0  0.59308  0.25064  0.27028  1.0000
  S   S104      1.0  0.58497  0.23884  0.34986  1.0000
  Fe  Fe53      1.0  0.38951  0.25608  0.11517  1.0000
  S   S105      1.0  0.40414  0.23103  0.15217  1.0000
  S   S106      1.0  0.38891  0.24381  0.06019  1.0000
  Fe  Fe54      1.0  0.37634  0.28828  0.17325  1.0000
  S   S107      1.0  0.39022  0.26556  0.21351  1.0000
  S   S108      1.0  0.35966  0.32233  0.18245  1.0000
  Fe  Fe55      1.0  0.41972  0.25995  0.17858  1.0000
  S   S109      1.0  0.45766  0.26147  0.18737  1.0000
  Fe  Fe56      1.0  0.37360  0.23861  0.18367  1.0000
  S   S110      1.0  0.35193  0.21403  0.21122  1.0000
  S   S111      1.0  0.40667  0.28463  0.13960  1.0000
  S   S112      1.0  0.35802  0.26179  0.14555  1.0000
  H   H767      1.0  0.34588  0.32314  0.30575  1.0000
  H   H768      1.0  0.48816  0.30780  0.18514  1.0000
  N   N26       1.0  0.53218  0.26987  0.43620  1.0000
  H   H769      1.0  0.55249  0.21079  0.38097  1.0000
  H   H770      1.0  0.65977  0.24734  0.17901  1.0000
  C   C441      1.0  0.39134  0.25676  0.01979  1.0000
  C   C442      1.0  0.48568  0.24693  0.05243  1.0000
  H   H771      1.0  0.50570  0.27877  0.37757  1.0000
  H   H772      1.0  0.39777  0.28963  0.03818  1.0000
  C   C443      1.0  0.63186  0.17413  0.46939  1.0000
  H   H773      1.0  0.57438  0.31659  0.39347  1.0000
  H   H774      1.0  0.46026  0.21326  0.15328  1.0000
  H   H775      1.0  0.47172  0.29773  0.40200  1.0000
  H   H776      1.0  0.65893  0.31049  0.29887  1.0000
  H   H777      1.0  0.63266  0.20458  0.37454  1.0000
  H   H778      1.0  0.46656  0.18553  0.13786  1.0000
  H   H779      1.0  0.65354  0.42067  0.23443  1.0000
  H   H780      1.0  0.66841  0.22154  0.19931  1.0000
  C   C444      1.0  0.65539  0.19053  0.30861  1.0000
  H   H781      1.0  0.45828  0.21376  0.02892  1.0000
  C   C445      1.0  0.60578  0.26823  0.45619  1.0000
  C   C446      1.0  0.47246  0.27948  0.39740  1.0000
  C   C447      1.0  0.59982  0.24596  0.45846  1.0000
  C   C448      1.0  0.34185  0.33069  0.28159  1.0000
  H   H782      1.0  0.59671  0.23671  0.43564  1.0000
  C   C449      1.0  0.50946  0.25957  0.27469  1.0000
  C   C450      1.0  0.48667  0.25674  0.28165  1.0000
  C   C451      1.0  0.47064  0.25696  0.25545  1.0000
  C   C452      1.0  0.47708  0.26037  0.22179  1.0000
  C   C453      1.0  0.49985  0.26325  0.21487  1.0000
  C   C454      1.0  0.51591  0.26282  0.24101  1.0000
  H   H783      1.0  0.48141  0.25405  0.30749  1.0000
  H   H784      1.0  0.45336  0.25417  0.26131  1.0000
  H   H785      1.0  0.50518  0.26577  0.18902  1.0000
  H   H786      1.0  0.53330  0.26502  0.23507  1.0000
  H   H787      1.0  0.49824  0.26286  0.45114  1.0000
  H   H788      1.0  0.49474  0.22577  0.00863  1.0000
  H   H789      1.0  0.63614  0.47237  0.31835  1.0000
  H   H790      1.0  0.50267  0.29116  0.44233  1.0000
  H   H791      1.0  0.66140  0.45662  0.21905  1.0000
  H   H792      1.0  0.35087  0.28141  0.30253  1.0000
  C   C455      1.0  0.50725  0.27398  0.43357  1.0000
  C   C456      1.0  0.44538  0.34891  0.25561  1.0000
  H   H793      1.0  0.52871  0.24576  0.02588  1.0000
  H   H794      1.0  0.61713  0.20599  0.41267  1.0000
  H   H795      1.0  0.41155  0.29709  0.31776  1.0000
  H   H796      1.0  0.46231  0.27104  0.41684  1.0000
  C   C457      1.0  0.54442  0.29104  0.42978  1.0000
  H   H797      1.0  0.45618  0.30765  0.22398  1.0000
  C   C458      1.0  0.53481  0.21307  0.38866  1.0000
  H   H798      1.0  0.33788  0.25684  0.31893  1.0000
  C   C459      1.0  0.61895  0.17351  0.38801  1.0000
  H   H799      1.0  0.61391  0.29738  0.48481  1.0000
  H   H800      1.0  0.65154  0.15581  0.29693  1.0000
  C   C460      1.0  0.39861  0.36355  0.23178  1.0000
  C   C461      1.0  0.55657  0.32180  0.39063  1.0000
  H   H801      1.0  0.36328  0.25418  0.29463  1.0000
  H   H802      1.0  0.37161  0.38753  0.22185  1.0000
  H   H803      1.0  0.37670  0.36792  0.18809  1.0000
  H   H804      1.0  0.43748  0.23359  0.09513  1.0000
  C   C462      1.0  0.59766  0.23574  0.49044  1.0000
  H   H805      1.0  0.41888  0.26984  0.30118  1.0000
  H   H806      1.0  0.39556  0.39037  0.19464  1.0000
  H   H807      1.0  0.47558  0.28534  0.08427  1.0000
  C   C463      1.0  0.54167  0.30178  0.39439  1.0000
  H   H808      1.0  0.44362  0.29822  0.27800  1.0000
  H   H809      1.0  0.42790  0.28539  0.24578  1.0000
  C   C464      1.0  0.53272  0.22822  0.41964  1.0000
  H   H810      1.0  0.48701  0.32569  0.14852  1.0000
  H   H811      1.0  0.53688  0.25622  0.38557  1.0000
  C   C465      1.0  0.46067  0.33241  0.18528  1.0000
  H   H812      1.0  0.45759  0.32803  0.29746  1.0000
  C   C466      1.0  0.52397  0.23004  0.03840  1.0000
  H   H813      1.0  0.47035  0.36627  0.30791  1.0000
  H   H814      1.0  0.46750  0.30370  0.15279  1.0000
  H   H815      1.0  0.40650  0.37480  0.25006  1.0000
  H   H816      1.0  0.41058  0.32928  0.27805  1.0000
  C   C467      1.0  0.45719  0.28424  0.08374  1.0000
  H   H817      1.0  0.45251  0.36242  0.24007  1.0000
  H   H818      1.0  0.64953  0.32387  0.19307  1.0000
  H   H819      1.0  0.45055  0.34128  0.16572  1.0000
  H   H820      1.0  0.56255  0.28810  0.43447  1.0000
  H   H821      1.0  0.46193  0.24492  0.11244  1.0000
  H   H822      1.0  0.47084  0.34462  0.19878  1.0000
  C   C468      1.0  0.38485  0.37821  0.20750  1.0000
  C   C469      1.0  0.45042  0.23067  0.03026  1.0000
  H   H823      1.0  0.42881  0.30730  0.07599  1.0000
  H   H824      1.0  0.34588  0.20535  0.13923  1.0000
  H   H825      1.0  0.64450  0.44597  0.33679  1.0000
  H   H826      1.0  0.40725  0.33882  0.19360  1.0000
  H   H827      1.0  0.51508  0.22859  0.42806  1.0000
  H   H828      1.0  0.46257  0.19887  0.07860  1.0000
  H   H829      1.0  0.52509  0.22020  0.36710  1.0000
  H   H830      1.0  0.55944  0.25111  0.41286  1.0000
  H   H831      1.0  0.48896  0.26160  0.03609  1.0000
  C   C470      1.0  0.47680  0.31637  0.16684  1.0000
  H   H832      1.0  0.63456  0.22454  0.23641  1.0000
  H   H833      1.0  0.38689  0.35302  0.24583  1.0000
  H   H834      1.0  0.48806  0.36414  0.27070  1.0000
  H   H835      1.0  0.64621  0.37271  0.22191  1.0000
  H   H836      1.0  0.58784  0.16157  0.36836  1.0000
  C   C471      1.0  0.65820  0.45206  0.28649  1.0000
  C   C472      1.0  0.63568  0.23394  0.21226  1.0000
  H   H837      1.0  0.49637  0.25257  0.39181  1.0000
  H   H838      1.0  0.52848  0.24714  0.47840  1.0000
  C   C473      1.0  0.41634  0.34904  0.21233  1.0000
  C   C474      1.0  0.41671  0.31984  0.25541  1.0000
  C   C475      1.0  0.62980  0.19559  0.39878  1.0000
  C   C476      1.0  0.65254  0.23700  0.41633  1.0000
  H   H839      1.0  0.40146  0.31555  0.24108  1.0000
  H   H840      1.0  0.49308  0.34592  0.30624  1.0000
  C   C477      1.0  0.49656  0.27055  0.39817  1.0000
  H   H841      1.0  0.45344  0.31386  0.05193  1.0000
  H   H842      1.0  0.58452  0.18419  0.39815  1.0000
  H   H843      1.0  0.55224  0.33469  0.40992  1.0000
  H   H844      1.0  0.59294  0.21855  0.49194  1.0000
  C   C478      1.0  0.66468  0.21393  0.41191  1.0000
  C   C479      1.0  0.45588  0.23435  0.09155  1.0000
  C   C480      1.0  0.66306  0.16832  0.30463  1.0000
  C   C481      1.0  0.66752  0.25572  0.40506  1.0000
  C   C482      1.0  0.42671  0.29706  0.26751  1.0000
  C   C483      1.0  0.59482  0.17751  0.37684  1.0000
  C   C484      1.0  0.66819  0.41021  0.24213  1.0000
  H   H845      1.0  0.55579  0.25711  0.47336  1.0000
  H   H846      1.0  0.34429  0.26805  0.24366  1.0000
  C   C485      1.0  0.53785  0.26222  0.47173  1.0000
  C   C486      1.0  0.64045  0.37935  0.24679  1.0000
  H   H847      1.0  0.59390  0.18937  0.35533  1.0000
  C   C487      1.0  0.39632  0.27923  0.01603  1.0000
  C   C488      1.0  0.44730  0.30755  0.07658  1.0000
  C   C489      1.0  0.45761  0.20153  0.13202  1.0000
  N   N27       1.0  0.65115  0.19365  0.41902  1.0000
  C   C490      1.0  0.64622  0.19328  0.45647  1.0000
  H   H848      1.0  0.55429  0.32925  0.36510  1.0000
  C   C491      1.0  0.47988  0.35457  0.29107  1.0000
  H   H849      1.0  0.43438  0.30927  0.19449  1.0000
  C   C492      1.0  0.41202  0.28667  0.29453  1.0000
  H   H850      1.0  0.62585  0.39087  0.24284  1.0000
  H   H851      1.0  0.43127  0.26590  0.05962  1.0000
  H   H852      1.0  0.47510  0.32605  0.26012  1.0000
  H   H853      1.0  0.62791  0.22403  0.19202  1.0000
  H   H854      1.0  0.39478  0.28496  0.28504  1.0000
  H   H855      1.0  0.53883  0.30430  0.44777  1.0000
  H   H856      1.0  0.63512  0.36512  0.26252  1.0000
  C   C493      1.0  0.35138  0.32173  0.25169  1.0000
  C   C494      1.0  0.65920  0.39128  0.26461  1.0000
  H   H857      1.0  0.52923  0.23035  0.06533  1.0000
  H   H858      1.0  0.54613  0.28992  0.37383  1.0000
  H   H859      1.0  0.52427  0.30812  0.39098  1.0000
  C   C495      1.0  0.54089  0.25203  0.41224  1.0000
  H   H860      1.0  0.61889  0.16098  0.40847  1.0000
  C   C496      1.0  0.46454  0.33740  0.27591  1.0000
  C   C497      1.0  0.65186  0.31560  0.24607  1.0000
  H   H861      1.0  0.42625  0.36081  0.19721  1.0000
  H   H862      1.0  0.52827  0.19647  0.39478  1.0000
  H   H863      1.0  0.43478  0.35778  0.27475  1.0000
  N   N28       1.0  0.43141  0.33417  0.23384  1.0000
  C   C498      1.0  0.44538  0.31980  0.21002  1.0000
  C   C499      1.0  0.44961  0.26735  0.05672  1.0000
  H   H864      1.0  0.54292  0.22050  0.44024  1.0000
  C   C500      1.0  0.65993  0.23803  0.20322  1.0000
  H   H865      1.0  0.65859  0.27205  0.40860  1.0000
  H   H866      1.0  0.46518  0.27628  0.37211  1.0000
  C   C501      1.0  0.60934  0.28014  0.48623  1.0000
  H   H867      1.0  0.51616  0.28684  0.49867  1.0000
  H   H868      1.0  0.45226  0.27550  0.03182  1.0000
  H   H869      1.0  0.65240  0.39788  0.28885  1.0000
  H   H870      1.0  0.66190  0.19334  0.47132  1.0000
  H   H871      1.0  0.49511  0.21088  0.04763  1.0000
  H   H872      1.0  0.64388  0.44441  0.27393  1.0000
  H   H873      1.0  0.43957  0.19828  0.12995  1.0000
  C   C502      1.0  0.65950  0.32501  0.21573  1.0000
  H   H874      1.0  0.62621  0.25006  0.21463  1.0000
  H   H875      1.0  0.62838  0.16601  0.36634  1.0000
  H   H876      1.0  0.49366  0.25064  0.07714  1.0000
  H   H877      1.0  0.45226  0.31921  0.09679  1.0000
  C   C503      1.0  0.49886  0.22703  0.03588  1.0000
  H   H878      1.0  0.45139  0.27942  0.10927  1.0000
  N   N29       1.0  0.46091  0.24450  0.05747  1.0000
  H   H879      1.0  0.66315  0.46701  0.27214  1.0000
  H   H880      1.0  0.61463  0.17625  0.45956  1.0000
  H   H881      1.0  0.43266  0.22775  0.03671  1.0000
  C   C504      1.0  0.34723  0.26377  0.29725  1.0000
  H   H882      1.0  0.36256  0.30730  0.25287  1.0000
  H   H883      1.0  0.66139  0.26682  0.23626  1.0000
  C   C505      1.0  0.66485  0.17341  0.40770  1.0000
  C   C506      1.0  0.46634  0.21096  0.09877  1.0000
  H   H884      1.0  0.65627  0.15779  0.41333  1.0000
  H   H885      1.0  0.48466  0.21210  0.10148  1.0000
  H   H886      1.0  0.34328  0.10686  0.07174  1.0000
  H   H887      1.0  0.66468  0.22363  0.32177  1.0000
  H   H888      1.0  0.63710  0.23842  0.40108  1.0000
  H   H889      1.0  0.53298  0.21592  0.02565  1.0000
  C   C507      1.0  0.65027  0.46013  0.32133  1.0000
  C   C508      1.0  0.66474  0.31741  0.27528  1.0000
  H   H890      1.0  0.64815  0.24010  0.44324  1.0000
  H   H891      1.0  0.63896  0.15761  0.46185  1.0000
  H   H892      1.0  0.54549  0.29276  0.49950  1.0000
  C   C509      1.0  0.34680  0.33183  0.22049  1.0000
  H   H893      1.0  0.66672  0.17370  0.37963  1.0000
  H   H894      1.0  0.63696  0.20880  0.46412  1.0000
  H   H895      1.0  0.66391  0.46843  0.33487  1.0000
  H   H896      1.0  0.66937  0.24121  0.25512  1.0000
  C   C510      1.0  0.53324  0.27932  0.50054  1.0000
  Fe  Fe57      1.0  0.60172  0.24629  0.61494  1.0000
  S   S113      1.0  0.58393  0.22594  0.65417  1.0000
  S   S114      1.0  0.59834  0.23385  0.56008  1.0000
  Fe  Fe58      1.0  0.62241  0.27535  0.67066  1.0000
  S   S115      1.0  0.60590  0.25711  0.71309  1.0000
  S   S116      1.0  0.64829  0.30222  0.67649  1.0000
  Fe  Fe59      1.0  0.61611  0.22634  0.68337  1.0000
  S   S117      1.0  0.63035  0.19470  0.70776  1.0000
  Fe  Fe60      1.0  0.57491  0.25817  0.68052  1.0000
  S   S118      1.0  0.53986  0.27030  0.69843  1.0000
  S   S119      1.0  0.63437  0.24435  0.64288  1.0000
  S   S120      1.0  0.59097  0.27878  0.63945  1.0000
  Fe  Fe61      1.0  0.39892  0.26997  0.86236  1.0000
  S   S121      1.0  0.41142  0.23499  0.85317  1.0000
  S   S122      1.0  0.40314  0.28699  0.91377  1.0000
  Fe  Fe62      1.0  0.38104  0.27468  0.78980  1.0000
  S   S123      1.0  0.39233  0.23953  0.77644  1.0000
  S   S124      1.0  0.36188  0.29128  0.74615  1.0000
  Fe  Fe63      1.0  0.37857  0.23022  0.82720  1.0000
  S   S125      1.0  0.35655  0.20207  0.84453  1.0000
  Fe  Fe64      1.0  0.42446  0.24726  0.80296  1.0000
  S   S126      1.0  0.45883  0.23238  0.78648  1.0000
  S   S127      1.0  0.36532  0.26476  0.83905  1.0000
  S   S128      1.0  0.41399  0.28298  0.81363  1.0000
  H   H897      1.0  0.59250  0.30251  0.75481  1.0000
  H   H898      1.0  0.46672  0.24826  0.98792  1.0000
  H   H899      1.0  0.59535  0.35030  0.85782  1.0000
  H   H900      1.0  0.46619  0.15830  0.81515  1.0000
  C   C511      1.0  0.36858  0.11557  0.83295  1.0000
  H   H901      1.0  0.43287  0.15381  0.77098  1.0000
  C   C512      1.0  0.65766  0.31626  0.71314  1.0000
  H   H902      1.0  0.63309  0.28253  0.80523  1.0000
  C   C513      1.0  0.34175  0.18181  0.82209  1.0000
  C   C514      1.0  0.39969  0.28823  0.98343  1.0000
  H   H903      1.0  0.42877  0.18503  0.84883  1.0000
  H   H904      1.0  0.52335  0.25521  0.53876  1.0000
  C   C515      1.0  0.62738  0.18531  0.60331  1.0000
  H   H905      1.0  0.49335  0.30491  0.78178  1.0000
  C   C516      1.0  0.51737  0.25898  0.72218  1.0000
  C   C517      1.0  0.51860  0.23773  0.73681  1.0000
  C   C518      1.0  0.50060  0.22996  0.75631  1.0000
  C   C519      1.0  0.48105  0.24320  0.76152  1.0000
  C   C520      1.0  0.47983  0.26443  0.74686  1.0000
  C   C521      1.0  0.49784  0.27221  0.72742  1.0000
  H   H906      1.0  0.53342  0.22729  0.73315  1.0000
  H   H907      1.0  0.50182  0.21351  0.76739  1.0000
  H   H908      1.0  0.46498  0.27485  0.75042  1.0000
  H   H909      1.0  0.49657  0.28865  0.71628  1.0000
  H   H910      1.0  0.52741  0.32439  0.83055  1.0000
  H   H911      1.0  0.38236  0.15519  0.81580  1.0000
  C   C522      1.0  0.52311  0.31229  0.81064  1.0000
  C   C523      1.0  0.55777  0.26753  0.78682  1.0000
  C   C524      1.0  0.39785  0.27502  0.95418  1.0000
  C   C525      1.0  0.39244  0.25267  0.95794  1.0000
  H   H912      1.0  0.53305  0.28103  0.55548  1.0000
  H   H913      1.0  0.39093  0.24230  0.93574  1.0000
  H   H914      1.0  0.61707  0.19300  0.62382  1.0000
  C   C526      1.0  0.60130  0.24766  0.52053  1.0000
  H   H915      1.0  0.63881  0.25868  0.83231  1.0000
  H   H916      1.0  0.60990  0.27937  0.54107  1.0000
  C   C527      1.0  0.65253  0.25551  0.78130  1.0000
  H   H917      1.0  0.42519  0.17871  0.72005  1.0000
  H   H918      1.0  0.47922  0.11978  0.83010  1.0000
  H   H919      1.0  0.61841  0.25716  0.79910  1.0000
  H   H920      1.0  0.39428  0.16800  0.75843  1.0000
  C   C528      1.0  0.59711  0.32828  0.81385  1.0000
  C   C529      1.0  0.49878  0.31702  0.80103  1.0000
  H   H921      1.0  0.53556  0.33134  0.76906  1.0000
  C   C530      1.0  0.45968  0.15057  0.83853  1.0000
  C   C531      1.0  0.60708  0.26996  0.51821  1.0000
  H   H922      1.0  0.64782  0.32324  0.79761  1.0000
  H   H923      1.0  0.55901  0.33898  0.72840  1.0000
  H   H924      1.0  0.58011  0.24327  0.81163  1.0000
  C   C532      1.0  0.40696  0.17944  0.76798  1.0000
  H   H925      1.0  0.42244  0.19484  0.90845  1.0000
  C   C533      1.0  0.40592  0.18712  0.90695  1.0000
  C   C534      1.0  0.40666  0.16737  0.88251  1.0000
  C   C535      1.0  0.39248  0.12308  0.83738  1.0000
  H   H926      1.0  0.42895  0.20351  0.74513  1.0000
  H   H927      1.0  0.56133  0.28929  0.83036  1.0000
  C   C536      1.0  0.58656  0.32820  0.69752  1.0000
  H   H928      1.0  0.60670  0.32768  0.78988  1.0000
  C   C537      1.0  0.56755  0.28831  0.80381  1.0000
  H   H929      1.0  0.47172  0.12503  0.87393  1.0000
  H   H930      1.0  0.43920  0.12677  0.81293  1.0000
  C   C538      1.0  0.60398  0.34907  0.83295  1.0000
  H   H931      1.0  0.39325  0.19985  0.89870  1.0000
  H   H932      1.0  0.43869  0.17883  0.79306  1.0000
  H   H933      1.0  0.38953  0.16099  0.88158  1.0000
  H   H934      1.0  0.45847  0.16339  0.85871  1.0000
  C   C539      1.0  0.56197  0.24664  0.80821  1.0000
  H   H935      1.0  0.39736  0.13655  0.78847  1.0000
  H   H936      1.0  0.62226  0.34823  0.83746  1.0000
  H   H937      1.0  0.40121  0.18140  0.93264  1.0000
  H   H938      1.0  0.60225  0.31359  0.82933  1.0000
  H   H939      1.0  0.56364  0.32836  0.83292  1.0000
  H   H940      1.0  0.35653  0.18747  0.77329  1.0000
  H   H941      1.0  0.61898  0.16117  0.51663  1.0000
  H   H942      1.0  0.65315  0.15490  0.73041  1.0000
  N   N30       1.0  0.56324  0.31014  0.78572  1.0000
  C   C540      1.0  0.53575  0.26834  0.53531  1.0000
  H   H943      1.0  0.65842  0.09686  0.66539  1.0000
  C   C541      1.0  0.53866  0.31431  0.77937  1.0000
  H   H944      1.0  0.65349  0.12709  0.62307  1.0000
  H   H945      1.0  0.63292  0.30391  0.74703  1.0000
  C   C542      1.0  0.57595  0.33162  0.73238  1.0000
  H   H946      1.0  0.49321  0.14070  0.85392  1.0000
  H   H947      1.0  0.52416  0.29531  0.82167  1.0000
  H   H948      1.0  0.60352  0.32043  0.69978  1.0000
  C   C543      1.0  0.64942  0.17646  0.61798  1.0000
  H   H949      1.0  0.56715  0.29729  0.73496  1.0000
  C   C544      1.0  0.65900  0.18681  0.70772  1.0000
  C   C545      1.0  0.34736  0.33194  0.77319  1.0000
  H   H950      1.0  0.61792  0.17164  0.59191  1.0000
  C   C546      1.0  0.63467  0.26407  0.80612  1.0000
  H   H951      1.0  0.33834  0.31415  0.69299  1.0000
  H   H952      1.0  0.65786  0.19079  0.62925  1.0000
  C   C547      1.0  0.47694  0.13286  0.84981  1.0000
  H   H953      1.0  0.58596  0.34389  0.74610  1.0000
  H   H954      1.0  0.64715  0.26073  0.75561  1.0000
  H   H955      1.0  0.58576  0.28472  0.80593  1.0000
  H   H956      1.0  0.45909  0.21031  0.96621  1.0000
  H   H957      1.0  0.35583  0.32694  0.79622  1.0000
  H   H958      1.0  0.40375  0.30556  0.98081  1.0000
  H   H959      1.0  0.65288  0.23706  0.78248  1.0000
  C   C548      1.0  0.34828  0.31790  0.74500  1.0000
  C   C549      1.0  0.65583  0.32501  0.77328  1.0000
  H   H960      1.0  0.55488  0.23210  0.79518  1.0000
  H   H961      1.0  0.60002  0.36429  0.81787  1.0000
  H   H962      1.0  0.62332  0.19070  0.51719  1.0000
  C   C550      1.0  0.66408  0.16496  0.59019  1.0000
  H   H963      1.0  0.64688  0.17112  0.51911  1.0000
  H   H964      1.0  0.35659  0.12862  0.84237  1.0000
  C   C551      1.0  0.43674  0.14015  0.83228  1.0000
  C   C552      1.0  0.63020  0.17438  0.50797  1.0000
  C   C553      1.0  0.41677  0.19103  0.73715  1.0000
  C   C554      1.0  0.41397  0.17448  0.84661  1.0000
  C   C555      1.0  0.42541  0.16666  0.78836  1.0000
  H   H965      1.0  0.56654  0.34521  0.79664  1.0000
  H   H966      1.0  0.41821  0.15453  0.89332  1.0000
  H   H967      1.0  0.53952  0.26950  0.78338  1.0000
  H   H968      1.0  0.53263  0.30298  0.75928  1.0000
  N   N31       1.0  0.41818  0.15604  0.82121  1.0000
  H   H969      1.0  0.57608  0.31743  0.68175  1.0000
  C   C556      1.0  0.39714  0.14352  0.81462  1.0000
  H   H970      1.0  0.56559  0.26446  0.76173  1.0000
  H   H971      1.0  0.43238  0.13137  0.85594  1.0000
  C   C557      1.0  0.57515  0.30927  0.75202  1.0000
  H   H972      1.0  0.58796  0.34450  0.68454  1.0000
  H   H973      1.0  0.40325  0.19984  0.72287  1.0000
  H   H974      1.0  0.49645  0.33417  0.79083  1.0000
  H   H975      1.0  0.55377  0.24850  0.83333  1.0000
  H   H976      1.0  0.64531  0.16471  0.63857  1.0000
  H   H977      1.0  0.39831  0.19223  0.78376  1.0000
  H   H978      1.0  0.40388  0.10891  0.83013  1.0000
  H   H979      1.0  0.48798  0.31539  0.82372  1.0000
  H   H980      1.0  0.36498  0.11218  0.80589  1.0000
  C   C558      1.0  0.57159  0.32870  0.80749  1.0000
  H   H981      1.0  0.40064  0.18613  0.83750  1.0000
  H   H982      1.0  0.39500  0.12640  0.86457  1.0000
  C   C559      1.0  0.64735  0.31406  0.74470  1.0000
  C   C560      1.0  0.34511  0.17756  0.78761  1.0000
  H   H983      1.0  0.63036  0.19824  0.58386  1.0000
  C   C561      1.0  0.44559  0.22338  0.96718  1.0000
  H   H984      1.0  0.65431  0.15134  0.57909  1.0000
  C   C562      1.0  0.45056  0.24079  0.99406  1.0000
  H   H985      1.0  0.36604  0.10011  0.84767  1.0000
  H   H986      1.0  0.42948  0.21552  0.97269  1.0000
  C   C563      1.0  0.33746  0.32480  0.71506  1.0000
  H   H987      1.0  0.44432  0.23153  0.94197  1.0000
  H   H988      1.0  0.55279  0.26082  0.53834  1.0000
  C   C564      1.0  0.66563  0.16587  0.72077  1.0000
  C   C565      1.0  0.38928  0.24362  0.99053  1.0000
  H   H989      1.0  0.65954  0.12391  0.68473  1.0000
  H   H990      1.0  0.38540  0.22625  0.99308  1.0000
  H   H991      1.0  0.43747  0.25418  0.99203  1.0000
  H   H992      1.0  0.33679  0.15670  0.74523  1.0000
  C   C566      1.0  0.66828  0.11213  0.66715  1.0000
  H   H993      1.0  0.66568  0.17744  0.56964  1.0000
  Fe  Fe65      1.0  0.44289  0.74579  0.31230  1.0000
  S   S129      1.0  0.42446  0.71484  0.32654  1.0000
  S   S130      1.0  0.48132  0.74585  0.30839  1.0000
  Fe  Fe66      1.0  0.39924  0.77469  0.31431  1.0000
  S   S131      1.0  0.37823  0.74588  0.32792  1.0000
  S   S132      1.0  0.38593  0.81052  0.30955  1.0000
  Fe  Fe67      1.0  0.40572  0.73647  0.36463  1.0000
  S   S133      1.0  0.39201  0.72618  0.41629  1.0000
  Fe  Fe68      1.0  0.39836  0.72667  0.28921  1.0000
  S   S134      1.0  0.38392  0.70544  0.24707  1.0000
  S   S135      1.0  0.42560  0.76655  0.35324  1.0000
  S   S136      1.0  0.41793  0.75634  0.27272  1.0000
  Fe  Fe69      1.0  0.59080  0.75087  0.18058  1.0000
  S   S137      1.0  0.61003  0.71861  0.17096  1.0000
  S   S138      1.0  0.55263  0.74830  0.18638  1.0000
  Fe  Fe70      1.0  0.63313  0.77824  0.16576  1.0000
  S   S139      1.0  0.65446  0.74749  0.15618  1.0000
  S   S140      1.0  0.64694  0.81174  0.15059  1.0000
  Fe  Fe71      1.0  0.62532  0.73580  0.12599  1.0000
  S   S141      1.0  0.63032  0.71893  0.07441  1.0000
  Fe  Fe72      1.0  0.63728  0.73332  0.20174  1.0000
  C   C567      1.0  0.34487  0.69469  0.39419  1.0000
  S   S142      1.0  0.60466  0.76697  0.13361  1.0000
  S   S143      1.0  0.61744  0.76519  0.21350  1.0000
  S   S144      1.0  0.65448  0.71685  0.24730  1.0000
  H   H994      1.0  0.35656  0.76337  0.25485  1.0000
  C   C568      1.0  0.35364  0.67887  0.21608  1.0000
  H   H995      1.0  0.34217  0.75068  0.18293  1.0000
  H   H996      1.0  0.45872  0.68197  0.42033  1.0000
  H   H997      1.0  0.34897  0.67212  0.35281  1.0000
  C   C569      1.0  0.62122  0.72888  0.03424  1.0000
  C   C570      1.0  0.61137  0.75010  0.02991  1.0000
  C   C571      1.0  0.38140  0.61119  0.43137  1.0000
  H   H998      1.0  0.61008  0.76135  0.05121  1.0000
  H   H999      1.0  0.39963  0.77108  0.49578  1.0000
  C   C572      1.0  0.33982  0.74910  0.21076  1.0000
  C   C573      1.0  0.35588  0.67381  0.37853  1.0000
  H   H1000     1.0  0.37259  0.72147  0.48207  1.0000
  H   H1001     1.0  0.40496  0.62637  0.25188  1.0000
  H   H1002     1.0  0.38111  0.84517  0.36104  1.0000
  C   C574      1.0  0.36059  0.68804  0.24689  1.0000
  H   H1003     1.0  0.34606  0.78402  0.22569  1.0000
  H   H1004     1.0  0.59097  0.76676  0.29512  1.0000
  H   H1005     1.0  0.35895  0.88484  0.38981  1.0000
  H   H1006     1.0  0.63832  0.65445  0.30258  1.0000
  H   H1007     1.0  0.34756  0.73256  0.21719  1.0000
  C   C575      1.0  0.40406  0.72665  0.45733  1.0000
  C   C576      1.0  0.42687  0.72919  0.46238  1.0000
  H   H1008     1.0  0.35080  0.65939  0.39394  1.0000
  H   H1009     1.0  0.43773  0.73154  0.44086  1.0000
  H   H1010     1.0  0.37092  0.63033  0.37243  1.0000
  H   H1011     1.0  0.34914  0.56523  0.24210  1.0000
  H   H1012     1.0  0.45992  0.65449  0.40193  1.0000
  C   C577      1.0  0.34910  0.68289  0.27652  1.0000
  C   C578      1.0  0.53286  0.74892  0.22052  1.0000
  C   C579      1.0  0.51059  0.74361  0.21396  1.0000
  C   C580      1.0  0.49450  0.74313  0.24020  1.0000
  C   C581      1.0  0.50046  0.74779  0.27363  1.0000
  C   C582      1.0  0.52270  0.75327  0.28014  1.0000
  C   C583      1.0  0.53869  0.75411  0.25380  1.0000
  H   H1013     1.0  0.50569  0.73979  0.18838  1.0000
  H   H1014     1.0  0.47753  0.73889  0.23463  1.0000
  H   H1015     1.0  0.52754  0.75711  0.30577  1.0000
  H   H1016     1.0  0.55555  0.75873  0.25921  1.0000
  N   N32       1.0  0.58199  0.69818  0.28891  1.0000
  C   C584      1.0  0.56446  0.68682  0.30961  1.0000
  C   C585      1.0  0.60393  0.68504  0.28996  1.0000
  C   C586      1.0  0.58540  0.72067  0.30500  1.0000
  C   C587      1.0  0.57462  0.70210  0.25284  1.0000
  C   C588      1.0  0.56821  0.68139  0.23221  1.0000
  C   C589      1.0  0.54114  0.69884  0.31080  1.0000
  C   C590      1.0  0.60614  0.73328  0.29294  1.0000
  C   C591      1.0  0.60301  0.65925  0.29024  1.0000
  C   C592      1.0  0.34083  0.80329  0.30226  1.0000
  C   C593      1.0  0.55545  0.68812  0.20019  1.0000
  C   C594      1.0  0.52457  0.68556  0.33137  1.0000
  C   C595      1.0  0.60553  0.75729  0.30575  1.0000
  H   H1017     1.0  0.57036  0.68470  0.33617  1.0000
  H   H1018     1.0  0.56179  0.66968  0.30058  1.0000
  H   H1019     1.0  0.61485  0.69006  0.26853  1.0000
  H   H1020     1.0  0.61332  0.68908  0.31335  1.0000
  H   H1021     1.0  0.58689  0.71901  0.33302  1.0000
  H   H1022     1.0  0.57068  0.73199  0.30060  1.0000
  H   H1023     1.0  0.56043  0.71435  0.25204  1.0000
  H   H1024     1.0  0.58787  0.71011  0.23796  1.0000
  H   H1025     1.0  0.55739  0.67022  0.24664  1.0000
  H   H1026     1.0  0.58358  0.67201  0.22418  1.0000
  H   H1027     1.0  0.54200  0.71545  0.32289  1.0000
  H   H1028     1.0  0.53413  0.70100  0.28502  1.0000
  H   H1029     1.0  0.60725  0.73375  0.26507  1.0000
  H   H1030     1.0  0.62165  0.72507  0.30269  1.0000
  H   H1031     1.0  0.59715  0.65355  0.31542  1.0000
  H   H1032     1.0  0.59162  0.65286  0.27091  1.0000
  H   H1033     1.0  0.40943  0.63173  0.42387  1.0000
  H   H1034     1.0  0.55347  0.70841  0.02765  1.0000
  H   H1035     1.0  0.36313  0.61141  0.42703  1.0000
  H   H1036     1.0  0.56544  0.69934  0.18432  1.0000
  H   H1037     1.0  0.55180  0.67306  0.18519  1.0000
  H   H1038     1.0  0.53942  0.69685  0.20681  1.0000
  H   H1039     1.0  0.50817  0.69472  0.33180  1.0000
  H   H1040     1.0  0.52228  0.66896  0.31977  1.0000
  H   H1041     1.0  0.53039  0.68345  0.35786  1.0000
  C   C596      1.0  0.66866  0.82618  0.17045  1.0000
  C   C597      1.0  0.38190  0.84624  0.38905  1.0000
  C   C598      1.0  0.66068  0.81078  0.05804  1.0000
  N   N33       1.0  0.54648  0.72624  0.07432  1.0000
  C   C599      1.0  0.54244  0.74974  0.08710  1.0000
  C   C600      1.0  0.52597  0.71322  0.08190  1.0000
  C   C601      1.0  0.56671  0.71624  0.09198  1.0000
  C   C602      1.0  0.55074  0.72582  0.03671  1.0000
  H   H1042     1.0  0.65117  0.90904  0.24064  1.0000
  C   C603      1.0  0.55857  0.76738  0.07381  1.0000
  C   C604      1.0  0.57297  0.69171  0.08233  1.0000
  C   C605      1.0  0.52201  0.70786  0.11983  1.0000
  C   C606      1.0  0.49933  0.69765  0.12549  1.0000
  C   C607      1.0  0.34697  0.87114  0.38810  1.0000
  C   C608      1.0  0.55462  0.78971  0.09175  1.0000
  C   C609      1.0  0.58815  0.68041  0.10855  1.0000
  H   H1043     1.0  0.54340  0.75010  0.11519  1.0000
  H   H1044     1.0  0.52524  0.75601  0.08127  1.0000
  H   H1045     1.0  0.51081  0.72249  0.07265  1.0000
  H   H1046     1.0  0.52610  0.69730  0.06752  1.0000
  H   H1047     1.0  0.56488  0.71764  0.11997  1.0000
  H   H1048     1.0  0.58169  0.72597  0.08625  1.0000
  C   C610      1.0  0.42794  0.67246  0.39671  1.0000
  C   C611      1.0  0.35208  0.84142  0.29754  1.0000
  H   H1049     1.0  0.38577  0.69103  0.36419  1.0000
  H   H1050     1.0  0.62092  0.76557  0.29748  1.0000
  H   H1051     1.0  0.57600  0.76186  0.07804  1.0000
  H   H1052     1.0  0.55636  0.77031  0.04628  1.0000
  H   H1053     1.0  0.60469  0.75772  0.33382  1.0000
  H   H1054     1.0  0.58196  0.69137  0.05766  1.0000
  H   H1055     1.0  0.53489  0.69572  0.12916  1.0000
  H   H1056     1.0  0.52260  0.72310  0.13556  1.0000
  H   H1057     1.0  0.48570  0.70953  0.11781  1.0000
  H   H1058     1.0  0.49810  0.68196  0.11084  1.0000
  H   H1059     1.0  0.49719  0.69382  0.15280  1.0000
  C   C612      1.0  0.45336  0.67184  0.39848  1.0000
  C   C613      1.0  0.38211  0.78626  0.43764  1.0000
  C   C614      1.0  0.39142  0.63245  0.41762  1.0000
  H   H1060     1.0  0.53749  0.79642  0.08681  1.0000
  H   H1061     1.0  0.55699  0.78782  0.11951  1.0000
  H   H1062     1.0  0.56673  0.80186  0.08227  1.0000
  H   H1063     1.0  0.57961  0.67950  0.13340  1.0000
  H   H1064     1.0  0.59270  0.66321  0.10017  1.0000
  H   H1065     1.0  0.60374  0.68956  0.11147  1.0000
  H   H1066     1.0  0.38937  0.83034  0.39869  1.0000
  H   H1067     1.0  0.41690  0.79252  0.48245  1.0000
  H   H1068     1.0  0.39292  0.85998  0.39608  1.0000
  H   H1069     1.0  0.56660  0.73406  0.03061  1.0000
  C   C615      1.0  0.62605  0.64845  0.28396  1.0000
  H   H1070     1.0  0.39883  0.78551  0.42548  1.0000
  H   H1071     1.0  0.63192  0.65238  0.25803  1.0000
  H   H1072     1.0  0.35016  0.69658  0.42093  1.0000
  H   H1073     1.0  0.34494  0.78593  0.30687  1.0000
  H   H1074     1.0  0.36050  0.85193  0.43175  1.0000
  C   C616      1.0  0.35860  0.85020  0.40403  1.0000
  H   H1075     1.0  0.38325  0.64668  0.43113  1.0000
  C   C617      1.0  0.38842  0.63418  0.37882  1.0000
  C   C618      1.0  0.40067  0.78954  0.49503  1.0000
  C   C619      1.0  0.37695  0.76821  0.21101  1.0000
  H   H1076     1.0  0.42881  0.64277  0.36529  1.0000
  H   H1077     1.0  0.34345  0.91675  0.37162  1.0000
  H   H1078     1.0  0.55819  0.68134  0.07990  1.0000
  H   H1079     1.0  0.46056  0.67897  0.37505  1.0000
  H   H1080     1.0  0.36564  0.79876  0.48209  1.0000
  C   C620      1.0  0.35771  0.81875  0.30271  1.0000
  H   H1081     1.0  0.34527  0.86793  0.36047  1.0000
  H   H1082     1.0  0.65881  0.67910  0.20029  1.0000
  H   H1083     1.0  0.38643  0.67847  0.40456  1.0000
  H   H1084     1.0  0.36244  0.68273  0.19298  1.0000
  H   H1085     1.0  0.51745  0.72470  0.01425  1.0000
  H   H1086     1.0  0.38438  0.61002  0.45906  1.0000
  H   H1087     1.0  0.39731  0.62019  0.31213  1.0000
  H   H1088     1.0  0.36506  0.85349  0.29781  1.0000
  N   N34       1.0  0.39469  0.65591  0.36289  1.0000
  H   H1089     1.0  0.42148  0.66610  0.42100  1.0000
  C   C621      1.0  0.35401  0.76717  0.22763  1.0000
  H   H1090     1.0  0.42012  0.63859  0.30657  1.0000
  H   H1091     1.0  0.38686  0.78089  0.22409  1.0000
  H   H1092     1.0  0.38596  0.75180  0.21276  1.0000
  C   C622      1.0  0.40182  0.63718  0.30423  1.0000
  H   H1093     1.0  0.37104  0.65168  0.32208  1.0000
  H   H1094     1.0  0.37539  0.77307  0.18398  1.0000
  H   H1095     1.0  0.42249  0.69023  0.39442  1.0000
  C   C623      1.0  0.38894  0.65507  0.32569  1.0000
  H   H1096     1.0  0.40110  0.65603  0.25698  1.0000
  H   H1097     1.0  0.39866  0.62016  0.36797  1.0000
  H   H1098     1.0  0.38923  0.59624  0.41907  1.0000
  C   C624      1.0  0.38253  0.79928  0.47082  1.0000
  H   H1099     1.0  0.37012  0.79439  0.41982  1.0000
  H   H1100     1.0  0.39170  0.67161  0.31370  1.0000
  H   H1101     1.0  0.38600  0.81685  0.46456  1.0000
  C   C625      1.0  0.39601  0.63959  0.26673  1.0000
  H   H1102     1.0  0.66014  0.88269  0.25873  1.0000
  C   C626      1.0  0.41957  0.65915  0.36579  1.0000
  H   H1103     1.0  0.63812  0.79411  0.00468  1.0000
  H   H1104     1.0  0.37666  0.76908  0.44245  1.0000
  C   C627      1.0  0.39025  0.72352  0.48568  1.0000
  H   H1105     1.0  0.42588  0.66828  0.34335  1.0000
  H   H1106     1.0  0.35402  0.69025  0.30016  1.0000
  C   C628      1.0  0.38164  0.67547  0.37794  1.0000
  H   H1107     1.0  0.37782  0.63801  0.26273  1.0000
  C   C629      1.0  0.43579  0.72792  0.49537  1.0000
  H   H1108     1.0  0.62530  0.63007  0.28631  1.0000
  H   H1109     1.0  0.34051  0.73061  0.27399  1.0000
  H   H1110     1.0  0.34950  0.70977  0.37983  1.0000
  H   H1111     1.0  0.64474  0.80338  0.06588  1.0000
  H   H1112     1.0  0.34899  0.83509  0.39902  1.0000
  C   C630      1.0  0.66729  0.67467  0.22356  1.0000
  C   C631      1.0  0.53174  0.73599  0.01452  1.0000
  H   H1113     1.0  0.66391  0.81235  0.22006  1.0000
  H   H1114     1.0  0.34122  0.58987  0.21832  1.0000
  H   H1115     1.0  0.52562  0.75244  0.02398  1.0000
  H   H1116     1.0  0.63152  0.69849  0.00888  1.0000
  H   H1117     1.0  0.65774  0.82879  0.05271  1.0000
  C   C632      1.0  0.66583  0.89774  0.24532  1.0000
  H   H1118     1.0  0.34211  0.89987  0.43809  1.0000
  C   C633      1.0  0.62375  0.71487  0.00588  1.0000
  H   H1119     1.0  0.66715  0.98551  0.33355  1.0000
  H   H1120     1.0  0.45355  0.72927  0.49894  1.0000
  C   C634      1.0  0.66791  0.69010  0.25000  1.0000
  H   H1121     1.0  0.34809  0.58068  0.38200  1.0000
  H   H1122     1.0  0.33755  0.60248  0.35446  1.0000
  Fe  Fe73      1.0  0.41993  0.73014  0.61655  1.0000
  S   S145      1.0  0.43635  0.75878  0.64221  1.0000
  S   S146      1.0  0.43437  0.72117  0.56434  1.0000
  Fe  Fe74      1.0  0.38764  0.72380  0.67676  1.0000
  S   S147      1.0  0.40206  0.75226  0.70554  1.0000
  S   S148      1.0  0.35445  0.71048  0.69559  1.0000
  Fe  Fe75      1.0  0.40130  0.77030  0.65577  1.0000
  S   S149      1.0  0.38859  0.80536  0.64296  1.0000
  Fe  Fe76      1.0  0.43605  0.73805  0.68971  1.0000
  S   S150      1.0  0.46371  0.73077  0.72954  1.0000
  S   S151      1.0  0.38521  0.74285  0.62762  1.0000
  S   S152      1.0  0.42137  0.70837  0.66345  1.0000
  Fe  Fe77      1.0  0.63921  0.76129  0.82670  1.0000
  S   S153      1.0  0.64074  0.73297  0.86377  1.0000
  C   C635      1.0  0.39504  0.68556  0.84585  1.0000
  Fe  Fe78      1.0  0.59219  0.74757  0.80214  1.0000
  S   S154      1.0  0.59137  0.71884  0.83865  1.0000
  S   S155      1.0  0.56509  0.75603  0.76227  1.0000
  Fe  Fe79      1.0  0.60551  0.74248  0.87700  1.0000
  S   S156      1.0  0.59337  0.75111  0.93057  1.0000
  Fe  Fe80      1.0  0.62714  0.71205  0.82207  1.0000
  S   S157      1.0  0.64383  0.67772  0.81404  1.0000
  S   S158      1.0  0.60423  0.77187  0.84140  1.0000
  S   S159      1.0  0.62756  0.73961  0.78397  1.0000
  H   H1123     1.0  0.52545  0.74525  0.96216  1.0000
  H   H1124     1.0  0.65244  0.75861  0.98934  1.0000
  H   H1125     1.0  0.37794  0.56924  0.71652  1.0000
  H   H1126     1.0  0.56477  0.65136  0.67915  1.0000
  C   C636      1.0  0.57364  0.67273  0.75757  1.0000
  H   H1127     1.0  0.62548  0.81349  0.88185  1.0000
  H   H1128     1.0  0.35165  0.54562  0.71274  1.0000
  H   H1129     1.0  0.35037  0.55741  0.76897  1.0000
  H   H1130     1.0  0.44551  0.78070  0.51451  1.0000
  H   H1131     1.0  0.55285  0.75150  0.97693  1.0000
  H   H1132     1.0  0.64704  0.81904  0.80974  1.0000
  C   C637      1.0  0.40433  0.82365  0.52835  1.0000
  C   C638      1.0  0.36261  0.67112  0.73140  1.0000
  C   C639      1.0  0.35627  0.65409  0.75371  1.0000
  H   H1133     1.0  0.37942  0.67141  0.72167  1.0000
  H   H1134     1.0  0.36845  0.64151  0.76161  1.0000
  C   C640      1.0  0.36196  0.81563  0.65644  1.0000
  H   H1135     1.0  0.36553  0.76699  0.51971  1.0000
  C   C641      1.0  0.36898  0.77209  0.54611  1.0000
  C   C642      1.0  0.49189  0.73820  0.73808  1.0000
  C   C643      1.0  0.50276  0.72917  0.76684  1.0000
  C   C644      1.0  0.52500  0.73437  0.77473  1.0000
  C   C645      1.0  0.53684  0.74876  0.75394  1.0000
  C   C646      1.0  0.52607  0.75756  0.72497  1.0000
  C   C647      1.0  0.50383  0.75238  0.71710  1.0000
  H   H1136     1.0  0.49386  0.71813  0.78330  1.0000
  H   H1137     1.0  0.53292  0.72736  0.79704  1.0000
  H   H1138     1.0  0.53494  0.76868  0.70858  1.0000
  H   H1139     1.0  0.49590  0.75946  0.69485  1.0000
  H   H1140     1.0  0.65066  0.74587  0.93195  1.0000
  C   C648      1.0  0.60544  0.74261  0.96966  1.0000
  C   C649      1.0  0.61612  0.72175  0.97370  1.0000
  H   H1141     1.0  0.54616  0.72308  0.96727  1.0000
  H   H1142     1.0  0.61794  0.71066  0.95222  1.0000
  H   H1143     1.0  0.60663  0.75341  0.66303  1.0000
  C   C650      1.0  0.42202  0.72458  0.52371  1.0000
  C   C651      1.0  0.39912  0.72266  0.51869  1.0000
  C   C652      1.0  0.53957  0.73907  0.97803  1.0000
  H   H1144     1.0  0.38836  0.71970  0.54013  1.0000
  C   C653      1.0  0.42707  0.68410  0.77354  1.0000
  H   H1145     1.0  0.61593  0.71881  0.71893  1.0000
  H   H1146     1.0  0.54569  0.70521  0.72142  1.0000
  H   H1147     1.0  0.40472  0.59961  0.71344  1.0000
  C   C654      1.0  0.37817  0.79588  0.54746  1.0000
  H   H1148     1.0  0.58549  0.64612  0.62489  1.0000
  H   H1149     1.0  0.64483  0.69350  0.74380  1.0000
  H   H1150     1.0  0.39721  0.72124  0.85411  1.0000
  H   H1151     1.0  0.63078  0.75132  0.69006  1.0000
  H   H1152     1.0  0.58929  0.62261  0.65286  1.0000
  C   C655      1.0  0.38182  0.72957  0.79487  1.0000
  C   C656      1.0  0.44530  0.76446  0.80747  1.0000
  C   C657      1.0  0.42310  0.75319  0.81298  1.0000
  H   H1153     1.0  0.59384  0.67716  0.80264  1.0000
  C   C658      1.0  0.34721  0.77085  0.56606  1.0000
  H   H1154     1.0  0.42591  0.86339  0.54111  1.0000
  H   H1155     1.0  0.60429  0.68382  0.73427  1.0000
  H   H1156     1.0  0.38974  0.83251  0.51657  1.0000
  H   H1157     1.0  0.60266  0.65387  0.77651  1.0000
  H   H1158     1.0  0.37797  0.68387  0.83605  1.0000
  C   C659      1.0  0.58795  0.66348  0.78653  1.0000
  H   H1159     1.0  0.38214  0.62011  0.71308  1.0000
  C   C660      1.0  0.42236  0.73104  0.79288  1.0000
  C   C661      1.0  0.66963  0.84610  0.81633  1.0000
  H   H1160     1.0  0.43402  0.68073  0.79907  1.0000
  H   H1161     1.0  0.38095  0.74449  0.81147  1.0000
  H   H1162     1.0  0.34291  0.60772  0.72710  1.0000
  H   H1163     1.0  0.39405  0.83346  0.58004  1.0000
  H   H1164     1.0  0.61891  0.71394  0.67428  1.0000
  N   N35       1.0  0.57761  0.69471  0.70064  1.0000
  C   C662      1.0  0.44256  0.78996  0.53852  1.0000
  H   H1165     1.0  0.35897  0.79269  0.69788  1.0000
  H   H1166     1.0  0.65813  0.85852  0.80594  1.0000
  H   H1167     1.0  0.54196  0.72010  0.66419  1.0000
  H   H1168     1.0  0.41570  0.76880  0.55094  1.0000
  H   H1169     1.0  0.60492  0.82996  0.90496  1.0000
  H   H1170     1.0  0.61822  0.81385  0.95903  1.0000
  H   H1171     1.0  0.60652  0.67970  0.67594  1.0000
  C   C663      1.0  0.58395  0.71803  0.69110  1.0000
  H   H1172     1.0  0.45698  0.76289  0.56896  1.0000
  C   C664      1.0  0.61273  0.74804  0.68834  1.0000
  H   H1173     1.0  0.59069  0.64731  0.70218  1.0000
  H   H1174     1.0  0.58359  0.68434  0.64878  1.0000
  C   C665      1.0  0.55245  0.69425  0.70076  1.0000
  C   C666      1.0  0.60906  0.72323  0.69379  1.0000
  H   H1175     1.0  0.60385  0.75807  0.70816  1.0000
  H   H1176     1.0  0.38098  0.75983  0.55726  1.0000
  H   H1177     1.0  0.45942  0.75363  0.81647  1.0000
  C   C667      1.0  0.58651  0.68966  0.73575  1.0000
  C   C668      1.0  0.64391  0.79102  0.93773  1.0000
  H   H1178     1.0  0.42249  0.73542  0.76556  1.0000
  C   C669      1.0  0.35122  0.80658  0.68447  1.0000
  H   H1179     1.0  0.59501  0.77297  0.99507  1.0000
  H   H1180     1.0  0.47658  0.78282  0.55451  1.0000
  C   C670      1.0  0.61500  0.81413  0.90510  1.0000
  H   H1181     1.0  0.42279  0.70710  0.84497  1.0000
  C   C671      1.0  0.35173  0.83381  0.63945  1.0000
  H   H1182     1.0  0.57919  0.72189  0.66450  1.0000
  H   H1183     1.0  0.61125  0.64210  0.64821  1.0000
  C   C672      1.0  0.51572  0.69710  0.66907  1.0000
  H   H1184     1.0  0.50775  0.70516  0.69152  1.0000
  H   H1185     1.0  0.43857  0.72208  0.79762  1.0000
  C   C673      1.0  0.40836  0.83545  0.56264  1.0000
  H   H1186     1.0  0.42095  0.75032  0.84051  1.0000
  C   C674      1.0  0.59287  0.64048  0.64929  1.0000
  H   H1187     1.0  0.44537  0.78040  0.82167  1.0000
  H   H1188     1.0  0.57441  0.73035  0.70686  1.0000
  H   H1189     1.0  0.54652  0.67746  0.70683  1.0000
  H   H1190     1.0  0.57803  0.65225  0.80253  1.0000
  H   H1191     1.0  0.51315  0.67889  0.67024  1.0000
  C   C675      1.0  0.60315  0.75675  0.99794  1.0000
  H   H1192     1.0  0.41123  0.68265  0.89509  1.0000
  H   H1193     1.0  0.42360  0.82864  0.57522  1.0000
  H   H1194     1.0  0.39612  0.86832  0.54632  1.0000
  C   C676      1.0  0.54057  0.70185  0.66771  1.0000
  H   H1195     1.0  0.54772  0.69314  0.64527  1.0000
  H   H1196     1.0  0.63148  0.77796  0.94177  1.0000
  H   H1197     1.0  0.38316  0.69472  0.89635  1.0000
  C   C677      1.0  0.34729  0.59091  0.71649  1.0000
  H   H1198     1.0  0.35995  0.84103  0.61790  1.0000
  H   H1199     1.0  0.35758  0.71512  0.82934  1.0000
  H   H1200     1.0  0.38139  0.73595  0.76836  1.0000
  C   C678      1.0  0.38704  0.60271  0.70619  1.0000
  H   H1201     1.0  0.45769  0.79010  0.58859  1.0000
  H   H1202     1.0  0.35919  0.70146  0.78869  1.0000
  H   H1203     1.0  0.50735  0.70385  0.64605  1.0000
  H   H1204     1.0  0.34603  0.59266  0.68853  1.0000
  C   C679      1.0  0.65452  0.67807  0.74539  1.0000
  N   N36       1.0  0.40318  0.71614  0.80065  1.0000
  N   N37       1.0  0.40038  0.79901  0.53037  1.0000
  C   C680      1.0  0.62955  0.81302  0.93670  1.0000
  C   C681      1.0  0.65442  0.80073  0.99643  1.0000
  C   C682      1.0  0.41132  0.86040  0.55766  1.0000
  H   H1205     1.0  0.38565  0.60074  0.67833  1.0000
  C   C683      1.0  0.40500  0.70844  0.83701  1.0000
  H   H1206     1.0  0.44783  0.76812  0.78016  1.0000
  C   C684      1.0  0.58293  0.65407  0.67872  1.0000
  C   C685      1.0  0.58804  0.67899  0.67490  1.0000
  H   H1207     1.0  0.40068  0.70349  0.74954  1.0000
  H   H1208     1.0  0.56801  0.65834  0.74288  1.0000
  C   C686      1.0  0.41824  0.78703  0.55088  1.0000
  H   H1209     1.0  0.41418  0.86834  0.58260  1.0000
  H   H1210     1.0  0.37549  0.58784  0.75204  1.0000
  H   H1211     1.0  0.40984  0.76510  0.80412  1.0000
  H   H1212     1.0  0.40545  0.67177  0.83483  1.0000
  C   C687      1.0  0.45940  0.78087  0.56431  1.0000
  H   H1213     1.0  0.60344  0.80007  0.90491  1.0000
  H   H1214     1.0  0.44150  0.65307  0.75418  1.0000
  C   C688      1.0  0.37234  0.58619  0.72449  1.0000
  C   C689      1.0  0.34716  0.68784  0.72186  1.0000
  H   H1215     1.0  0.33821  0.50877  0.68771  1.0000
  H   H1216     1.0  0.58649  0.70516  0.75140  1.0000
  H   H1217     1.0  0.43930  0.69393  0.75924  1.0000
  H   H1218     1.0  0.55858  0.68121  0.76869  1.0000
  H   H1219     1.0  0.41698  0.79187  0.57807  1.0000
  H   H1220     1.0  0.37921  0.80033  0.57464  1.0000
  H   H1221     1.0  0.34128  0.75354  0.56549  1.0000
  H   H1222     1.0  0.34980  0.77561  0.59293  1.0000
  H   H1223     1.0  0.36517  0.80760  0.53715  1.0000
  H   H1224     1.0  0.41299  0.65123  0.76811  1.0000
  C   C690      1.0  0.66326  0.82374  0.81861  1.0000
  C   C691      1.0  0.42501  0.66196  0.75496  1.0000
  C   C692      1.0  0.35976  0.71770  0.80172  1.0000
  H   H1225     1.0  0.38760  0.66526  0.88962  1.0000
  C   C693      1.0  0.40437  0.69718  0.77557  1.0000
  C   C694      1.0  0.39426  0.68192  0.88410  1.0000
  H   H1226     1.0  0.65120  0.81878  0.99222  1.0000
  H   H1227     1.0  0.44632  0.80766  0.53427  1.0000
  H   H1228     1.0  0.41945  0.66494  0.72851  1.0000
  H   H1229     1.0  0.39133  0.68506  0.78078  1.0000
  H   H1230     1.0  0.63966  0.82803  0.93704  1.0000
  H   H1231     1.0  0.33885  0.74813  0.80274  1.0000
  H   H1232     1.0  0.34162  0.58523  0.77879  1.0000
  H   H1233     1.0  0.41853  0.82705  0.51114  1.0000
  C   C695      1.0  0.65687  0.66727  0.77662  1.0000
  H   H1234     1.0  0.65107  0.78782  0.91201  1.0000
  N   N38       1.0  0.66198  0.78909  0.96429  1.0000
  H   H1235     1.0  0.34079  0.73466  0.76179  1.0000
  C   C696      1.0  0.66756  0.74842  0.94215  1.0000
  H   H1236     1.0  0.33689  0.53971  0.82119  1.0000
  C   C697      1.0  0.66600  0.76469  0.97269  1.0000
  H   H1237     1.0  0.66711  0.71858  0.97362  1.0000
  C   C698      1.0  0.66467  0.66878  0.71614  1.0000
  H   H1238     1.0  0.66262  0.67714  0.69205  1.0000
  C   C699      1.0  0.33971  0.73181  0.78953  1.0000
  Fe  Fe81      1.0  0.79703  0.12531  0.31957  1.0000
  S   S160      1.0  0.76844  0.12644  0.28340  1.0000
  S   S161      1.0  0.83161  0.13873  0.30971  1.0000
  Fe  Fe82      1.0  0.76906  0.10348  0.37581  1.0000
  S   S162      1.0  0.73838  0.10329  0.34288  1.0000
  S   S163      1.0  0.77010  0.08641  0.42764  1.0000
  Fe  Fe83      1.0  0.76187  0.09125  0.30115  1.0000
  S   S164      1.0  0.75471  0.06477  0.26052  1.0000
  Fe  Fe84      1.0  0.74769  0.13810  0.32800  1.0000
  S   S165      1.0  0.72896  0.17180  0.32838  1.0000
  S   S166      1.0  0.79189  0.08968  0.33479  1.0000
  S   S167      1.0  0.77693  0.13877  0.36354  1.0000
  Fe  Fe85      1.0  0.73450  0.36853  0.19859  1.0000
  S   S168      1.0  0.76597  0.38680  0.21005  1.0000
  C   C700      1.0  0.99793  0.23736  0.21548  1.0000
  Fe  Fe86      1.0  0.73570  0.38175  0.12301  1.0000
  S   S169      1.0  0.76637  0.40137  0.13010  1.0000
  S   S170      1.0  0.72008  0.37323  0.07209  1.0000
  Fe  Fe87      1.0  0.77898  0.37200  0.16101  1.0000
  S   S171      1.0  0.81093  0.35446  0.14244  1.0000
  Fe  Fe88      1.0  0.75048  0.41455  0.17855  1.0000
  S   S172      1.0  0.74764  0.45242  0.18911  1.0000
  S   S173      1.0  0.74877  0.35199  0.15223  1.0000
  S   S174      1.0  0.71844  0.39672  0.16905  1.0000
  Fe  Fe89      1.0  0.89575  0.21326  0.17261  1.0000
  S   S175      1.0  0.91412  0.23273  0.21180  1.0000
  S   S176      1.0  0.87018  0.18602  0.17851  1.0000
  Fe  Fe90      1.0  0.90854  0.24509  0.11429  1.0000
  S   S177      1.0  0.92709  0.26721  0.14970  1.0000
  S   S178      1.0  0.89785  0.25515  0.06064  1.0000
  Fe  Fe91      1.0  0.94149  0.23541  0.17278  1.0000
  S   S179      1.0  0.97967  0.23419  0.18026  1.0000
  Fe  Fe92      1.0  0.89880  0.26308  0.18614  1.0000
  S   S180      1.0  0.88146  0.29040  0.21714  1.0000
  S   S181      1.0  0.92423  0.21333  0.13479  1.0000
  S   S182      1.0  0.87925  0.24358  0.14957  1.0000
  C   C701      1.0  0.91000  0.24731  0.02125  1.0000
  H   H1239     1.0  0.71890  0.22284  0.26790  1.0000
  H   H1240     1.0  0.84433  0.35227  0.02979  1.0000
  H   H1241     1.0  0.93976  0.23179  0.04182  1.0000
  N   N39       1.0  0.83472  0.07590  0.23926  1.0000
  H   H1242     1.0  0.80767  0.05249  0.28735  1.0000
  C   C702      1.0  0.74013  0.49327  0.22004  1.0000
  N   N40       1.0  0.68612  0.42404  0.25753  1.0000
  C   C703      1.0  0.68513  0.32836  0.27398  1.0000
  H   H1243     1.0  0.00163  0.23120  0.30121  1.0000
  H   H1244     1.0  0.97490  0.22719  0.25382  1.0000
  C   C704      1.0  0.72878  0.38238  0.03138  1.0000
  H   H1245     1.0  0.72744  0.24041  0.21463  1.0000
  C   C705      1.0  0.70464  0.26924  0.25528  1.0000
  H   H1246     1.0  0.74923  0.40857  0.04939  1.0000
  C   C706      1.0  0.84011  0.05731  0.21438  1.0000
  C   C707      1.0  0.82867  0.33524  0.16426  1.0000
  C   C708      1.0  0.84335  0.32147  0.14524  1.0000
  C   C709      1.0  0.85902  0.30714  0.16126  1.0000
  C   C710      1.0  0.86053  0.30681  0.19655  1.0000
  C   C711      1.0  0.84558  0.32024  0.21569  1.0000
  C   C712      1.0  0.82952  0.33425  0.19963  1.0000
  H   H1247     1.0  0.84288  0.32217  0.11789  1.0000
  H   H1248     1.0  0.87044  0.29691  0.14622  1.0000
  H   H1249     1.0  0.84663  0.32009  0.24301  1.0000
  H   H1250     1.0  0.81841  0.34489  0.21452  1.0000
  C   C713      1.0  0.74889  0.47137  0.22400  1.0000
  C   C714      1.0  0.75897  0.46562  0.25483  1.0000
  H   H1251     1.0  0.76633  0.44911  0.25817  1.0000
  C   C715      1.0  0.95841  0.32793  0.24992  1.0000
  H   H1252     1.0  0.72318  0.26779  0.25552  1.0000
  H   H1253     1.0  0.73211  0.26963  0.18296  1.0000
  C   C716      1.0  0.84075  0.15398  0.27402  1.0000
  C   C717      1.0  0.82883  0.15467  0.24366  1.0000
  C   C718      1.0  0.83794  0.16483  0.21480  1.0000
  C   C719      1.0  0.85873  0.17494  0.21619  1.0000
  C   C720      1.0  0.87018  0.17509  0.24692  1.0000
  C   C721      1.0  0.86132  0.16446  0.27555  1.0000
  H   H1254     1.0  0.81295  0.14675  0.24217  1.0000
  H   H1255     1.0  0.82896  0.16462  0.19113  1.0000
  H   H1256     1.0  0.88624  0.18267  0.24831  1.0000
  H   H1257     1.0  0.87070  0.16397  0.29889  1.0000
  H   H1258     1.0  0.81354  0.08824  0.18095  1.0000
  C   C722      1.0  0.76842  0.09821  0.46888  1.0000
  C   C723      1.0  0.76622  0.12120  0.47422  1.0000
  C   C724      1.0  0.76752  0.31960  0.04747  1.0000
  H   H1259     1.0  0.76522  0.13234  0.45272  1.0000
  C   C725      1.0  0.70050  0.17819  0.32070  1.0000
  C   C726      1.0  0.69279  0.20036  0.32472  1.0000
  H   H1260     1.0  0.74709  0.29827  0.07817  1.0000
  C   C727      1.0  0.67835  0.43552  0.28963  1.0000
  H   H1261     1.0  0.70426  0.21280  0.33277  1.0000
  H   H1262     1.0  0.98373  0.32095  0.30846  1.0000
  C   C728      1.0  0.70975  0.23602  0.21799  1.0000
  C   C729      1.0  0.76259  0.03598  0.25476  1.0000
  H   H1263     1.0  0.92301  0.36947  0.21544  1.0000
  H   H1264     1.0  0.80719  0.09684  0.25731  1.0000
  H   H1265     1.0  0.81522  0.01034  0.17990  1.0000
  C   C730      1.0  0.82077  0.04181  0.20482  1.0000
  C   C731      1.0  0.81927  0.40167  0.05861  1.0000
  H   H1266     1.0  0.77434  0.03000  0.30541  1.0000
  C   C732      1.0  0.68871  0.17069  0.42244  1.0000
  C   C733      1.0  0.76978  0.08398  0.49719  1.0000
  H   H1267     1.0  0.82979  0.03341  0.27332  1.0000
  H   H1268     1.0  0.67187  0.25387  0.37785  1.0000
  H   H1269     1.0  0.88292  0.12609  0.23551  1.0000
  C   C734      1.0  0.81521  0.33111  0.02566  1.0000
  C   C735      1.0  0.81093  0.08458  0.23672  1.0000
  N   N41       1.0  0.69549  0.25659  0.22554  1.0000
  C   C736      1.0  0.68556  0.16214  0.31063  1.0000
  H   H1270     1.0  0.92324  0.33026  0.23346  1.0000
  H   H1271     1.0  0.93090  0.17754  0.01317  1.0000
  C   C737      1.0  0.77706  0.29612  0.21844  1.0000
  H   H1272     1.0  0.88060  0.07548  0.22337  1.0000
  C   C738      1.0  0.93075  0.23615  0.01897  1.0000
  C   C739      1.0  0.80902  0.37875  0.05979  1.0000
  C   C740      1.0  0.82948  0.02070  0.18700  1.0000
  H   H1273     1.0  0.72378  0.29353  0.20806  1.0000
  C   C741      1.0  0.96300  0.29432  0.21333  1.0000
  C   C742      1.0  0.93658  0.36291  0.23209  1.0000
  H   H1274     1.0  0.73244  0.49807  0.19630  1.0000
  C   C743      1.0  0.77173  0.02275  0.28074  1.0000
  H   H1275     1.0  0.68302  0.25565  0.42031  1.0000
  H   H1276     1.0  0.73669  0.39979  0.31964  1.0000
  H   H1277     1.0  0.70131  0.46507  0.17243  1.0000
  H   H1278     1.0  0.83648  0.08266  0.29294  1.0000
  C   C744      1.0  0.70532  0.40830  0.26674  1.0000
  H   H1279     1.0  0.79910  0.07117  0.24126  1.0000
  C   C745      1.0  0.67998  0.33578  0.21437  1.0000
  H   H1280     1.0  0.67251  0.37857  0.27011  1.0000
  H   H1281     1.0  0.80709  0.41423  0.04833  1.0000
  N   N42       1.0  0.96161  0.30292  0.24916  1.0000
  C   C746      1.0  0.94178  0.29287  0.26628  1.0000
  H   H1282     1.0  0.99730  0.30501  0.25501  1.0000
  H   H1283     1.0  0.81768  0.32679  0.05290  1.0000
  H   H1284     1.0  0.69285  0.21265  0.25209  1.0000
  H   H1285     1.0  0.68569  0.34285  0.19083  1.0000
  C   C747      1.0  0.94385  0.26758  0.27408  1.0000
  H   H1286     1.0  0.71711  0.14730  0.42142  1.0000
  H   H1287     1.0  0.70741  0.43289  0.21552  1.0000
  H   H1288     1.0  0.87201  0.32586  0.00520  1.0000
  C   C748      1.0  0.92267  0.25951  0.29108  1.0000
  H   H1289     1.0  0.92665  0.29526  0.25031  1.0000
  H   H1290     1.0  0.93761  0.30166  0.29038  1.0000
  H   H1291     1.0  0.76003  0.41063  0.29679  1.0000
  C   C749      1.0  0.99151  0.23279  0.24878  1.0000
  H   H1292     1.0  0.82131  0.36670  0.07090  1.0000
  H   H1293     1.0  0.67455  0.42309  0.30952  1.0000
  N   N43       1.0  0.79541  0.34711  0.02142  1.0000
  H   H1294     1.0  0.70986  0.35792  0.00510  1.0000
  H   H1295     1.0  0.75512  0.31952  0.02667  1.0000
  H   H1296     1.0  0.78694  0.38222  0.01719  1.0000
  H   H1297     1.0  0.94648  0.25790  0.25050  1.0000
  H   H1298     1.0  0.95792  0.26362  0.29139  1.0000
  H   H1299     1.0  0.93203  0.36693  0.25873  1.0000
  H   H1300     1.0  0.84090  0.11315  0.48227  1.0000
  H   H1301     1.0  0.82381  0.40675  0.08466  1.0000
  H   H1302     1.0  0.82652  0.47340  0.20378  1.0000
  H   H1303     1.0  0.67363  0.47727  0.16938  1.0000
  H   H1304     1.0  0.90792  0.26300  0.27478  1.0000
  H   H1305     1.0  0.92423  0.24124  0.29534  1.0000
  H   H1306     1.0  0.92002  0.26786  0.31591  1.0000
  H   H1307     1.0  0.81090  0.03658  0.22692  1.0000
  H   H1308     1.0  0.76834  0.47688  0.30459  1.0000
  H   H1309     1.0  0.82921  0.05762  0.34169  1.0000
  H   H1310     1.0  0.77148  0.06618  0.49332  1.0000
  H   H1311     1.0  0.69049  0.13429  0.42225  1.0000
  C   C750      1.0  0.85567  0.31980  0.01381  1.0000
  C   C751      1.0  0.93941  0.33774  0.22728  1.0000
  H   H1312     1.0  0.84623  0.06415  0.18996  1.0000
  C   C752      1.0  0.87488  0.09094  0.23658  1.0000
  C   C753      1.0  0.77866  0.34253  0.04907  1.0000
  C   C754      1.0  0.83926  0.06839  0.27514  1.0000
  H   H1313     1.0  0.76505  0.35556  0.04915  1.0000
  H   H1314     1.0  0.76662  0.31412  0.10204  1.0000
  H   H1315     1.0  0.80899  0.05052  0.18733  1.0000
  C   C755      1.0  0.68635  0.47046  0.18727  1.0000
  H   H1316     1.0  0.95475  0.33366  0.27621  1.0000
  H   H1317     1.0  0.98191  0.32227  0.19209  1.0000
  H   H1318     1.0  0.81188  0.31500  0.01302  1.0000
  C   C756      1.0  0.72783  0.41915  0.27472  1.0000
  H   H1319     1.0  0.77421  0.07884  0.19274  1.0000
  H   H1320     1.0  0.71338  0.18941  0.20997  1.0000
  H   H1321     1.0  0.96327  0.30436  0.14367  1.0000
  H   H1322     1.0  0.73623  0.42348  0.25066  1.0000
  H   H1323     1.0  0.72261  0.18349  0.25238  1.0000
  H   H1324     1.0  0.81901  0.13148  0.46623  1.0000
  C   C757      1.0  0.69610  0.27164  0.19484  1.0000
  H   H1325     1.0  0.84464  0.10962  0.24884  1.0000
  H   H1326     1.0  0.94307  0.33472  0.20009  1.0000
  H   H1327     1.0  0.70090  0.39787  0.28894  1.0000
  H   H1328     1.0  0.76621  0.29556  0.24124  1.0000
  C   C758      1.0  0.75501  0.31465  0.08020  1.0000
  C   C759      1.0  0.71873  0.28247  0.18712  1.0000
  H   H1329     1.0  0.83879  0.02492  0.16365  1.0000
  H   H1330     1.0  0.94677  0.29704  0.20024  1.0000
  H   H1331     1.0  0.99314  0.30389  0.13885  1.0000
  H   H1332     1.0  0.70058  0.28736  0.25261  1.0000
  H   H1333     1.0  0.72719  0.26718  0.31794  1.0000
  C   C760      1.0  0.98395  0.30260  0.30515  1.0000
  H   H1334     1.0  0.70042  0.14706  0.38375  1.0000
  C   C761      1.0  0.76026  0.48152  0.28109  1.0000
  C   C762      1.0  0.84946  0.09530  0.23214  1.0000
  H   H1335     1.0  0.96589  0.27598  0.21319  1.0000
  C   C763      1.0  0.71727  0.29676  0.15515  1.0000
  H   H1336     1.0  0.97950  0.27893  0.15119  1.0000
  N   N44       1.0  0.81304  0.24081  0.23159  1.0000
  C   C764      1.0  0.83440  0.25183  0.24105  1.0000
  C   C765      1.0  0.79364  0.25761  0.23301  1.0000
  C   C766      1.0  0.80912  0.22291  0.25767  1.0000
  C   C767      1.0  0.81449  0.22993  0.19717  1.0000
  C   C768      1.0  0.81891  0.24541  0.16679  1.0000
  C   C769      1.0  0.85577  0.23654  0.24348  1.0000
  C   C770      1.0  0.78707  0.21025  0.25429  1.0000
  C   C771      1.0  0.79853  0.28219  0.22366  1.0000
  C   C772      1.0  0.97918  0.29733  0.15397  1.0000
  C   C773      1.0  0.82226  0.23195  0.13421  1.0000
  C   C774      1.0  0.86345  0.23254  0.27991  1.0000
  C   C775      1.0  0.78355  0.19495  0.28466  1.0000
  H   H1337     1.0  0.83211  0.26096  0.26544  1.0000
  H   H1338     1.0  0.83849  0.26511  0.22280  1.0000
  H   H1339     1.0  0.77979  0.25207  0.21668  1.0000
  H   H1340     1.0  0.78652  0.25856  0.25911  1.0000
  H   H1341     1.0  0.80957  0.23021  0.28360  1.0000
  H   H1342     1.0  0.82268  0.20982  0.25690  1.0000
  H   H1343     1.0  0.82720  0.21606  0.19684  1.0000
  H   H1344     1.0  0.79861  0.22186  0.19114  1.0000
  H   H1345     1.0  0.83395  0.25525  0.17063  1.0000
  H   H1346     1.0  0.80436  0.25693  0.16267  1.0000
  H   H1347     1.0  0.85428  0.22036  0.23077  1.0000
  H   H1348     1.0  0.86943  0.24483  0.23006  1.0000
  H   H1349     1.0  0.78757  0.19952  0.23142  1.0000
  H   H1350     1.0  0.77236  0.22184  0.25265  1.0000
  H   H1351     1.0  0.80790  0.29000  0.24450  1.0000
  H   H1352     1.0  0.80865  0.28359  0.20035  1.0000
  C   C776      1.0  0.70992  0.21738  0.24504  1.0000
  C   C777      1.0  0.82580  0.04862  0.28830  1.0000
  H   H1353     1.0  0.73957  0.19987  0.22490  1.0000
  H   H1354     1.0  0.82612  0.24334  0.11297  1.0000
  H   H1355     1.0  0.83639  0.21966  0.13688  1.0000
  H   H1356     1.0  0.80696  0.22295  0.12791  1.0000
  H   H1357     1.0  0.85079  0.22360  0.29468  1.0000
  H   H1358     1.0  0.87912  0.22219  0.27975  1.0000
  H   H1359     1.0  0.86684  0.24861  0.29248  1.0000
  H   H1360     1.0  0.79777  0.18280  0.28744  1.0000
  H   H1361     1.0  0.78167  0.20478  0.30836  1.0000
  H   H1362     1.0  0.76816  0.18547  0.28106  1.0000
  C   C778      1.0  0.88799  0.11031  0.22252  1.0000
  H   H1363     1.0  0.88514  0.11230  0.19490  1.0000
  H   H1364     1.0  0.75217  0.03595  0.20260  1.0000
  H   H1365     1.0  0.90609  0.10713  0.22677  1.0000
  C   C779      1.0  0.69975  0.14846  0.41179  1.0000
  H   H1366     1.0  0.77026  0.10432  0.21663  1.0000
  H   H1367     1.0  0.70882  0.39634  0.24570  1.0000
  H   H1368     1.0  0.96971  0.29594  0.31942  1.0000
  H   H1369     1.0  0.70257  0.27034  0.34390  1.0000
  H   H1370     1.0  0.85764  0.31316  0.03994  1.0000
  H   H1371     1.0  0.69495  0.32979  0.29672  1.0000
  H   H1372     1.0  0.83455  0.40122  0.04270  1.0000
  H   H1373     1.0  0.74568  0.38710  0.28021  1.0000
  H   H1374     1.0  0.69946  0.18399  0.41274  1.0000
  H   H1375     1.0  0.74172  0.32760  0.08476  1.0000
  H   H1376     1.0  0.98709  0.27853  0.26391  1.0000
  H   H1377     1.0  0.84950  0.03702  0.32669  1.0000
  H   H1378     1.0  0.81221  0.10829  0.49278  1.0000
  H   H1379     1.0  0.67270  0.43797  0.18765  1.0000
  C   C780      1.0  0.72216  0.19633  0.23211  1.0000
  H   H1380     1.0  0.78658  0.34356  0.07445  1.0000
  S   S183      1.0  0.71927  0.34986  0.24294  1.0000
  C   C781      1.0  0.69298  0.33734  0.24347  1.0000
  H   H1381     1.0  0.78119  0.31376  0.21366  1.0000
  H   H1382     1.0  0.78007  0.30592  0.04321  1.0000
  H   H1383     1.0  0.76792  0.29003  0.19610  1.0000
  C   C782      1.0  0.80477  0.09626  0.20272  1.0000
  C   C783      1.0  0.69589  0.26340  0.29109  1.0000
  C   C784      1.0  0.74318  0.40003  0.02733  1.0000
  C   C785      1.0  0.70979  0.27401  0.31868  1.0000
  H   H1384     1.0  0.77605  0.10541  0.17192  1.0000
  H   H1385     1.0  0.72577  0.43457  0.28988  1.0000
  H   H1386     1.0  0.95218  0.37131  0.22529  1.0000
  H   H1387     1.0  0.70490  0.22866  0.19335  1.0000
  C   C786      1.0  0.80147  0.37122  0.02423  1.0000
  C   C787      1.0  0.69433  0.44074  0.23200  1.0000
  H   H1388     1.0  0.80980  0.11389  0.20363  1.0000
  H   H1389     1.0  0.70267  0.45463  0.24509  1.0000
  H   H1390     1.0  0.79444  0.38006  0.07707  1.0000
  C   C788      1.0  0.82453  0.12135  0.48836  1.0000
  H   H1391     1.0  0.70473  0.31061  0.15841  1.0000
  H   H1392     1.0  0.97410  0.33620  0.24294  1.0000
  H   H1393     1.0  0.85428  0.04669  0.22398  1.0000
  H   H1394     1.0  0.79749  0.46691  0.20156  1.0000
  H   H1395     1.0  0.69195  0.44529  0.30062  1.0000
  H   H1396     1.0  0.69165  0.26243  0.17156  1.0000
  H   H1397     1.0  0.87913  0.08948  0.26384  1.0000
  C   C789      1.0  0.77979  0.09618  0.19567  1.0000
  H   H1398     1.0  0.82110  0.02947  0.33418  1.0000
  H   H1399     1.0  0.69609  0.24530  0.29567  1.0000
  C   C790      1.0  0.75919  0.02599  0.22299  1.0000
  H   H1400     1.0  0.85698  0.06286  0.27807  1.0000
  H   H1401     1.0  0.68850  0.17125  0.45046  1.0000
  H   H1402     1.0  0.84050  0.01070  0.20413  1.0000
  C   C791      1.0  0.98181  0.30386  0.19107  1.0000
  H   H1403     1.0  0.67460  0.40234  0.21827  1.0000
  H   H1404     1.0  0.70985  0.29237  0.31543  1.0000
  H   H1405     1.0  0.84707  0.10138  0.20576  1.0000
  H   H1406     1.0  0.71344  0.00686  0.22539  1.0000
  C   C792      1.0  0.98305  0.29660  0.26701  1.0000
  H   H1407     1.0  0.69132  0.14501  0.30742  1.0000
  C   C793      1.0  0.74348  0.40313  0.29402  1.0000
  C   C794      1.0  0.83183  0.04293  0.32495  1.0000
  C   C795      1.0  0.83823  0.33894  0.01312  1.0000
  H   H1408     1.0  0.73368  0.30408  0.15007  1.0000
  H   H1409     1.0  0.67949  0.21421  0.42874  1.0000
  H   H1410     1.0  0.69086  0.48392  0.20501  1.0000
  C   C796      1.0  0.67702  0.45079  0.20660  1.0000
  H   H1411     1.0  0.71271  0.28659  0.13291  1.0000
  H   H1412     1.0  0.99830  0.29712  0.19959  1.0000
  H   H1413     1.0  0.81464  0.37544  0.00585  1.0000
  H   H1414     1.0  0.67842  0.26983  0.29404  1.0000
  H   H1415     1.0  0.71488  0.14462  0.48963  1.0000
  H   H1416     1.0  0.94049  0.35272  0.02106  1.0000
  H   H1417     1.0  0.73682  0.47704  0.49742  1.0000
  H   H1418     1.0  0.80864  0.48648  0.17208  1.0000
  H   H1419     1.0  0.67131  0.21315  0.38566  1.0000
  H   H1420     1.0  0.80352  0.49198  0.24907  1.0000
  C   C797      1.0  0.72104  0.37156  0.00230  1.0000
  H   H1421     1.0  0.68334  0.28546  0.19744  1.0000
  C   C798      1.0  0.80954  0.48043  0.19863  1.0000
  C   C799      1.0  0.67142  0.25115  0.23173  1.0000
  C   C800      1.0  0.67039  0.20654  0.31852  1.0000
  C   C801      1.0  0.80356  0.49930  0.22331  1.0000
  H   H1422     1.0  0.69497  0.00380  0.18998  1.0000
  C   C802      1.0  0.76464  0.00319  0.21728  1.0000
  Fe  Fe93      1.0  0.76788  0.11407  0.63127  1.0000
  S   S184      1.0  0.73839  0.10741  0.66479  1.0000
  S   S185      1.0  0.76627  0.12748  0.57690  1.0000
  Fe  Fe94      1.0  0.79917  0.11743  0.69327  1.0000
  S   S186      1.0  0.77196  0.11101  0.73109  1.0000
  S   S187      1.0  0.83552  0.12554  0.70192  1.0000
  Fe  Fe95      1.0  0.76186  0.08414  0.69450  1.0000
  S   S188      1.0  0.74977  0.04893  0.70711  1.0000
  Fe  Fe96      1.0  0.75053  0.13432  0.69894  1.0000
  S   S189      1.0  0.73326  0.16693  0.71555  1.0000
  S   S190      1.0  0.79056  0.08928  0.65824  1.0000
  S   S191      1.0  0.77864  0.14216  0.66409  1.0000
  Fe  Fe97      1.0  0.71773  0.36906  0.81547  1.0000
  S   S192      1.0  0.74627  0.36962  0.77853  1.0000
  H   H1423     1.0  0.71536  0.19018  0.78227  1.0000
  Fe  Fe98      1.0  0.74478  0.39146  0.87196  1.0000
  S   S193      1.0  0.77502  0.39327  0.83817  1.0000
  S   S194      1.0  0.75000  0.40597  0.92498  1.0000
  Fe  Fe99      1.0  0.75102  0.40499  0.79725  1.0000
  S   S195      1.0  0.76172  0.43329  0.76139  1.0000
  Fe  Fe100     1.0  0.76781  0.35830  0.82241  1.0000
  S   S196      1.0  0.78900  0.32592  0.82408  1.0000
  S   S197      1.0  0.72109  0.40504  0.83194  1.0000
  S   S198      1.0  0.73893  0.35594  0.85845  1.0000
  Fe  Fe101     1.0  0.94608  0.23784  0.79099  1.0000
  S   S199      1.0  0.93277  0.21059  0.82436  1.0000
  S   S200      1.0  0.97542  0.22912  0.75474  1.0000
  Fe  Fe102     1.0  0.90851  0.27066  0.81420  1.0000
  S   S201      1.0  0.89359  0.24605  0.84945  1.0000
  S   S202      1.0  0.89333  0.30560  0.80746  1.0000
  Fe  Fe103     1.0  0.92863  0.23715  0.86433  1.0000
  S   S203      1.0  0.94060  0.22861  0.91760  1.0000
  Fe  Fe104     1.0  0.89853  0.22154  0.80669  1.0000
  S   S204      1.0  0.86679  0.20200  0.80114  1.0000
  S   S205      1.0  0.94383  0.26379  0.83219  1.0000
  S   S206      1.0  0.91169  0.24687  0.77050  1.0000
  H   H1424     1.0  0.67038  0.21716  0.68567  1.0000
  C   C803      1.0  0.74290  0.00854  0.73852  1.0000
  H   H1425     1.0  0.90762  0.19810  0.97286  1.0000
  N   N45       1.0  0.68688  0.15639  0.60106  1.0000
  C   C804      1.0  0.69262  0.48566  0.68307  1.0000
  C   C805      1.0  0.77170  0.03017  0.76354  1.0000
  H   H1426     1.0  0.84597  0.12951  0.96561  1.0000
  C   C806      1.0  0.81827  0.32142  0.82129  1.0000
  C   C807      1.0  0.83260  0.33798  0.81081  1.0000
  C   C808      1.0  0.85558  0.33296  0.80679  1.0000
  C   C809      1.0  0.86440  0.31140  0.81317  1.0000
  C   C810      1.0  0.85010  0.29498  0.82425  1.0000
  C   C811      1.0  0.82720  0.30001  0.82836  1.0000
  H   H1427     1.0  0.82592  0.35452  0.80522  1.0000
  H   H1428     1.0  0.86652  0.34581  0.79831  1.0000
  H   H1429     1.0  0.85666  0.27840  0.82954  1.0000
  H   H1430     1.0  0.81628  0.28721  0.83695  1.0000
  C   C812      1.0  0.75139  0.46080  0.75114  1.0000
  C   C813      1.0  0.73109  0.46959  0.76357  1.0000
  H   H1431     1.0  0.72094  0.45945  0.77972  1.0000
  H   H1432     1.0  0.84300  0.19556  0.90539  1.0000
  C   C814      1.0  0.92849  0.23637  0.95704  1.0000
  C   C815      1.0  0.90761  0.24726  0.95933  1.0000
  H   H1433     1.0  0.76024  0.42090  0.99180  1.0000
  H   H1434     1.0  0.89842  0.25117  0.93658  1.0000
  C   C816      1.0  0.68830  0.15909  0.72178  1.0000
  C   C817      1.0  0.74161  0.39624  0.96550  1.0000
  C   C818      1.0  0.72750  0.37833  0.96955  1.0000
  H   H1435     1.0  0.91491  0.14629  0.87643  1.0000
  H   H1436     1.0  0.72130  0.36995  0.94745  1.0000
  C   C819      1.0  0.90841  0.17349  0.93171  1.0000
  C   C820      1.0  0.70028  0.19511  0.79722  1.0000
  H   H1437     1.0  0.70653  0.47443  0.69172  1.0000
  C   C821      1.0  0.69024  0.26539  0.73188  1.0000
  C   C822      1.0  0.84373  0.14771  0.72818  1.0000
  C   C823      1.0  0.82906  0.15756  0.75172  1.0000
  C   C824      1.0  0.83649  0.17415  0.77373  1.0000
  C   C825      1.0  0.85844  0.18153  0.77188  1.0000
  C   C826      1.0  0.87302  0.17203  0.74784  1.0000
  C   C827      1.0  0.86571  0.15506  0.72627  1.0000
  H   H1438     1.0  0.81217  0.15192  0.75364  1.0000
  H   H1439     1.0  0.82518  0.18104  0.79264  1.0000
  H   H1440     1.0  0.89001  0.17742  0.74633  1.0000
  H   H1441     1.0  0.87721  0.14742  0.70825  1.0000
  C   C828      1.0  0.70457  0.17341  0.71027  1.0000
  H   H1442     1.0  0.69320  0.14307  0.73241  1.0000
  N   N46       1.0  0.69468  0.25725  0.76741  1.0000
  N   N47       1.0  0.88604  0.17639  0.91469  1.0000
  C   C829      1.0  0.89852  0.25285  0.99126  1.0000
  H   H1443     1.0  0.77695  0.46733  0.85747  1.0000
  H   H1444     1.0  0.71349  0.22552  0.81550  1.0000
  C   C830      1.0  0.75522  0.02813  0.73883  1.0000
  C   C831      1.0  0.93068  0.17186  0.98642  1.0000
  H   H1445     1.0  0.81062  0.14628  0.52196  1.0000
  H   H1446     1.0  0.68439  0.12857  0.56681  1.0000
  H   H1447     1.0  0.76400  0.14758  0.51127  1.0000
  H   H1448     1.0  0.69999  0.34986  0.73704  1.0000
  H   H1449     1.0  0.78128  0.04509  0.76435  1.0000
  C   C832      1.0  0.76701  0.11553  0.53574  1.0000
  C   C833      1.0  0.76909  0.09256  0.53044  1.0000
  C   C834      1.0  0.94447  0.35290  0.99358  1.0000
  H   H1450     1.0  0.77017  0.08138  0.55188  1.0000
  H   H1451     1.0  0.73780  0.49421  0.82586  1.0000
  H   H1452     1.0  0.68478  0.33114  0.68638  1.0000
  C   C835      1.0  0.70293  0.27088  0.67128  1.0000
  H   H1453     1.0  0.69941  0.28914  0.67265  1.0000
  H   H1454     1.0  0.88664  0.13729  0.87013  1.0000
  H   H1455     1.0  0.91253  0.34053  0.98065  1.0000
  H   H1456     1.0  0.84016  0.14775  0.51488  1.0000
  C   C836      1.0  0.75902  0.47083  0.85223  1.0000
  S   S207      1.0  0.68497  0.35096  0.80795  1.0000
  C   C837      1.0  0.85040  0.09540  0.60624  1.0000
  C   C838      1.0  0.83946  0.11888  0.61194  1.0000
  C   C839      1.0  0.82480  0.15441  0.58924  1.0000
  H   H1457     1.0  0.69500  0.47582  0.63125  1.0000
  H   H1458     1.0  0.81397  0.11508  0.55917  1.0000
  C   C840      1.0  0.88030  0.14279  0.60222  1.0000
  C   C841      1.0  0.83027  0.12223  0.55215  1.0000
  H   H1459     1.0  0.80397  0.36572  0.95563  1.0000
  C   C842      1.0  0.83145  0.16933  0.61927  1.0000
  C   C843      1.0  0.81415  0.18818  0.62516  1.0000
  C   C844      1.0  0.90150  0.15397  0.59057  1.0000
  C   C845      1.0  0.85607  0.08385  0.63974  1.0000
  H   H1460     1.0  0.84128  0.10773  0.54497  1.0000
  H   H1461     1.0  0.82194  0.11638  0.62011  1.0000
  H   H1462     1.0  0.84738  0.12639  0.63420  1.0000
  C   C846      1.0  0.78398  0.34368  0.98788  1.0000
  N   N48       1.0  0.83992  0.13438  0.58193  1.0000
  H   H1463     1.0  0.68007  0.15403  0.65455  1.0000
  H   H1464     1.0  0.87103  0.12967  0.55406  1.0000
  H   H1465     1.0  0.68987  0.16500  0.53135  1.0000
  H   H1466     1.0  0.67334  0.28342  0.78830  1.0000
  H   H1467     1.0  0.88524  0.12586  0.61129  1.0000
  H   H1468     1.0  0.87359  0.15217  0.62428  1.0000
  H   H1469     1.0  0.89769  0.17143  0.58264  1.0000
  C   C847      1.0  0.73224  0.47358  0.52414  1.0000
  H   H1470     1.0  0.70148  0.18695  0.82238  1.0000
  H   H1471     1.0  0.68270  0.22507  0.75279  1.0000
  H   H1472     1.0  0.83291  0.15973  0.64317  1.0000
  H   H1473     1.0  0.84743  0.17732  0.61370  1.0000
  H   H1474     1.0  0.79762  0.18136  0.63092  1.0000
  H   H1475     1.0  0.81926  0.19841  0.64704  1.0000
  H   H1476     1.0  0.67560  0.25708  0.72097  1.0000
  H   H1477     1.0  0.67676  0.47695  0.68674  1.0000
  H   H1478     1.0  0.91358  0.15426  0.61178  1.0000
  H   H1479     1.0  0.81272  0.19906  0.60248  1.0000
  H   H1480     1.0  0.70478  0.30037  0.79639  1.0000
  C   C848      1.0  0.69851  0.22039  0.80157  1.0000
  H   H1481     1.0  0.79463  0.02172  0.67372  1.0000
  H   H1482     1.0  0.93232  0.15340  0.98600  1.0000
  C   C849      1.0  0.69554  0.49159  0.64578  1.0000
  H   H1483     1.0  0.71798  0.26168  0.80827  1.0000
  C   C850      1.0  0.86320  0.14136  0.57286  1.0000
  H   H1484     1.0  0.79299  0.35043  0.90090  1.0000
  C   C851      1.0  0.68535  0.33993  0.73935  1.0000
  C   C852      1.0  0.93996  0.23081  0.98701  1.0000
  H   H1485     1.0  0.96247  0.34854  0.99034  1.0000
  H   H1486     1.0  0.73124  0.49098  0.64750  1.0000
  H   H1487     1.0  0.91340  0.16375  0.81851  1.0000
  C   C853      1.0  0.82642  0.13624  0.51953  1.0000
  H   H1488     1.0  0.88592  0.15280  0.81320  1.0000
  H   H1489     1.0  0.93394  0.31933  0.98611  1.0000
  H   H1490     1.0  0.89975  0.18651  0.86666  1.0000
  H   H1491     1.0  0.92092  0.18385  0.91864  1.0000
  H   H1492     1.0  0.71968  0.12295  0.52050  1.0000
  H   H1493     1.0  0.73377  0.47788  0.59133  1.0000
  C   C854      1.0  0.73928  0.19180  0.61844  1.0000
  H   H1494     1.0  0.89480  0.17280  0.98402  1.0000
  H   H1495     1.0  0.88617  0.13902  0.96542  1.0000
  H   H1496     1.0  0.71675  0.26773  0.65299  1.0000
  H   H1497     1.0  0.94512  0.17899  0.97306  1.0000
  H   H1498     1.0  0.77994  0.46782  0.72019  1.0000
  H   H1499     1.0  0.77657  0.32976  0.92138  1.0000
  C   C855      1.0  0.76422  0.47438  0.73003  1.0000
  H   H1500     1.0  0.96821  0.26341  0.95609  1.0000
  C   C856      1.0  0.76860  0.01835  0.95611  1.0000
  H   H1501     1.0  0.77902  0.32612  0.98506  1.0000
  C   C857      1.0  0.79749  0.34867  0.95546  1.0000
  N   N49       1.0  0.81358  0.25784  0.73502  1.0000
  C   C858      1.0  0.83059  0.24295  0.71704  1.0000
  C   C859      1.0  0.79032  0.25269  0.72323  1.0000
  C   C860      1.0  0.81822  0.28168  0.72556  1.0000
  C   C861      1.0  0.81546  0.25597  0.77296  1.0000
  C   C862      1.0  0.81202  0.23277  0.78848  1.0000
  C   C863      1.0  0.85541  0.24668  0.72523  1.0000
  C   C864      1.0  0.80008  0.29954  0.73581  1.0000
  C   C865      1.0  0.78577  0.22808  0.71387  1.0000
  C   C866      1.0  0.76102  0.22475  0.70769  1.0000
  C   C867      1.0  0.81734  0.23270  0.82631  1.0000
  C   C868      1.0  0.87043  0.23071  0.70451  1.0000
  C   C869      1.0  0.80738  0.32297  0.72697  1.0000
  H   H1502     1.0  0.82851  0.24481  0.68915  1.0000
  H   H1503     1.0  0.82792  0.22510  0.72242  1.0000
  H   H1504     1.0  0.77775  0.25844  0.74241  1.0000
  H   H1505     1.0  0.78623  0.26217  0.69967  1.0000
  H   H1506     1.0  0.82074  0.28316  0.69769  1.0000
  H   H1507     1.0  0.83398  0.28699  0.73747  1.0000
  H   H1508     1.0  0.83191  0.26181  0.78147  1.0000
  H   H1509     1.0  0.80296  0.26719  0.78560  1.0000
  H   H1510     1.0  0.82297  0.21999  0.77630  1.0000
  H   H1511     1.0  0.79438  0.22817  0.78589  1.0000
  H   H1512     1.0  0.86026  0.26383  0.71887  1.0000
  H   H1513     1.0  0.85887  0.24351  0.75242  1.0000
  H   H1514     1.0  0.79677  0.29926  0.76333  1.0000
  H   H1515     1.0  0.78412  0.29692  0.72258  1.0000
  H   H1516     1.0  0.79471  0.22347  0.69008  1.0000
  H   H1517     1.0  0.79136  0.21616  0.73366  1.0000
  H   H1518     1.0  0.75854  0.20734  0.69939  1.0000
  H   H1519     1.0  0.75135  0.22768  0.73135  1.0000
  H   H1520     1.0  0.75466  0.23613  0.68752  1.0000
  H   H1521     1.0  0.80599  0.24454  0.84010  1.0000
  H   H1522     1.0  0.81526  0.21572  0.83674  1.0000
  H   H1523     1.0  0.83486  0.23739  0.83058  1.0000
  H   H1524     1.0  0.86766  0.23324  0.67699  1.0000
  H   H1525     1.0  0.88818  0.23376  0.70989  1.0000
  H   H1526     1.0  0.86714  0.21316  0.71116  1.0000
  H   H1527     1.0  0.79444  0.33539  0.73553  1.0000
  H   H1528     1.0  0.82320  0.32668  0.74000  1.0000
  H   H1529     1.0  0.80970  0.32475  0.69922  1.0000
  N   N50       1.0  0.92622  0.31657  0.91738  1.0000
  C   C870      1.0  0.93451  0.33642  0.93640  1.0000
  C   C871      1.0  0.92752  0.32103  0.87979  1.0000
  C   C872      1.0  0.90188  0.31439  0.92656  1.0000
  C   C873      1.0  0.93874  0.29509  0.92635  1.0000
  C   C874      1.0  0.96385  0.29683  0.93530  1.0000
  H   H1530     1.0  0.74563  0.46278  0.53544  1.0000
  C   C875      1.0  0.88856  0.29820  0.90456  1.0000
  C   C876      1.0  0.95078  0.32538  0.86465  1.0000
  C   C877      1.0  0.94900  0.33203  0.82737  1.0000
  C   C878      1.0  0.97569  0.27397  0.93631  1.0000
  H   H1531     1.0  0.91513  0.15617  0.92929  1.0000
  C   C879      1.0  0.86577  0.29380  0.92005  1.0000
  H   H1532     1.0  0.92641  0.35205  0.92644  1.0000
  H   H1533     1.0  0.95255  0.33856  0.93209  1.0000
  H   H1534     1.0  0.92160  0.30653  0.86534  1.0000
  H   H1535     1.0  0.91611  0.33537  0.87299  1.0000
  H   H1536     1.0  0.89292  0.33093  0.92495  1.0000
  H   H1537     1.0  0.90013  0.30879  0.95330  1.0000
  H   H1538     1.0  0.93106  0.28697  0.94867  1.0000
  H   H1539     1.0  0.93724  0.28270  0.90556  1.0000
  H   H1540     1.0  0.96568  0.30444  0.96068  1.0000
  H   H1541     1.0  0.97296  0.30719  0.91719  1.0000
  H   H1542     1.0  0.94097  0.36997  0.98371  1.0000
  C   C880      1.0  0.68553  0.14311  0.63328  1.0000
  H   H1543     1.0  0.89787  0.28215  0.90115  1.0000
  H   H1544     1.0  0.88540  0.30569  0.87933  1.0000
  H   H1545     1.0  0.95917  0.33896  0.87797  1.0000
  H   H1546     1.0  0.96133  0.30989  0.86551  1.0000
  H   H1547     1.0  0.96584  0.33514  0.81705  1.0000
  H   H1548     1.0  0.94170  0.31846  0.81233  1.0000
  H   H1549     1.0  0.93844  0.34744  0.82437  1.0000
  C   C881      1.0  0.93029  0.33607  0.97522  1.0000
  H   H1550     1.0  0.97459  0.26554  0.91137  1.0000
  H   H1551     1.0  0.67789  0.10967  0.61502  1.0000
  H   H1552     1.0  0.75648  0.18739  0.62680  1.0000
  C   C882      1.0  0.70122  0.17615  0.60707  1.0000
  C   C883      1.0  0.72268  0.49134  0.58075  1.0000
  H   H1553     1.0  0.85620  0.30971  0.92426  1.0000
  H   H1554     1.0  0.85613  0.28349  0.90238  1.0000
  H   H1555     1.0  0.86767  0.28476  0.94442  1.0000
  C   C884      1.0  0.78301  0.34680  0.92388  1.0000
  C   C885      1.0  0.85790  0.12216  0.94682  1.0000
  H   H1556     1.0  0.71198  0.22668  0.75225  1.0000
  C   C886      1.0  0.87729  0.13759  0.94101  1.0000
  C   C887      1.0  0.90890  0.17979  0.96983  1.0000
  H   H1557     1.0  0.00293  0.26248  0.78843  1.0000
  H   H1558     1.0  0.74092  0.31782  0.79195  1.0000
  H   H1559     1.0  0.76484  0.48909  0.80685  1.0000
  H   H1560     1.0  0.74973  0.47234  0.87653  1.0000
  H   H1561     1.0  0.68358  0.22419  0.81738  1.0000
  C   C888      1.0  0.86883  0.16093  0.92852  1.0000
  H   H1562     1.0  0.74012  0.19975  0.59311  1.0000
  H   H1563     1.0  0.86325  0.06690  0.63479  1.0000
  H   H1564     1.0  0.79600  0.04113  0.95126  1.0000
  H   H1565     1.0  0.73069  0.25879  0.76808  1.0000
  H   H1566     1.0  0.85564  0.15842  0.90925  1.0000
  H   H1567     1.0  0.67933  0.26160  0.81688  1.0000
  C   C889      1.0  0.74939  0.40699  0.99460  1.0000
  C   C890      1.0  0.74029  0.29936  0.79276  1.0000
  H   H1568     1.0  0.70229  0.13652  0.64066  1.0000
  C   C891      1.0  0.87800  0.20022  0.92046  1.0000
  H   H1569     1.0  0.71856  0.16259  0.54399  1.0000
  H   H1570     1.0  0.85988  0.16867  0.95054  1.0000
  C   C892      1.0  0.90211  0.15039  0.82635  1.0000
  H   H1571     1.0  0.87270  0.17549  0.86377  1.0000
  H   H1572     1.0  0.73400  0.15942  0.59823  1.0000
  H   H1573     1.0  0.72679  0.16267  0.64201  1.0000
  C   C893      1.0  0.77789  0.04074  0.94575  1.0000
  C   C894      1.0  0.88896  0.17333  0.87695  1.0000
  H   H1574     1.0  0.70601  0.48387  0.57939  1.0000
  H   H1575     1.0  0.84904  0.11916  0.92269  1.0000
  H   H1576     1.0  0.84088  0.08233  0.65556  1.0000
  C   C895      1.0  0.89860  0.15050  0.86468  1.0000
  C   C896      1.0  0.70950  0.26175  0.70606  1.0000
  H   H1577     1.0  0.71562  0.29878  0.75398  1.0000
  C   C897      1.0  0.72579  0.17071  0.61680  1.0000
  H   H1578     1.0  0.75397  0.29235  0.77663  1.0000
  C   C898      1.0  0.67557  0.26504  0.78978  1.0000
  H   H1579     1.0  0.76822  0.35403  0.98700  1.0000
  H   H1580     1.0  0.99356  0.27583  0.94244  1.0000
  C   C899      1.0  0.69650  0.14146  0.57361  1.0000
  H   H1581     1.0  0.89120  0.21192  0.91292  1.0000
  H   H1582     1.0  0.75049  0.01906  0.95111  1.0000
  H   H1583     1.0  0.71147  0.13182  0.58288  1.0000
  H   H1584     1.0  0.78909  0.01444  0.80545  1.0000
  H   H1585     1.0  0.76873  0.35899  0.92498  1.0000
  H   H1586     1.0  0.71363  0.24379  0.70297  1.0000
  H   H1587     1.0  0.86041  0.24305  0.91121  1.0000
  C   C900      1.0  0.85631  0.20772  0.90183  1.0000
  H   H1588     1.0  0.75256  0.45643  0.83804  1.0000
  H   H1589     1.0  0.68551  0.28338  0.73204  1.0000
  H   H1590     1.0  0.81144  0.33627  0.95255  1.0000
  H   H1591     1.0  0.80748  0.14897  0.59390  1.0000
  H   H1592     1.0  0.87480  0.20327  0.94785  1.0000
  H   H1593     1.0  0.85954  0.20959  0.87433  1.0000
  C   C901      1.0  0.84759  0.23036  0.91474  1.0000
  H   H1594     1.0  0.86433  0.10588  0.95670  1.0000
  H   H1595     1.0  0.90966  0.13412  0.81829  1.0000
  C   C902      1.0  0.77607  0.01271  0.78690  1.0000
  C   C903      1.0  0.69687  0.23217  0.76670  1.0000
  H   H1596     1.0  0.73176  0.20382  0.63686  1.0000
  C   C904      1.0  0.69796  0.19441  0.69749  1.0000
  H   H1597     1.0  0.72470  0.27028  0.71405  1.0000
  H   H1598     1.0  0.77517  0.04380  0.91831  1.0000
  H   H1599     1.0  0.74298  0.29399  0.81938  1.0000
  H   H1600     1.0  0.84313  0.22942  0.94200  1.0000
  C   C905      1.0  0.71765  0.29217  0.78001  1.0000
  H   H1601     1.0  0.88902  0.12926  0.92314  1.0000
  H   H1602     1.0  0.72995  0.00680  0.71984  1.0000
  H   H1603     1.0  0.83864  0.08478  0.59241  1.0000
  H   H1604     1.0  0.71049  0.20565  0.68907  1.0000
  H   H1605     1.0  0.71637  0.46458  0.52433  1.0000
  C   C906      1.0  0.72401  0.49165  0.75548  1.0000
  H   H1606     1.0  0.86588  0.09625  0.59097  1.0000
  C   C907      1.0  0.71591  0.26641  0.78122  1.0000
  H   H1607     1.0  0.69418  0.18662  0.62788  1.0000
  H   H1608     1.0  0.83250  0.23570  0.90035  1.0000
  H   H1609     1.0  0.95606  0.22224  0.98553  1.0000
  H   H1610     1.0  0.69202  0.50097  0.69884  1.0000
  C   C908      1.0  0.70314  0.15320  0.54024  1.0000
  C   C909      1.0  0.67491  0.33793  0.77085  1.0000
  H   H1611     1.0  0.90936  0.14465  0.56913  1.0000
  H   H1612     1.0  0.68530  0.18900  0.78415  1.0000
  H   H1613     1.0  0.86243  0.15780  0.55977  1.0000
  H   H1614     1.0  0.82388  0.02660  0.67892  1.0000
  H   H1615     1.0  0.86845  0.09344  0.65404  1.0000
  C   C910      1.0  0.67050  0.12261  0.63211  1.0000
  C   C911      1.0  0.80952  0.01768  0.68948  1.0000
  C   C912      1.0  0.67664  0.32932  0.71066  1.0000
  H   H1616     1.0  0.80637  0.02387  0.71559  1.0000
  H   H1617     1.0  0.68494  0.10747  0.67763  1.0000
  H   H1618     1.0  0.82376  0.16568  0.56695  1.0000
  H   H1619     1.0  0.83758  0.34568  0.98711  1.0000
  H   H1620     1.0  0.68785  0.26268  0.66175  1.0000
  H   H1621     1.0  0.88239  0.26133  0.99287  1.0000
  H   H1622     1.0  0.77084  0.01658  0.98386  1.0000
  C   C913      1.0  0.67527  0.20097  0.69564  1.0000
  H   H1623     1.0  0.76923  0.05435  0.96017  1.0000
  H   H1624     1.0  0.70114  0.18725  0.58450  1.0000
  C   C914      1.0  0.75586  0.49201  0.83108  1.0000
  C   C915      1.0  0.70767  0.13623  0.51199  1.0000
  H   H1625     1.0  0.76594  0.49333  0.60065  1.0000
  H   H1626     1.0  0.73954  0.00509  0.90238  1.0000
  C   C916      1.0  0.75711  0.49643  0.72183  1.0000
  H   H1627     1.0  0.85076  0.30612  0.99676  1.0000
  H   H1628     1.0  0.70836  0.49820  0.76555  1.0000
  C   C917      1.0  0.72966  0.49550  0.54360  1.0000
  C   C918      1.0  0.76560  0.12978  0.50747  1.0000
  H   H1629     1.0  0.69198  0.12842  0.50425  1.0000
  C   C919      1.0  0.00300  0.23882  0.74762  1.0000
  H   H1630     1.0  0.78233  0.00352  0.91006  1.0000
  H   H1631     1.0  0.68106  0.50243  0.63840  1.0000
  Fe  Fe105     1.0  0.74574  0.89007  0.19420  1.0000
  S   S208      1.0  0.76606  0.87598  0.15137  1.0000
  S   S209      1.0  0.71968  0.87045  0.22208  1.0000
  Fe  Fe106     1.0  0.77460  0.93187  0.20076  1.0000
  S   S210      1.0  0.79757  0.91983  0.15838  1.0000
  S   S211      1.0  0.78001  0.96077  0.23828  1.0000
  Fe  Fe107     1.0  0.76601  0.91094  0.13097  1.0000
  S   S212      1.0  0.75479  0.92064  0.07735  1.0000
  Fe  Fe108     1.0  0.79577  0.88553  0.18218  1.0000
  S   S213      1.0  0.82241  0.85753  0.18683  1.0000
  S   S214      1.0  0.74316  0.92464  0.17240  1.0000
  S   S215      1.0  0.77536  0.89807  0.22596  1.0000
  Fe  Fe109     1.0  0.72418  0.60582  0.30167  1.0000
  S   S216      1.0  0.75533  0.58782  0.28257  1.0000
  S   S217      1.0  0.70046  0.61978  0.26118  1.0000
  Fe  Fe110     1.0  0.73512  0.59503  0.37580  1.0000
  S   S218      1.0  0.76654  0.57617  0.36165  1.0000
  S   S219      1.0  0.72272  0.60307  0.42964  1.0000
  Fe  Fe111     1.0  0.77258  0.60440  0.32572  1.0000
  S   S220      1.0  0.80835  0.61580  0.32174  1.0000
  Fe  Fe112     1.0  0.74721  0.56061  0.31918  1.0000
  S   S221      1.0  0.75485  0.52302  0.31070  1.0000
  S   S222      1.0  0.74220  0.62441  0.34204  1.0000
  S   S223      1.0  0.71489  0.57752  0.33621  1.0000
  Fe  Fe113     1.0  0.90177  0.75176  0.38175  1.0000
  S   S224      1.0  0.90165  0.72249  0.34582  1.0000
  S   S225      1.0  0.91804  0.74720  0.43374  1.0000
  Fe  Fe114     1.0  0.88101  0.78352  0.32845  1.0000
  S   S226      1.0  0.87929  0.75663  0.28958  1.0000
  S   S227      1.0  0.86943  0.81967  0.32062  1.0000
  Fe  Fe115     1.0  0.86707  0.73500  0.33201  1.0000
  S   S228      1.0  0.83363  0.71812  0.32838  1.0000
  Fe  Fe116     1.0  0.91414  0.74659  0.30647  1.0000
  S   S229      1.0  0.94021  0.73798  0.26538  1.0000
  S   S230      1.0  0.86662  0.76286  0.37021  1.0000
  S   S231      1.0  0.91646  0.77483  0.34317  1.0000
  C   C920      1.0  0.90867  0.75563  0.47460  1.0000
  C   C921      1.0  0.76107  0.65187  0.47558  1.0000
  H   H1632     1.0  0.73355  0.94799  0.33012  1.0000
  H   H1633     1.0  0.87632  0.76793  0.45907  1.0000
  C   C922      1.0  0.72637  0.93114  0.28247  1.0000
  C   C923      1.0  0.96660  0.74932  0.25560  1.0000
  C   C924      1.0  0.67318  0.82393  0.20502  1.0000
  H   H1634     1.0  0.87842  0.71649  0.47063  1.0000
  C   C925      1.0  0.97688  0.74380  0.22450  1.0000
  H   H1635     1.0  0.73302  0.67414  0.43005  1.0000
  N   N51       1.0  0.77661  0.65047  0.44536  1.0000
  H   H1636     1.0  0.73034  0.69881  0.37992  1.0000
  C   C926      1.0  0.73321  0.59449  0.46984  1.0000
  H   H1637     1.0  0.93962  0.88292  0.35668  1.0000
  C   C927      1.0  0.75178  0.58000  0.47325  1.0000
  H   H1638     1.0  0.72624  0.80736  0.21795  1.0000
  H   H1639     1.0  0.75982  0.57310  0.45088  1.0000
  C   C928      1.0  0.81516  0.64427  0.32458  1.0000
  C   C929      1.0  0.79870  0.66128  0.32448  1.0000
  C   C930      1.0  0.80472  0.68373  0.32581  1.0000
  C   C931      1.0  0.82721  0.68948  0.32736  1.0000
  C   C932      1.0  0.84368  0.67248  0.32810  1.0000
  C   C933      1.0  0.83766  0.64998  0.32661  1.0000
  H   H1640     1.0  0.78135  0.65716  0.32266  1.0000
  H   H1641     1.0  0.79186  0.69676  0.32518  1.0000
  H   H1642     1.0  0.86104  0.67666  0.32933  1.0000
  H   H1643     1.0  0.85051  0.63695  0.32671  1.0000
  H   H1644     1.0  0.87827  0.68475  0.42998  1.0000
  C   C934      1.0  0.69887  0.97418  0.22108  1.0000
  H   H1645     1.0  0.71661  0.97998  0.31377  1.0000
  H   H1646     1.0  0.83100  0.53250  0.34466  1.0000
  H   H1647     1.0  0.73440  0.52583  0.24288  1.0000
  H   H1648     1.0  0.72238  0.99081  0.18856  1.0000
  H   H1649     1.0  0.75414  0.99249  0.03887  1.0000
  C   C935      1.0  0.83400  0.84679  0.22500  1.0000
  C   C936      1.0  0.84485  0.82568  0.22461  1.0000
  C   C937      1.0  0.85507  0.81682  0.25396  1.0000
  C   C938      1.0  0.85499  0.82923  0.28392  1.0000
  C   C939      1.0  0.84401  0.85028  0.28438  1.0000
  C   C940      1.0  0.83337  0.85893  0.25519  1.0000
  H   H1650     1.0  0.84547  0.81619  0.20135  1.0000
  H   H1651     1.0  0.86346  0.80063  0.25319  1.0000
  H   H1652     1.0  0.84386  0.86005  0.30737  1.0000
  H   H1653     1.0  0.82515  0.87523  0.25583  1.0000
  C   C941      1.0  0.76377  0.91076  0.03687  1.0000
  H   H1654     1.0  0.82170  0.52246  0.19349  1.0000
  C   C942      1.0  0.78433  0.89960  0.03188  1.0000
  H   H1655     1.0  0.91002  0.86639  0.43499  1.0000
  H   H1656     1.0  0.79496  0.89596  0.05336  1.0000
  H   H1657     1.0  0.86069  0.68237  0.48881  1.0000
  C   C943      1.0  0.77342  0.98989  0.24341  1.0000
  H   H1658     1.0  0.80863  0.65969  0.46487  1.0000
  H   H1659     1.0  0.76531  0.82938  0.12305  1.0000
  C   C944      1.0  0.68862  0.64720  0.25743  1.0000
  H   H1660     1.0  0.95973  0.79731  0.37667  1.0000
  H   H1661     1.0  0.78264  0.95447  0.00686  1.0000
  C   C945      1.0  0.79240  0.54893  0.23405  1.0000
  H   H1662     1.0  0.73428  0.92394  0.01208  1.0000
  C   C946      1.0  0.70091  0.85287  0.20131  1.0000
  H   H1663     1.0  0.82259  0.70308  0.44365  1.0000
  H   H1664     1.0  0.75108  0.64074  0.41053  1.0000
  H   H1665     1.0  0.67673  0.64143  0.20688  1.0000
  C   C947      1.0  0.83298  0.55578  0.23736  1.0000
  N   N52       1.0  0.70719  0.94473  0.26761  1.0000
  H   H1666     1.0  0.78848  0.68175  0.46493  1.0000
  C   C948      1.0  0.69877  0.97883  0.30748  1.0000
  H   H1667     1.0  0.67958  0.69579  0.30071  1.0000
  C   C949      1.0  0.72289  0.60313  0.49931  1.0000
  H   H1668     1.0  0.82558  0.56321  0.30206  1.0000
  H   H1669     1.0  0.92747  0.82695  0.48092  1.0000
  H   H1670     1.0  0.95101  0.88198  0.39882  1.0000
  C   C950      1.0  0.67901  0.68399  0.28009  1.0000
  H   H1671     1.0  0.77251  0.92458  0.29231  1.0000
  C   C951      1.0  0.69689  0.85463  0.16658  1.0000
  H   H1672     1.0  0.69620  0.89661  0.27334  1.0000
  H   H1673     1.0  0.67504  0.95684  0.28656  1.0000
  H   H1674     1.0  0.83899  0.67785  0.43453  1.0000
  H   H1675     1.0  0.78399  0.98994  0.29550  1.0000
  C   C952      1.0  0.92649  0.85689  0.38835  1.0000
  H   H1676     1.0  0.77270  0.61496  0.44361  1.0000
  H   H1677     1.0  0.86681  0.57836  0.17446  1.0000
  N   N53       1.0  0.92251  0.80900  0.21024  1.0000
  C   C953      1.0  0.90523  0.82085  0.18845  1.0000
  C   C954      1.0  0.91605  0.78518  0.21663  1.0000
  C   C955      1.0  0.92288  0.82094  0.24390  1.0000
  C   C956      1.0  0.94556  0.80963  0.19500  1.0000
  C   C957      1.0  0.94864  0.79926  0.15944  1.0000
  C   C958      1.0  0.90854  0.84595  0.18162  1.0000
  C   C959      1.0  0.93797  0.81013  0.27165  1.0000
  C   C960      1.0  0.90290  0.77335  0.18838  1.0000
  C   C961      1.0  0.90211  0.74829  0.19465  1.0000
  C   C962      1.0  0.71498  0.77797  0.24196  1.0000
  C   C963      1.0  0.89067  0.85534  0.15759  1.0000
  C   C964      1.0  0.93621  0.82342  0.30460  1.0000
  H   H1678     1.0  0.88850  0.81942  0.20033  1.0000
  H   H1679     1.0  0.90390  0.81282  0.16333  1.0000
  H   H1680     1.0  0.93113  0.77468  0.22253  1.0000
  H   H1681     1.0  0.90522  0.78413  0.23951  1.0000
  H   H1682     1.0  0.90563  0.82266  0.25449  1.0000
  H   H1683     1.0  0.92886  0.83814  0.24073  1.0000
  H   H1684     1.0  0.95145  0.82699  0.19429  1.0000
  H   H1685     1.0  0.95775  0.80033  0.21127  1.0000
  H   H1686     1.0  0.93705  0.80707  0.14082  1.0000
  H   H1687     1.0  0.94610  0.78107  0.16062  1.0000
  H   H1688     1.0  0.90700  0.85577  0.20534  1.0000
  H   H1689     1.0  0.92504  0.84869  0.16992  1.0000
  H   H1690     1.0  0.95574  0.80986  0.26392  1.0000
  H   H1691     1.0  0.93328  0.79280  0.27712  1.0000
  H   H1692     1.0  0.88544  0.78011  0.18787  1.0000
  H   H1693     1.0  0.91021  0.77572  0.16297  1.0000
  H   H1694     1.0  0.89194  0.74044  0.17480  1.0000
  H   H1695     1.0  0.91917  0.74057  0.19382  1.0000
  H   H1696     1.0  0.89452  0.74483  0.21968  1.0000
  H   H1697     1.0  0.68960  0.00270  0.34671  1.0000
  H   H1698     1.0  0.99874  0.70283  0.19781  1.0000
  C   C965      1.0  0.99887  0.77118  0.26928  1.0000
  H   H1699     1.0  0.87378  0.85338  0.16859  1.0000
  H   H1700     1.0  0.89313  0.87338  0.15341  1.0000
  H   H1701     1.0  0.89164  0.84675  0.13271  1.0000
  H   H1702     1.0  0.94729  0.81551  0.32389  1.0000
  H   H1703     1.0  0.94143  0.84079  0.30058  1.0000
  H   H1704     1.0  0.91885  0.82371  0.31440  1.0000
  H   H1705     1.0  0.80896  0.66462  0.39758  1.0000
  H   H1706     1.0  0.79279  0.68942  0.40525  1.0000
  C   C966      1.0  0.92096  0.85225  0.42608  1.0000
  H   H1707     1.0  0.96837  0.73328  0.20686  1.0000
  C   C967      1.0  0.76271  0.65461  0.41412  1.0000
  C   C968      1.0  0.74818  0.67648  0.41437  1.0000
  H   H1708     1.0  0.83234  0.69738  0.40126  1.0000
  H   H1709     1.0  0.73005  0.66995  0.36788  1.0000
  C   C969      1.0  0.81512  0.53160  0.27852  1.0000
  H   H1710     1.0  0.74632  0.64140  0.47133  1.0000
  H   H1711     1.0  0.77313  0.65437  0.39089  1.0000
  C   C970      1.0  0.93558  0.88017  0.38379  1.0000
  H   H1712     1.0  0.72025  0.91722  0.29805  1.0000
  N   N54       1.0  0.91010  0.83043  0.43323  1.0000
  H   H1713     1.0  0.94873  0.80145  0.45260  1.0000
  H   H1714     1.0  0.91148  0.85577  0.37224  1.0000
  H   H1715     1.0  0.79753  0.56913  0.18879  1.0000
  H   H1716     1.0  0.97433  0.79436  0.12107  1.0000
  H   H1717     1.0  0.81707  0.63145  0.41480  1.0000
  H   H1718     1.0  0.90501  0.67484  0.44611  1.0000
  C   C971      1.0  0.88897  0.70141  0.47606  1.0000
  H   H1719     1.0  0.88702  0.83212  0.39119  1.0000
  H   H1720     1.0  0.91468  0.79528  0.42242  1.0000
  H   H1721     1.0  0.77340  0.93794  0.33294  1.0000
  C   C972      1.0  0.76308  0.56186  0.19168  1.0000
  H   H1722     1.0  0.82127  0.59430  0.43899  1.0000
  H   H1723     1.0  0.72883  0.95364  0.22614  1.0000
  H   H1724     1.0  0.79627  0.62316  0.46726  1.0000
  C   C973      1.0  0.82040  0.51828  0.22073  1.0000
  H   H1725     1.0  0.75207  0.54802  0.19834  1.0000
  C   C974      1.0  0.68943  0.66272  0.28376  1.0000
  C   C975      1.0  0.97764  0.76330  0.27783  1.0000
  C   C976      1.0  0.92258  0.81126  0.41631  1.0000
  H   H1726     1.0  0.84004  0.83175  0.42583  1.0000
  H   H1727     1.0  0.97000  0.76777  0.30182  1.0000
  H   H1728     1.0  0.71375  0.76857  0.21785  1.0000
  H   H1729     1.0  0.74711  0.96342  0.03929  1.0000
  H   H1730     1.0  0.90481  0.80935  0.47690  1.0000
  N   N55       1.0  0.81511  0.53876  0.24182  1.0000
  C   C977      1.0  0.80213  0.62114  0.41423  1.0000
  H   H1731     1.0  0.79609  0.55917  0.30300  1.0000
  C   C978      1.0  0.76258  0.92883  0.31532  1.0000
  C   C979      1.0  0.97237  0.80223  0.14639  1.0000
  H   H1732     1.0  0.95158  0.77484  0.40406  1.0000
  C   C980      1.0  0.78639  0.62700  0.44414  1.0000
  H   H1733     1.0  0.79105  0.54050  0.17953  1.0000
  C   C981      1.0  0.89614  0.84343  0.49236  1.0000
  H   H1734     1.0  0.83075  0.52184  0.28437  1.0000
  H   H1735     1.0  0.69395  0.96323  0.19987  1.0000
  H   H1736     1.0  0.72616  0.97425  0.25713  1.0000
  N   N56       1.0  0.77334  0.80227  0.22183  1.0000
  C   C982      1.0  0.76642  0.81618  0.19151  1.0000
  C   C983      1.0  0.77947  0.81709  0.25115  1.0000
  C   C984      1.0  0.79402  0.78874  0.21183  1.0000
  C   C985      1.0  0.75569  0.78622  0.23213  1.0000
  C   C986      1.0  0.73199  0.79625  0.23871  1.0000
  C   C987      1.0  0.75941  0.80304  0.15965  1.0000
  C   C988      1.0  0.80598  0.77556  0.24081  1.0000
  C   C989      1.0  0.76591  0.83927  0.25563  1.0000
  C   C990      1.0  0.77169  0.85083  0.28875  1.0000
  H   H1737     1.0  0.73727  0.82961  0.14025  1.0000
  C   C991      1.0  0.75152  0.81880  0.13147  1.0000
  C   C992      1.0  0.82631  0.76227  0.22747  1.0000
  H   H1738     1.0  0.78022  0.82721  0.18406  1.0000
  H   H1739     1.0  0.75221  0.82778  0.19762  1.0000
  H   H1740     1.0  0.77878  0.80772  0.27545  1.0000
  H   H1741     1.0  0.79705  0.82228  0.24854  1.0000
  H   H1742     1.0  0.80651  0.79979  0.20015  1.0000
  H   H1743     1.0  0.79008  0.77626  0.19216  1.0000
  H   H1744     1.0  0.75440  0.77279  0.21288  1.0000
  H   H1745     1.0  0.76054  0.77737  0.25583  1.0000
  H   H1746     1.0  0.83711  0.51114  0.22774  1.0000
  H   H1747     1.0  0.73164  0.80560  0.26289  1.0000
  H   H1748     1.0  0.77357  0.79283  0.14936  1.0000
  H   H1749     1.0  0.74547  0.79200  0.16553  1.0000
  H   H1750     1.0  0.79474  0.76352  0.25269  1.0000
  H   H1751     1.0  0.81195  0.78689  0.26078  1.0000
  H   H1752     1.0  0.76990  0.85077  0.23464  1.0000
  H   H1753     1.0  0.74779  0.83684  0.25548  1.0000
  H   H1754     1.0  0.76737  0.84028  0.31074  1.0000
  H   H1755     1.0  0.78972  0.85437  0.28949  1.0000
  H   H1756     1.0  0.76203  0.86687  0.29067  1.0000
  H   H1757     1.0  0.84792  0.59339  0.20243  1.0000
  H   H1758     1.0  0.87822  0.79663  0.41889  1.0000
  C   C993      1.0  0.69269  0.95522  0.29507  1.0000
  H   H1759     1.0  0.74593  0.80900  0.10943  1.0000
  C   C994      1.0  0.89389  0.68976  0.44232  1.0000
  H   H1760     1.0  0.90241  0.70131  0.42497  1.0000
  H   H1761     1.0  0.83439  0.75295  0.24867  1.0000
  H   H1762     1.0  0.82128  0.75005  0.20808  1.0000
  H   H1763     1.0  0.83864  0.77356  0.21630  1.0000
  H   H1764     1.0  0.79650  0.58544  0.41776  1.0000
  H   H1765     1.0  0.69236  0.94401  0.31753  1.0000
  H   H1766     1.0  0.83197  0.55825  0.18120  1.0000
  H   H1767     1.0  0.95652  0.82370  0.42493  1.0000
  H   H1768     1.0  0.92136  0.81272  0.38832  1.0000
  H   H1769     1.0  0.69786  0.65825  0.30704  1.0000
  C   C995      1.0  0.76102  0.97513  0.03775  1.0000
  H   H1770     1.0  0.82064  0.59269  0.39341  1.0000
  H   H1771     1.0  0.75742  0.91323  0.32777  1.0000
  H   H1772     1.0  0.85533  0.54250  0.19768  1.0000
  H   H1773     1.0  0.76012  0.56637  0.16478  1.0000
  H   H1774     1.0  0.76208  0.99590  0.19264  1.0000
  C   C996      1.0  0.81466  0.54136  0.34106  1.0000
  C   C997      1.0  0.95963  0.79120  0.40318  1.0000
  H   H1775     1.0  0.71963  0.76624  0.26270  1.0000
  H   H1776     1.0  0.73647  0.92320  0.26171  1.0000
  H   H1777     1.0  0.75503  0.68564  0.36193  1.0000
  C   C998      1.0  0.68315  0.90935  0.26677  1.0000
  H   H1778     1.0  0.86982  0.81087  0.45713  1.0000
  C   C999      1.0  0.88768  0.76576  0.48001  1.0000
  H   H1779     1.0  0.81338  0.55529  0.35950  1.0000
  H   H1780     1.0  0.84831  0.81742  0.38727  1.0000
  C   C1000     1.0  0.68900  0.83747  0.22044  1.0000
  C   C1001     1.0  0.94746  0.80798  0.42634  1.0000
  H   H1781     1.0  0.97597  0.82019  0.14397  1.0000
  H   H1782     1.0  0.77906  0.53805  0.24346  1.0000
  H   H1783     1.0  0.97714  0.78873  0.41164  1.0000
  H   H1784     1.0  0.69829  0.78558  0.24774  1.0000
  C   C1002     1.0  0.81264  0.55060  0.30511  1.0000
  C   C1003     1.0  0.74226  0.94356  0.30611  1.0000
  H   H1785     1.0  0.93656  0.85370  0.44093  1.0000
  C   C1004     1.0  0.87144  0.81254  0.42932  1.0000
  H   H1786     1.0  0.83756  0.80200  0.42238  1.0000
  H   H1787     1.0  0.70348  0.92169  0.22581  1.0000
  H   H1788     1.0  0.98471  0.79414  0.16377  1.0000
  H   H1789     1.0  0.75856  0.57660  0.20754  1.0000
  H   H1790     1.0  0.87805  0.84776  0.42681  1.0000
  H   H1791     1.0  0.78649  0.50549  0.21710  1.0000
  H   H1792     1.0  0.78984  0.56473  0.24824  1.0000
  C   C1005     1.0  0.77440  0.97129  0.00519  1.0000
  C   C1006     1.0  0.84793  0.81626  0.41530  1.0000
  C   C1007     1.0  0.79469  0.66719  0.44973  1.0000
  C   C1008     1.0  0.80476  0.67730  0.41700  1.0000
  C   C1009     1.0  0.82596  0.68967  0.42479  1.0000
  C   C1010     1.0  0.78754  0.55481  0.19661  1.0000
  H   H1793     1.0  0.75726  0.69053  0.42529  1.0000
  C   C1011     1.0  0.88668  0.83182  0.41936  1.0000
  H   H1794     1.0  0.74845  0.95888  0.29433  1.0000
  H   H1795     1.0  0.82634  0.57272  0.24446  1.0000
  C   C1012     1.0  0.74050  0.68305  0.37880  1.0000
  H   H1796     1.0  0.84706  0.55224  0.25510  1.0000
  C   C1013     1.0  0.81060  0.59690  0.41634  1.0000
  H   H1797     1.0  0.70849  0.61431  0.49700  1.0000
  C   C1014     1.0  0.84420  0.55739  0.20201  1.0000
  H   H1798     1.0  0.79338  0.62334  0.38980  1.0000
  C   C1015     1.0  0.85847  0.57794  0.19958  1.0000
  H   H1799     1.0  0.87148  0.57755  0.21951  1.0000
  H   H1800     1.0  0.70580  0.86654  0.15160  1.0000
  C   C1016     1.0  0.68064  0.84156  0.15137  1.0000
  H   H1801     1.0  0.80121  0.52029  0.28378  1.0000
  H   H1802     1.0  0.92298  0.89309  0.39176  1.0000
  C   C1017     1.0  0.77712  0.99995  0.27505  1.0000
  C   C1018     1.0  0.91019  0.82647  0.47093  1.0000
  C   C1019     1.0  0.74133  0.50915  0.24637  1.0000
  H   H1803     1.0  0.68921  0.97407  0.36024  1.0000
  H   H1804     1.0  0.75424  0.66918  0.47879  1.0000
  H   H1805     1.0  0.90508  0.70676  0.48628  1.0000
  H   H1806     1.0  0.93938  0.84481  0.37875  1.0000
  C   C1020     1.0  0.71641  0.96171  0.24355  1.0000
  H   H1807     1.0  0.87856  0.84459  0.48393  1.0000
  C   C1021     1.0  0.70807  0.99521  0.20540  1.0000
  C   C1022     1.0  0.69340  0.92900  0.24711  1.0000
  H   H1808     1.0  0.69188  0.83610  0.24737  1.0000
  H   H1809     1.0  0.77197  0.97214  0.06001  1.0000
  H   H1810     1.0  0.67711  0.84358  0.12469  1.0000
  H   H1811     1.0  0.67485  0.91506  0.29047  1.0000
  H   H1812     1.0  0.69500  0.99146  0.28764  1.0000
  H   H1813     1.0  0.67906  0.93816  0.23524  1.0000
  H   H1814     1.0  0.80102  0.52977  0.34635  1.0000
  C   C1023     1.0  0.67048  0.79871  0.02706  1.0000
  H   H1815     1.0  0.90321  0.86024  0.49061  1.0000
  H   H1816     1.0  0.67311  0.89238  0.22062  1.0000
  C   C1024     1.0  0.68530  0.98560  0.33892  1.0000
  H   H1817     1.0  0.67247  0.80913  0.07958  1.0000
  H   H1818     1.0  0.93906  0.74403  0.49863  1.0000
  H   H1819     1.0  0.67350  0.78106  0.03452  1.0000
  H   H1820     1.0  0.68666  0.80623  0.02113  1.0000
  C   C1025     1.0  0.99806  0.75177  0.21589  1.0000
  H   H1821     1.0  0.78761  0.98375  0.00394  1.0000
  C   C1026     1.0  0.75161  0.50345  0.27704  1.0000
  H   H1822     1.0  0.68364  0.97889  0.23569  1.0000
  C   C1027     1.0  0.75027  0.91543  0.00851  1.0000
  C   C1028     1.0  0.67747  0.65331  0.22738  1.0000
  Fe  Fe117     1.0  0.77260  0.89775  0.87740  1.0000
  S   S232      1.0  0.74284  0.92007  0.86589  1.0000
  S   S233      1.0  0.78825  0.89140  0.92939  1.0000
  Fe  Fe118     1.0  0.78081  0.88672  0.80193  1.0000
  S   S234      1.0  0.75157  0.90858  0.78593  1.0000
  S   S235      1.0  0.79853  0.87102  0.75629  1.0000
  Fe  Fe119     1.0  0.76336  0.93393  0.82300  1.0000
  S   S236      1.0  0.77132  0.97099  0.81517  1.0000
  Fe  Fe120     1.0  0.73377  0.89269  0.82960  1.0000
  S   S237      1.0  0.69868  0.88048  0.82145  1.0000
  S   S238      1.0  0.79379  0.91282  0.83665  1.0000
  S   S239      1.0  0.76234  0.86957  0.84349  1.0000
  Fe  Fe121     1.0  0.71835  0.61129  0.67858  1.0000
  S   S240      1.0  0.73685  0.59784  0.72370  1.0000
  S   S241      1.0  0.69024  0.63788  0.68047  1.0000
  Fe  Fe122     1.0  0.74925  0.58600  0.62845  1.0000
  S   S242      1.0  0.77014  0.57107  0.67083  1.0000
  S   S243      1.0  0.76131  0.57617  0.57526  1.0000
  Fe  Fe123     1.0  0.73772  0.56450  0.69699  1.0000
  S   S244      1.0  0.72724  0.53327  0.72636  1.0000
  Fe  Fe124     1.0  0.76776  0.60539  0.69385  1.0000
  S   S245      1.0  0.79595  0.62226  0.72131  1.0000
  S   S246      1.0  0.71673  0.57758  0.65340  1.0000
  S   S247      1.0  0.74931  0.62061  0.65002  1.0000
  Fe  Fe125     1.0  0.89435  0.76474  0.63237  1.0000
  S   S248      1.0  0.90751  0.72975  0.64012  1.0000
  S   S249      1.0  0.88774  0.78081  0.58059  1.0000
  Fe  Fe126     1.0  0.88140  0.76998  0.70768  1.0000
  S   S250      1.0  0.89268  0.73463  0.71918  1.0000
  S   S251      1.0  0.86900  0.78924  0.75435  1.0000
  Fe  Fe127     1.0  0.92320  0.74261  0.68826  1.0000
  S   S252      1.0  0.95738  0.73037  0.70923  1.0000
  Fe  Fe128     1.0  0.87615  0.72506  0.67059  1.0000
  S   S253      1.0  0.85205  0.69877  0.65280  1.0000
  S   S254      1.0  0.91229  0.77821  0.67814  1.0000
  S   S255      1.0  0.86261  0.75983  0.66157  1.0000
  C   C1029     1.0  0.98171  0.74273  0.72651  1.0000
  H   H1823     1.0  0.74230  0.53798  0.62120  1.0000
  H   H1824     1.0  0.74568  0.82649  0.70793  1.0000
  H   H1825     1.0  0.81863  0.56918  0.89458  1.0000
  H   H1826     1.0  0.79416  0.77099  0.69870  1.0000
  H   H1827     1.0  0.72801  0.57054  0.84666  1.0000
  H   H1828     1.0  0.97468  0.77597  0.70842  1.0000
  C   C1030     1.0  0.81084  0.64428  0.70280  1.0000
  C   C1031     1.0  0.80551  0.65257  0.67067  1.0000
  C   C1032     1.0  0.81788  0.66976  0.65642  1.0000
  C   C1033     1.0  0.83579  0.67884  0.67393  1.0000
  C   C1034     1.0  0.84084  0.67094  0.70640  1.0000
  C   C1035     1.0  0.82839  0.65373  0.72075  1.0000
  H   H1829     1.0  0.79209  0.64550  0.65655  1.0000
  H   H1830     1.0  0.81370  0.67591  0.63144  1.0000
  H   H1831     1.0  0.85465  0.67768  0.72010  1.0000
  H   H1832     1.0  0.83264  0.64747  0.74565  1.0000
  H   H1833     1.0  0.85482  0.93035  0.63023  1.0000
  H   H1834     1.0  0.84225  0.71075  0.52076  1.0000
  H   H1835     1.0  0.97935  0.79971  0.78401  1.0000
  C   C1036     1.0  0.98615  0.76534  0.72258  1.0000
  H   H1836     1.0  0.78291  0.50851  0.85418  1.0000
  H   H1837     1.0  0.80691  0.97471  0.89469  1.0000
  H   H1838     1.0  0.76853  0.52129  0.78145  1.0000
  H   H1839     1.0  0.80065  0.51174  0.61552  1.0000
  C   C1037     1.0  0.89561  0.76963  0.54054  1.0000
  C   C1038     1.0  0.91630  0.75880  0.53530  1.0000
  C   C1039     1.0  0.78949  0.95850  0.93721  1.0000
  H   H1840     1.0  0.92752  0.75620  0.55641  1.0000
  C   C1040     1.0  0.73114  0.59762  0.53175  1.0000
  C   C1041     1.0  0.74989  0.58339  0.53511  1.0000
  C   C1042     1.0  0.93529  0.69279  0.56713  1.0000
  H   H1841     1.0  0.72307  0.60449  0.55411  1.0000
  H   H1842     1.0  0.82758  0.68321  0.55684  1.0000
  C   C1043     1.0  0.81824  0.84841  0.75654  1.0000
  C   C1044     1.0  0.82505  0.83789  0.78650  1.0000
  C   C1045     1.0  0.84059  0.81979  0.78537  1.0000
  C   C1046     1.0  0.84937  0.81196  0.75435  1.0000
  C   C1047     1.0  0.84247  0.82244  0.72440  1.0000
  C   C1048     1.0  0.82704  0.84062  0.72554  1.0000
  H   H1843     1.0  0.81842  0.84372  0.81053  1.0000
  H   H1844     1.0  0.84578  0.81176  0.80866  1.0000
  H   H1845     1.0  0.84911  0.81660  0.70039  1.0000
  H   H1846     1.0  0.82186  0.84864  0.70223  1.0000
  C   C1049     1.0  0.67822  0.80745  0.83108  1.0000
  C   C1050     1.0  0.67711  0.72558  0.95270  1.0000
  H   H1847     1.0  0.86549  0.78178  0.51631  1.0000
  H   H1848     1.0  0.73933  0.64550  0.53655  1.0000
  C   C1051     1.0  0.77132  0.64472  0.51013  1.0000
  H   H1849     1.0  0.82998  0.94426  0.61426  1.0000
  C   C1052     1.0  0.73744  0.53827  0.82374  1.0000
  H   H1850     1.0  0.81938  0.98775  0.66355  1.0000
  C   C1053     1.0  0.70548  0.83624  0.84053  1.0000
  C   C1054     1.0  0.69089  0.85241  0.82675  1.0000
  H   H1851     1.0  0.71084  0.80141  0.85238  1.0000
  H   H1852     1.0  0.72162  0.84096  0.84949  1.0000
  C   C1055     1.0  0.75724  0.90923  0.97556  1.0000
  C   C1056     1.0  0.77798  0.89844  0.97052  1.0000
  H   H1853     1.0  0.68943  0.77683  0.75685  1.0000
  H   H1854     1.0  0.74664  0.91294  0.95409  1.0000
  H   H1855     1.0  0.73734  0.97639  0.76147  1.0000
  N   N57       1.0  0.74964  0.81137  0.75751  1.0000
  C   C1057     1.0  0.76338  0.79271  0.74148  1.0000
  C   C1058     1.0  0.74965  0.83134  0.73434  1.0000
  C   C1059     1.0  0.75914  0.81807  0.79116  1.0000
  C   C1060     1.0  0.76414  0.79891  0.81664  1.0000
  C   C1061     1.0  0.78853  0.79705  0.73666  1.0000
  C   C1062     1.0  0.73386  0.85119  0.74475  1.0000
  C   C1063     1.0  0.77287  0.80797  0.85003  1.0000
  C   C1064     1.0  0.80107  0.77626  0.72335  1.0000
  C   C1065     1.0  0.73520  0.87029  0.71941  1.0000
  H   H1856     1.0  0.76169  0.77701  0.75611  1.0000
  H   H1857     1.0  0.72657  0.78813  0.77888  1.0000
  H   H1858     1.0  0.76667  0.83808  0.73280  1.0000
  H   H1859     1.0  0.77467  0.82749  0.78762  1.0000
  H   H1860     1.0  0.74743  0.82995  0.80418  1.0000
  H   H1861     1.0  0.77700  0.78698  0.80661  1.0000
  H   H1862     1.0  0.74891  0.78968  0.82247  1.0000
  H   H1863     1.0  0.79083  0.81059  0.71800  1.0000
  H   H1864     1.0  0.79653  0.80180  0.76068  1.0000
  H   H1865     1.0  0.73845  0.85780  0.76990  1.0000
  H   H1866     1.0  0.81892  0.77990  0.71954  1.0000
  H   H1867     1.0  0.72073  0.78402  0.71692  1.0000
  H   H1868     1.0  0.78821  0.81746  0.84570  1.0000
  H   H1869     1.0  0.76004  0.81902  0.86235  1.0000
  H   H1870     1.0  0.77695  0.79396  0.86750  1.0000
  H   H1871     1.0  0.80010  0.76239  0.74183  1.0000
  H   H1872     1.0  0.68696  0.72620  0.82655  1.0000
  H   H1873     1.0  0.78159  0.98295  0.68155  1.0000
  N   N58       1.0  0.87327  0.69447  0.53639  1.0000
  H   H1874     1.0  0.67542  0.54596  0.54338  1.0000
  C   C1066     1.0  0.86382  0.67616  0.55771  1.0000
  C   C1067     1.0  0.85762  0.71460  0.53497  1.0000
  C   C1068     1.0  0.89486  0.70128  0.55214  1.0000
  H   H1875     1.0  0.67986  0.78767  0.71675  1.0000
  H   H1876     1.0  0.84163  0.75781  0.55016  1.0000
  C   C1069     1.0  0.85069  0.72482  0.56966  1.0000
  C   C1070     1.0  0.83961  0.66966  0.54942  1.0000
  C   C1071     1.0  0.83339  0.64865  0.56866  1.0000
  H   H1877     1.0  0.93225  0.69626  0.59439  1.0000
  C   C1072     1.0  0.83412  0.74443  0.56534  1.0000
  C   C1073     1.0  0.80237  0.95783  0.90305  1.0000
  C   C1074     1.0  0.79484  0.55254  0.75055  1.0000
  H   H1878     1.0  0.87448  0.66074  0.55546  1.0000
  H   H1879     1.0  0.86431  0.68050  0.58512  1.0000
  H   H1880     1.0  0.71638  0.81595  0.77822  1.0000
  C   C1075     1.0  0.89605  0.83669  0.52965  1.0000
  H   H1881     1.0  0.86539  0.72824  0.52055  1.0000
  H   H1882     1.0  0.89227  0.70526  0.57940  1.0000
  H   H1883     1.0  0.69662  0.73624  0.78637  1.0000
  H   H1884     1.0  0.91010  0.66838  0.56433  1.0000
  C   C1076     1.0  0.76402  0.99296  0.78616  1.0000
  H   H1885     1.0  0.86535  0.73110  0.58326  1.0000
  H   H1886     1.0  0.84258  0.71244  0.58586  1.0000
  H   H1887     1.0  0.70393  0.99273  0.88002  1.0000
  H   H1888     1.0  0.67622  0.83368  0.95993  1.0000
  H   H1889     1.0  0.83659  0.65052  0.59616  1.0000
  H   H1890     1.0  0.81544  0.64547  0.56512  1.0000
  H   H1891     1.0  0.84329  0.63398  0.55918  1.0000
  H   H1892     1.0  0.67667  0.71398  0.93084  1.0000
  H   H1893     1.0  0.99416  0.71170  0.74772  1.0000
  S   S256      1.0  0.67248  0.77868  0.83025  1.0000
  H   H1894     1.0  0.72368  0.88414  0.72750  1.0000
  H   H1895     1.0  0.82968  0.75138  0.59062  1.0000
  N   N59       1.0  0.73655  0.68076  0.76022  1.0000
  C   C1077     1.0  0.73717  0.67180  0.72449  1.0000
  C   C1078     1.0  0.73503  0.66155  0.78470  1.0000
  C   C1079     1.0  0.71538  0.69491  0.76412  1.0000
  C   C1080     1.0  0.75626  0.69490  0.76829  1.0000
  C   C1081     1.0  0.77869  0.68886  0.75017  1.0000
  C   C1082     1.0  0.73379  0.68956  0.69624  1.0000
  C   C1083     1.0  0.70966  0.70312  0.80047  1.0000
  C   C1084     1.0  0.75427  0.64382  0.78387  1.0000
  C   C1085     1.0  0.74919  0.62411  0.80684  1.0000
  C   C1086     1.0  0.79762  0.70239  0.76444  1.0000
  C   C1087     1.0  0.74052  0.68041  0.66151  1.0000
  C   C1088     1.0  0.69119  0.72124  0.80017  1.0000
  H   H1896     1.0  0.72399  0.65939  0.72110  1.0000
  H   H1897     1.0  0.75293  0.66227  0.71917  1.0000
  H   H1898     1.0  0.73440  0.66763  0.81127  1.0000
  H   H1899     1.0  0.71917  0.65284  0.78051  1.0000
  H   H1900     1.0  0.70083  0.68563  0.75499  1.0000
  H   H1901     1.0  0.71604  0.71005  0.74796  1.0000
  H   H1902     1.0  0.75253  0.71269  0.76189  1.0000
  H   H1903     1.0  0.75939  0.69483  0.79606  1.0000
  H   H1904     1.0  0.77761  0.69260  0.72271  1.0000
  H   H1905     1.0  0.78348  0.67102  0.75266  1.0000
  H   H1906     1.0  0.71590  0.69482  0.69480  1.0000
  H   H1907     1.0  0.74358  0.70452  0.70136  1.0000
  H   H1908     1.0  0.72443  0.70998  0.81303  1.0000
  H   H1909     1.0  0.70349  0.68914  0.81597  1.0000
  H   H1910     1.0  0.75698  0.63711  0.75811  1.0000
  H   H1911     1.0  0.76985  0.65100  0.79325  1.0000
  H   H1912     1.0  0.73365  0.61617  0.79868  1.0000
  H   H1913     1.0  0.76311  0.61150  0.80527  1.0000
  H   H1914     1.0  0.74733  0.62964  0.83355  1.0000
  H   H1915     1.0  0.79374  0.72052  0.76202  1.0000
  H   H1916     1.0  0.80053  0.69816  0.79147  1.0000
  H   H1917     1.0  0.81321  0.69849  0.75014  1.0000
  H   H1918     1.0  0.72980  0.66641  0.65460  1.0000
  H   H1919     1.0  0.73828  0.69367  0.64213  1.0000
  H   H1920     1.0  0.75827  0.67460  0.66138  1.0000
  H   H1921     1.0  0.82904  0.91584  0.62951  1.0000
  C   C1089     1.0  0.70270  0.52717  0.59463  1.0000
  H   H1922     1.0  0.74870  0.95482  0.91366  1.0000
  C   C1090     1.0  0.67764  0.64886  0.71791  1.0000
  N   N60       1.0  0.93963  0.78092  0.81050  1.0000
  C   C1091     1.0  0.95813  0.79273  0.82823  1.0000
  C   C1092     1.0  0.91845  0.78193  0.83156  1.0000
  C   C1093     1.0  0.94704  0.75673  0.80702  1.0000
  C   C1094     1.0  0.93524  0.79010  0.77550  1.0000
  C   C1095     1.0  0.92961  0.81537  0.77330  1.0000
  C   C1096     1.0  0.98099  0.79254  0.80976  1.0000
  C   C1097     1.0  0.92974  0.74106  0.79164  1.0000
  C   C1098     1.0  0.91421  0.80274  0.85432  1.0000
  C   C1099     1.0  0.89050  0.80342  0.86858  1.0000
  C   C1100     1.0  0.92693  0.82295  0.73661  1.0000
  C   C1101     1.0  0.69922  0.81387  0.84246  1.0000
  C   C1102     1.0  0.93767  0.71669  0.79422  1.0000
  H   H1923     1.0  0.96092  0.78526  0.85376  1.0000
  H   H1924     1.0  0.95352  0.81046  0.83296  1.0000
  H   H1925     1.0  0.90359  0.78013  0.81501  1.0000
  H   H1926     1.0  0.91806  0.76757  0.84943  1.0000
  H   H1927     1.0  0.95222  0.74988  0.83213  1.0000
  H   H1928     1.0  0.96191  0.75491  0.79030  1.0000
  H   H1929     1.0  0.94956  0.78612  0.75839  1.0000
  H   H1930     1.0  0.92093  0.78172  0.76370  1.0000
  H   H1931     1.0  0.94290  0.82529  0.78466  1.0000
  H   H1932     1.0  0.91349  0.81926  0.78606  1.0000
  H   H1933     1.0  0.69001  0.62285  0.75092  1.0000
  H   H1934     1.0  0.75512  0.67045  0.54147  1.0000
  H   H1935     1.0  0.92752  0.74500  0.76448  1.0000
  H   H1936     1.0  0.91325  0.74267  0.80427  1.0000
  H   H1937     1.0  0.92590  0.80219  0.87607  1.0000
  H   H1938     1.0  0.91660  0.81852  0.84059  1.0000
  H   H1939     1.0  0.88806  0.81814  0.88535  1.0000
  H   H1940     1.0  0.87819  0.80480  0.84770  1.0000
  H   H1941     1.0  0.88742  0.78816  0.88355  1.0000
  H   H1942     1.0  0.91203  0.81544  0.72531  1.0000
  H   H1943     1.0  0.92443  0.84133  0.73572  1.0000
  H   H1944     1.0  0.94195  0.81822  0.72140  1.0000
  H   H1945     1.0  0.69612  0.53601  0.61761  1.0000
  H   H1946     1.0  0.80213  0.96072  0.95733  1.0000
  H   H1947     1.0  0.76312  0.97339  0.88691  1.0000
  H   H1948     1.0  0.95421  0.71414  0.78186  1.0000
  H   H1949     1.0  0.93888  0.71145  0.82111  1.0000
  H   H1950     1.0  0.92566  0.70600  0.78113  1.0000
  H   H1951     1.0  0.69323  0.55420  0.82470  1.0000
  H   H1952     1.0  0.69810  0.58136  0.80717  1.0000
  H   H1953     1.0  0.88658  0.84941  0.54476  1.0000
  N   N61       1.0  0.79779  0.95484  0.70722  1.0000
  C   C1103     1.0  0.81358  0.95131  0.73652  1.0000
  H   H1954     1.0  0.90055  0.71698  0.54066  1.0000
  C   C1104     1.0  0.77564  0.94563  0.71766  1.0000
  C   C1105     1.0  0.80564  0.94315  0.67522  1.0000
  C   C1106     1.0  0.75630  0.65200  0.53970  1.0000
  C   C1107     1.0  0.81589  0.92701  0.74971  1.0000
  C   C1108     1.0  0.75586  0.95025  0.69317  1.0000
  H   H1955     1.0  0.77456  0.56347  0.50799  1.0000
  H   H1956     1.0  0.76143  0.55962  0.76657  1.0000
  C   C1109     1.0  0.68023  0.63825  0.74921  1.0000
  C   C1110     1.0  0.83620  0.92363  0.77250  1.0000
  C   C1111     1.0  0.73594  0.93622  0.70232  1.0000
  H   H1957     1.0  0.80802  0.96180  0.75851  1.0000
  H   H1958     1.0  0.83046  0.95703  0.73033  1.0000
  H   H1959     1.0  0.83741  0.66627  0.52212  1.0000
  C   C1112     1.0  0.78084  0.99881  0.93726  1.0000
  H   H1960     1.0  0.77056  0.95207  0.74306  1.0000
  H   H1961     1.0  0.77716  0.92720  0.72060  1.0000
  H   H1962     1.0  0.79959  0.92580  0.67438  1.0000
  H   H1963     1.0  0.79802  0.95155  0.65272  1.0000
  H   H1964     1.0  0.79272  0.52665  0.80455  1.0000
  C   C1113     1.0  0.70435  0.56376  0.80796  1.0000
  H   H1965     1.0  0.80096  0.92305  0.76490  1.0000
  H   H1966     1.0  0.81717  0.91482  0.72868  1.0000
  H   H1967     1.0  0.76066  0.94646  0.66661  1.0000
  H   H1968     1.0  0.75007  0.96796  0.69478  1.0000
  H   H1969     1.0  0.67650  0.56501  0.57894  1.0000
  H   H1970     1.0  0.69718  0.79497  0.96987  1.0000
  C   C1114     1.0  0.83649  0.93231  0.63357  1.0000
  H   H1971     1.0  0.75239  0.87656  0.71838  1.0000
  H   H1972     1.0  0.75948  0.55257  0.87876  1.0000
  H   H1973     1.0  0.94923  0.68025  0.56505  1.0000
  N   N62       1.0  0.72190  0.51133  0.60392  1.0000
  C   C1115     1.0  0.71832  0.98072  0.88187  1.0000
  H   H1974     1.0  0.85178  0.92641  0.75811  1.0000
  H   H1975     1.0  0.83511  0.93520  0.79443  1.0000
  H   H1976     1.0  0.83679  0.90626  0.78224  1.0000
  H   H1977     1.0  0.72183  0.94038  0.68511  1.0000
  H   H1978     1.0  0.74036  0.91822  0.69962  1.0000
  H   H1979     1.0  0.73042  0.93964  0.72874  1.0000
  H   H1980     1.0  0.91888  0.67936  0.52419  1.0000
  C   C1116     1.0  0.77562  0.53344  0.79929  1.0000
  H   H1981     1.0  0.75697  0.78900  0.71580  1.0000
  C   C1117     1.0  0.71282  0.79819  0.73095  1.0000
  H   H1982     1.0  0.71143  0.81276  0.71379  1.0000
  H   H1983     1.0  0.69001  0.57155  0.53954  1.0000
  H   H1984     1.0  0.78271  0.56936  0.79473  1.0000
  C   C1118     1.0  0.82380  0.94349  0.90552  1.0000
  H   H1985     1.0  0.79612  0.56852  0.73663  1.0000
  H   H1986     1.0  0.78288  0.94160  0.94134  1.0000
  N   N63       1.0  0.77095  0.97605  0.94024  1.0000
  H   H1987     1.0  0.78761  0.98760  0.72488  1.0000
  C   C1119     1.0  0.73695  0.50528  0.73464  1.0000
  H   H1988     1.0  0.73842  0.57293  0.80429  1.0000
  C   C1120     1.0  0.72630  0.80351  0.76321  1.0000
  H   H1989     1.0  0.71622  0.84632  0.74583  1.0000
  H   H1990     1.0  0.75687  0.51347  0.87507  1.0000
  C   C1121     1.0  0.91443  0.68379  0.55065  1.0000
  C   C1122     1.0  0.88142  0.77320  0.51264  1.0000
  H   H1991     1.0  0.79199  0.95040  0.88315  1.0000
  H   H1992     1.0  0.73313  0.52957  0.79990  1.0000
  C   C1123     1.0  0.68596  0.55781  0.55711  1.0000
  C   C1124     1.0  0.70750  0.54614  0.56914  1.0000
  H   H1993     1.0  0.79795  0.53580  0.88164  1.0000
  H   H1994     1.0  0.69465  0.72685  0.96107  1.0000
  H   H1995     1.0  0.79881  0.58654  0.87174  1.0000
  C   C1125     1.0  0.76497  0.51258  0.84963  1.0000
  C   C1126     1.0  0.75477  0.97210  0.91189  1.0000
  H   H1996     1.0  0.72468  0.98902  0.93352  1.0000
  H   H1997     1.0  0.70365  0.55690  0.78191  1.0000
  C   C1127     1.0  0.68365  0.79782  0.95108  1.0000
  H   H1998     1.0  0.67593  0.71498  0.78812  1.0000
  C   C1128     1.0  0.75918  0.97249  0.97353  1.0000
  H   H1999     1.0  0.82925  0.98970  0.70671  1.0000
  H   H2000     1.0  0.83962  0.95683  0.67250  1.0000
  C   C1129     1.0  0.83121  0.94090  0.66921  1.0000
  C   C1130     1.0  0.76009  0.57457  0.50569  1.0000
  H   H2001     1.0  0.68011  0.80566  0.75316  1.0000
  H   H2002     1.0  0.80576  0.55006  0.84339  1.0000
  H   H2003     1.0  0.77325  0.62627  0.51138  1.0000
  C   C1131     1.0  0.79460  0.55079  0.86581  1.0000
  C   C1132     1.0  0.81477  0.99259  0.68982  1.0000
  C   C1133     1.0  0.77755  0.55528  0.77884  1.0000
  H   H2004     1.0  0.91329  0.83518  0.53969  1.0000
  H   H2005     1.0  0.99198  0.82400  0.83063  1.0000
  C   C1134     1.0  0.68915  0.79168  0.74008  1.0000
  H   H2006     1.0  0.83893  0.92883  0.68728  1.0000
  H   H2007     1.0  0.74715  0.53049  0.57868  1.0000
  N   N64       1.0  0.76201  0.53467  0.83148  1.0000
  C   C1135     1.0  0.73421  0.98820  0.90948  1.0000
  H   H2008     1.0  0.79042  0.57235  0.91000  1.0000
  H   H2009     1.0  0.71751  0.55888  0.58175  1.0000
  H   H2010     1.0  0.76333  0.64529  0.56375  1.0000
  H   H2011     1.0  0.76702  0.56936  0.84418  1.0000
  C   C1136     1.0  0.76975  0.55252  0.85518  1.0000
  C   C1137     1.0  0.74712  0.99118  0.76208  1.0000
  C   C1138     1.0  0.72824  0.56270  0.82119  1.0000
  H   H2012     1.0  0.83207  0.94258  0.88035  1.0000
  H   H2013     1.0  0.78987  0.53947  0.73244  1.0000
  H   H2014     1.0  0.71685  0.54023  0.54655  1.0000
  H   H2015     1.0  0.81868  0.73899  0.55287  1.0000
  H   H2016     1.0  0.67395  0.82470  0.91629  1.0000
  H   H2017     1.0  0.73022  0.86477  0.69379  1.0000
  H   H2018     1.0  0.98834  0.77541  0.80788  1.0000
  H   H2019     1.0  0.71717  0.82975  0.95663  1.0000
  C   C1139     1.0  0.99780  0.80630  0.82892  1.0000
  C   C1140     1.0  0.74360  0.52335  0.60390  1.0000
  C   C1141     1.0  0.78591  0.52180  0.60690  1.0000
  C   C1142     1.0  0.68349  0.82255  0.94017  1.0000
  C   C1143     1.0  0.79429  0.97957  0.70143  1.0000
  H   H2020     1.0  0.83546  0.95074  0.92391  1.0000
  C   C1144     1.0  0.76465  0.50937  0.61444  1.0000
  C   C1145     1.0  0.80090  0.57099  0.88682  1.0000
  H   H2021     1.0  0.82005  0.92629  0.91356  1.0000
  H   H2022     1.0  0.71546  0.81936  0.91372  1.0000
  H   H2023     1.0  0.78760  0.52487  0.57928  1.0000
  H   H2024     1.0  0.78571  0.53804  0.62028  1.0000
  H   H2025     1.0  0.94034  0.70833  0.55436  1.0000
  H   H2026     1.0  0.81151  0.54804  0.76108  1.0000
  H   H2027     1.0  0.88788  0.82051  0.53292  1.0000
  H   H2028     1.0  0.72690  0.98002  0.85689  1.0000
  H   H2029     1.0  0.71191  0.96402  0.88784  1.0000
  H   H2030     1.0  0.67804  0.75472  0.92135  1.0000
  H   H2031     1.0  0.76737  0.50660  0.70595  1.0000
  H   H2032     1.0  0.78786  0.65200  0.51387  1.0000
  C   C1146     1.0  0.70711  0.83016  0.93307  1.0000
  C   C1147     1.0  0.79139  0.89357  0.99890  1.0000
  H   H2033     1.0  0.72706  0.53053  0.84374  1.0000
  H   H2034     1.0  0.68930  0.78827  0.92838  1.0000
  C   C1148     1.0  0.99722  0.72923  0.74457  1.0000
  H   H2035     1.0  0.79825  0.99846  0.94699  1.0000
  H   H2036     1.0  0.71661  0.50571  0.53054  1.0000
  H   H2037     1.0  0.68843  0.51775  0.58478  1.0000
  H   H2038     1.0  0.74581  0.50384  0.54181  1.0000
  H   H2039     1.0  0.76433  0.50594  0.64203  1.0000
  H   H2040     1.0  0.70641  0.84752  0.92333  1.0000
  H   H2041     1.0  0.68164  0.76226  0.98748  1.0000
  H   H2042     1.0  0.74592  0.98542  0.97801  1.0000
  H   H2043     1.0  0.80745  0.88519  0.99535  1.0000
  H   H2044     1.0  0.75009  0.95663  0.97287  1.0000
  H   H2045     1.0  0.00054  0.79950  0.85478  1.0000
  H   H2046     1.0  0.71881  0.51739  0.65773  1.0000
  H   H2047     1.0  0.67159  0.63881  0.80232  1.0000
  C   C1149     1.0  0.92283  0.75201  0.50247  1.0000
  C   C1150     1.0  0.71795  0.50321  0.63960  1.0000
  C   C1151     1.0  0.66976  0.64733  0.77831  1.0000
  H   H2048     1.0  0.88611  0.66939  0.50132  1.0000
  C   C1152     1.0  0.87688  0.68577  0.50089  1.0000
