data_image0
_chemical_formula_structural       FeS2FeS2FeCFeHS2FeS2FeS2FeSFeS3FeS2CS2FeHFeSCSC6H4C6H8CH2C2H4C6H4CH5C2HCH2SCHCH2C8H13CH3C3H6NCH7CHCH2CH9CHCH2C3SH4CH8CH2C2HCNH5CHCH2NC12H18CH4CH2CH2CNC2HCHC2H2CH6CH2CH2CH6SHCHCHC5H4CH2CH3C3HCH6NHCH3NHSH4CHCH3CH2NHFeS2FeS2FeCFeHS2FeS2FeS2FeSFeS3FeS2CHSFeSFeHS2C6H4C6H4CHCSH2NC2H4C6H4C2H6CHCH2FeHSH4CHCH2C3HC2H9CH6CH4SC2HC2HCH3CH3NC12H19CH3CH5CHNH4C2HCH2C7H25C2H4NH3C2H3CH2CHFeH4CH6CHC2HC2H2C6H2C3HC2H2C2H4CH4CH4CHCH2CHCHNH2C2FeCSFeS2FeHFeCS2FeSCFeSHFeSFeS3C4HC2HCH3C3HC4HC2H3C6H7SCHNC5HC3HCH22CH11C2SH2CH3CHCH3CH4CH3CH3C2NCH3CHCHC3H11CNCH4C2H2C3H2CH3C2H2CH2SCH2CHCH2CH5C2H4CH2CH2FeS2FeS2FeHFeHS2FeSHFeS2FeSFeS3C4H2CH9C3HCH3CHC6H5C2HCH3CHC2H3CH3CH4CHC2H3CHCH2C2NH5CH9CH4C2HC3HCH5C2NCHCHNC2HCHC2H2C3H2C2H8CHNC2H2CH9CH2C2HC2H4CHC2H8CH3CH5CH2CH2CH3NHC2HCH4C2H3CHC2H9CH2C2H2C2HC4H3SCH2CH6FeSHFeSHFeSFeSCSFeS2FeS2FeSHS2HFeSHFeSFeSFeS3C6H4C6H4CHCH3C2H3CHC6H4C2H7CSH4CNC2H2C3HC2H2CHCHNCHCH5SC2H2CH11CH5CH4NSCH8CNCHCH2CH2CH2C2H4CH5CHCHNC3HC5HCH6CH3CHC3H2NC2H5C2H2CH4C2HCH13CH2C2H9NHCH2SH4C5H2CH10C4HCHC2H3CNC3HC2H5C2H5CH4CH4C3HC2HC2HCH4FeCH4CFeSHFeSHFeSFeS3FeS2FeS2FeSHS2HFeSH2SFeSFeSCSC6H4C6H4C3HCH4CH3C6H4C4H7CHNH3CHCH6CH3CHCH2CH2C3HCH3C2HCSH3CH3C2H3CH5FeHCH3NCHC4HCHSHCH3SC2H4C2H3SCH4C2H10CHCFeCH5SHCHC2H2C3H3CHCNC3H3C2H10CH3CNH2CHC2H3CH2CH5CH5C2H11FeS2FeS2FeSFeS3H2CFeS2FeCFeS3FeS2FeS2FeHFeS3HCHCSH2C3H2C2H3CHC9H4CH3C6H4C6H4NC5HC5HCH3CH18CH10CH5CH3CSHCHC2H2C3H2CH6CHCHCH2C3NCH3C4HC3H4SCH4NSH2C2HCSHCH4CH2CH5FeCH2C3H16CNH2CHCHCH5CHCSH4CH4CH4NCHCHCH2CH3CHCH5CH2CHCH2CHCH4CHC2FeS2FeS2FeSFeS3HC2FeS2FeHFeCS2FeS2FeS2FeSFeCS2NC2H2C3H9CH2CHC6H8C6H4C6H6C3H3C3NHC2HC2H6NH2CH5CH5CHCH3C2H3CH6C3H2CNC8H12CH2CH2NC12H28CH2CH2CH5CNH2SH4CHC3HCH3NH2C2H3C2H8C4HC2H2CHSHCH4C4H6CH2CHSH12FeH2CHC4H6C5H7CH2SFeS2FeS2FeCFeS3FeS2FeS2FeCFeHS2HC2NH3C3H4C6H5C2HCH8C2HC2HCH2C7HCH4CSH2CHCHCH3NHCH2CHCHCH2CH3C3HCH4NHC3H4CHCH4CH3C2H3CHSCH5CH4CHCHC2HNHC4H3CH10CSCH5CH3SH2CH7CHCH6CH2CHC2HCHNC10HCH14CHNHC3H7C4H2C3HCH2CHCHCH4C4SCH6CH6CH2FeS2FeS2FeHFeHS2FeS2FeS2FeHFeCS2CNCH4C4H3C6H8C3H9C3H3C7HCSH4CH2C2HSCHC2H2CHCH4CH6C2SH15NH5C2HC2HSH4CH2CH2CHSCH2NH2C5H4C2HCH7SH10CHSCH4CHCHC3H2CHC3HC3HCHCH2CH2CHC3HC2SH3CH2CHCH3C4H3CHCHCH2CH3CHCH2CH4CHCHCH7FeS2FeSCFeSHS2CFeS2FeS2FeHFeCS2FeS2FeS2FeHFeS3C2H2NCHC2H3C3H2C3H2C7H4SCH2C6H4C6H5NC11H26CHCH2CH5CH2C2H5CHCSH10NSH3CHCHNHC3H3CSH3C2H5CH7C2H2CHCHCH5CHCFeHCHCH2C2HCH3CH3CH2C2HCH6CH2CH6CNC3H2C2HC2H4CH2C2H5SC2H3CH3FeS2FeSCFeSHS2HFeS2FeS2FeHFeHS2FeS2FeS2FeHFeHS2C3H2C2HCH4CSH6SHC6H7C7H4C6H10CHCHCNH2CHCH2CSC2H3C2HC2NHCH2CH10CHCH3C2H8CHC2HC3HC3H3C3H2CH2NH8CH3CHCHCH3NHCHCHC2H2FeH2CH4SH9CH2CH6C2H2C2H2C3HCH2C2HC2HCH2C2H2CH2C2HCH4SC2HCH4NH2C2H4CHCH3CH3CH7CHCH4SH5CHC2NH2CSH2CH7CFeS2H2SFeSFeS3FeS2FeS2FeHFeS3FeS2FeHSFeCFeCS2H8C2H5C6H4C6H4C6H5C2H5CHC4HCH9SH5CHCH2CH4NCHC5SCH3CH10CHCHCH6CHCHC2H6C2HC2H3NH3CH5CH2CH3CSHC4HCH2NH3C2HCHC3H11SH2NH6FeH4CHCNCH3C3H2CHC2H2CH2C5H4C3H5CHCH7C2H2CH2CHC2H6FeS2HCSFeCFeS3FeS2FeS2FeCFeS3FeS2FeS2FeHFeHS2HCHCH5CH5C6H4C6H4C6H4C5HC3H2NHC2H3C4HC3H2CH2C2H10CHCH2NC3HNHC2H2C4H2CH10C2H4CH8NC9H18CH8C2HCHCH4NH5CH5SHCH2CH2CH2CH4CHCHC2SCH10SH2CH9SHC2H2FeCHCHC3H8CH3C4H4CHFeS2FeS2FeSFeCS2FeS2FeS2FeHFeCS2H2CHC8H5CH5C6H4C3H4C2H9NC3H2CHCH2C3HC2H2SN2H4NHCH3CH2CHCNCH8C2H3CH2CH4CH3C2H3CH4CH2C2H2C2HCHCH2CH3CH5CH5C2H6NH2CHCHCH4CH5CH2C3H2CHCH2C2HCH2C2HCH2CH6CHCH2CHCH6CH2CH2CHSH4FeS2FeS2FeCFeHS2FeCSFeS2FeHFeNS2H3C2HC6H9CHC7H3C4H4C2H4CH4C2H4CH6CHCHCH2CH3CHCHCHCH3C2HCH4C2HC2H5CH2C2H2CH5C2H3CH9CNHCHCNC2H6CHCSH3NCHSH2CHSH4C3HSCH3C3H6FeS2FeS2FeSFeS3FeSHFeSHSFeSHSFeS2FeNSFeSFeHS2CH2CH6CHC7H4C6H4C6H4CH2NHC4H2CH3CH3C2H5SHCHNH2CH3CH2CHCHCH4C2H8CH4CH2CH3CH3FeH2CHC3H4C3H3NHSH3CH3CHCHC2H4C2H2CHCH4CH2C2HC2H2C2HC2HC2H2CH2CHCH3SCH4CHCH3NC12H19C2HCHCHCHCH6CHFeS2FeS2FeSFeS3FeS2FeSHCFeSHSFeS2FeHSFeHFeCS2CH2CH3CH3C8H4C6H4C6H7CH2C4HCHCNHCHCH2CHCHNHCNC9H2CH12CH8CH3CH2CHCH4CHCH2CH6SH4CHCHNC12H25CH3C2H2C4H4CH2C2H7CSCHCH3C2H3CHNH3SH13CHCH4C2H5CH2CHSHC2HCH2C2H4CH2CH3CH7FeCH3CH2FeS2FeSCHSFeSHSFeS2FeSHFeSFeS3FeS2FeS2FeSFeHS2NCH2CH6C2H2CH2C6H4CH4C6H4C6H3CHCHCHCHCH3C3H4SCH3CNCH4CH3CHC3HCHCNC12H28NC4HCHC2HCH8SH15NCHC2HCH4NC3HC2HCH6C3H7C4H3CH3CH2SH2CH3CH12C4H2CHCHC3HCH5C2H2C2H2C2SFeH8CH2C2FeS2CSH2SFeSHSFeS2FeSCFeSFeS3FeS2FeS2FeCFeHS2HCH3CH2CH9C7H6CHC6H4C6H3CH4CH3CHC2H2CH4CH3CHSHSFeH3SH3CH7NC5HCH3CHC2HCH2CH2NHCH8C3HCHCH2NC2H6CH2C3HCH2C2H2CFeCH3CHC2H5CH3CHC4H5CH4NH4CH2C2HC3HCH5CHCH3CHCH2CHCHCSNHCHC2HCH5CHCH3SH7NH3CH3C2HCH4CH2CH3CHCHSH7CH2CHFeSHFeS2FeSFeS3FeSHFeSCFeSFeS3C4HCHCHCH4CH3CH3C6H8CH6C2SH2C2SH5NHC3H2C2HCHCH3CH4NH5SCH3CHCHCH4CHCHSHCHCHC2HC5H8CH2C2H2CH3C4NC6HC2HC2H12C2H4NHCHSH2CH3CH4C3HCH3CHC2H2CH3CHC2H7C3H7CH2CH3CH10CH2CH7FeSCFeS2FeSFeS3FeSCFeSHFeSFeS3C6HCHCH4CH3C2H2C6H4CHC2H2CNH6CSHC3H5C2H2C2HCH3CH7NH8SC2H2CNH2C5HC2H2CH6CH2CH3NH3SHSHC2H4CH2C7NC5H2C2H2CH5C2H6CH6C2HCHCH4C3NC3H2C3H5CH4CH2CH5CHC2H7SH2C3HSC3H3CH2C3H9FeS2FeSCFeSFeS3FeS2FeS2FeSFeS3FeSHFeSHFeSCHSCHCH3CHC6H4C6H5C6H4C2HNH4C2H2C2H2SH2SNC7HC3H14CH7CH2NC12H22CH6C2H3C3HC2H2SCHCHCHCHCH3SH3C3H3CH2CHCH4C3HC2H6CHC3H2CH7NH2CH3CH2SCH5CHCSNH4CHCH2CH7CFeCHCH3CH7SCHCH2FeSHFeSHFeSFeS3FeS2FeS2FeSFeS3FeSHFeSHFeSCHSCH5CHC6H4C6H5C6H4C2H4CH3CHC2H8CH3NC4HC3HCHCHCH7CH4CH2CH2CSH6NC12H28NC7HC2H9CH4CSH2C2NHC3HC3H2C2H8CH5CH3SH2C2HCH2C3NH5C4HCH7CHSHCH2CHCHNHC2HCFeH2SC7H4CH6CH3NHC3HCHCHCH3CHCH8S
_chemical_formula_sum              "Fe256 S512 C2304 H4096 N128"
_cell_length_a       78.0035
_cell_length_b       78.1426
_cell_length_c       47.5275
_cell_angle_alpha    89.5849
_cell_angle_beta     89.4846
_cell_angle_gamma    87.911

_space_group_name_H-M_alt    "P 1"
_space_group_IT_number       1

loop_
  _space_group_symop_operation_xyz
  'x, y, z'

loop_
  _atom_site_type_symbol
  _atom_site_label
  _atom_site_symmetry_multiplicity
  _atom_site_fract_x
  _atom_site_fract_y
  _atom_site_fract_z
  _atom_site_occupancy
  Fe  Fe1       1.0  0.04188  0.07831  0.31172  1.0000
  S   S1        1.0  0.01394  0.08719  0.31247  1.0000
  S   S2        1.0  0.06615  0.09166  0.29516  1.0000
  Fe  Fe2       1.0  0.03245  0.04137  0.33134  1.0000
  S   S3        1.0  0.00426  0.04807  0.33377  1.0000
  S   S4        1.0  0.04541  0.01484  0.33659  1.0000
  Fe  Fe3       1.0  0.00815  0.06192  0.29222  1.0000
  C   C1        1.0  0.23000  0.26555  0.45615  1.0000
  Fe  Fe4       1.0  0.01224  0.07257  0.35387  1.0000
  H   H1        1.0  0.08103  0.29994  0.16568  1.0000
  S   S5        1.0  0.03601  0.05391  0.28920  1.0000
  S   S6        1.0  0.04049  0.06499  0.35396  1.0000
  Fe  Fe5       1.0  0.16846  0.17549  0.25160  1.0000
  S   S7        1.0  0.17048  0.20340  0.25974  1.0000
  S   S8        1.0  0.19268  0.15961  0.24054  1.0000
  Fe  Fe6       1.0  0.13019  0.17535  0.27003  1.0000
  S   S9        1.0  0.13032  0.20388  0.27891  1.0000
  S   S10       1.0  0.10405  0.16339  0.28095  1.0000
  Fe  Fe7       1.0  0.14506  0.20622  0.23802  1.0000
  S   S11       1.0  0.14222  0.22952  0.20876  1.0000
  Fe  Fe8       1.0  0.15574  0.19870  0.29975  1.0000
  S   S12       1.0  0.16752  0.20766  0.34087  1.0000
  S   S13       1.0  0.14351  0.17823  0.22762  1.0000
  S   S14       1.0  0.15513  0.17030  0.29293  1.0000
  Fe  Fe9       1.0  0.14693  0.25098  0.04437  1.0000
  S   S15       1.0  0.15153  0.27825  0.05545  1.0000
  S   S16       1.0  0.14526  0.22828  0.07468  1.0000
  C   C2        1.0  0.20374  0.23365  0.24603  1.0000
  S   S17       1.0  0.19539  0.28918  0.02082  1.0000
  S   S18       1.0  0.13069  0.24723  0.44356  1.0000
  Fe  Fe10      1.0  0.16885  0.27773  0.01678  1.0000
  H   H2        1.0  0.03383  0.04518  0.98977  1.0000
  Fe  Fe11      1.0  0.12981  0.28578  0.02594  1.0000
  S   S19       1.0  0.10424  0.30116  0.03513  1.0000
  C   C3        1.0  0.00723  0.02264  0.42625  1.0000
  S   S20       1.0  0.12448  0.25815  0.01704  1.0000
  C   C4        1.0  0.14373  0.22918  0.11185  1.0000
  C   C5        1.0  0.14011  0.21419  0.12694  1.0000
  C   C6        1.0  0.13969  0.21404  0.15659  1.0000
  C   C7        1.0  0.14268  0.22899  0.17146  1.0000
  C   C8        1.0  0.14601  0.24408  0.15633  1.0000
  C   C9        1.0  0.14676  0.24414  0.12668  1.0000
  H   H3        1.0  0.13769  0.20257  0.11562  1.0000
  H   H4        1.0  0.13694  0.20239  0.16795  1.0000
  H   H5        1.0  0.14846  0.25568  0.16768  1.0000
  H   H6        1.0  0.14992  0.25565  0.11531  1.0000
  C   C10       1.0  0.15714  0.21893  0.36903  1.0000
  C   C11       1.0  0.16629  0.22176  0.39389  1.0000
  C   C12       1.0  0.15852  0.23058  0.41679  1.0000
  C   C13       1.0  0.14146  0.23665  0.41509  1.0000
  C   C14       1.0  0.13236  0.23389  0.39018  1.0000
  C   C15       1.0  0.14016  0.22518  0.36723  1.0000
  H   H7        1.0  0.17946  0.21704  0.39549  1.0000
  H   H8        1.0  0.16567  0.23254  0.43582  1.0000
  H   H9        1.0  0.11920  0.23863  0.38856  1.0000
  H   H10       1.0  0.13313  0.22349  0.34802  1.0000
  H   H11       1.0  0.04307  0.03615  0.45974  1.0000
  H   H12       1.0  0.18046  0.16770  0.18328  1.0000
  H   H13       1.0  0.21053  0.15711  0.33922  1.0000
  H   H14       1.0  0.16130  0.27239  0.40735  1.0000
  C   C16       1.0  0.08598  0.30604  0.14624  1.0000
  H   H15       1.0  0.10379  0.28778  0.18581  1.0000
  H   H16       1.0  0.21907  0.21066  0.09763  1.0000
  C   C17       1.0  0.22643  0.15638  0.22371  1.0000
  C   C18       1.0  0.21168  0.16724  0.22463  1.0000
  H   H17       1.0  0.19773  0.18068  0.29139  1.0000
  H   H18       1.0  0.22614  0.14384  0.23351  1.0000
  H   H19       1.0  0.18774  0.18329  0.08086  1.0000
  H   H20       1.0  0.20849  0.19685  0.33255  1.0000
  C   C19       1.0  0.09406  0.14317  0.28566  1.0000
  C   C20       1.0  0.10229  0.12749  0.27890  1.0000
  C   C21       1.0  0.09360  0.11198  0.28226  1.0000
  C   C22       1.0  0.07662  0.11176  0.29273  1.0000
  C   C23       1.0  0.06848  0.12743  0.29991  1.0000
  C   C24       1.0  0.07711  0.14296  0.29628  1.0000
  H   H21       1.0  0.11528  0.12731  0.27073  1.0000
  H   H22       1.0  0.10010  0.10001  0.27660  1.0000
  H   H23       1.0  0.05547  0.12761  0.30797  1.0000
  H   H24       1.0  0.07053  0.15494  0.30160  1.0000
  C   C25       1.0  0.99238  0.01016  0.43107  1.0000
  H   H25       1.0  0.07058  0.10627  0.23314  1.0000
  H   H26       1.0  0.18317  0.21308  0.01974  1.0000
  H   H27       1.0  0.17213  0.26805  0.43998  1.0000
  H   H28       1.0  0.11790  0.19912  0.39697  1.0000
  H   H29       1.0  0.06867  0.12841  0.38445  1.0000
  C   C26       1.0  0.19975  0.22092  0.15512  1.0000
  C   C27       1.0  0.09260  0.16423  0.39964  1.0000
  H   H30       1.0  0.17398  0.15681  0.15185  1.0000
  C   C28       1.0  0.03797  0.99595  0.35279  1.0000
  H   H31       1.0  0.06115  0.14766  0.40195  1.0000
  H   H32       1.0  0.20034  0.24205  0.18437  1.0000
  S   S21       1.0  0.00138  0.08540  0.39390  1.0000
  C   C29       1.0  0.09182  0.25614  0.09685  1.0000
  H   H33       1.0  0.21635  0.18201  0.07151  1.0000
  C   C30       1.0  0.21805  0.18979  0.31889  1.0000
  H   H34       1.0  0.07710  0.28498  0.12285  1.0000
  H   H35       1.0  0.18524  0.22230  0.06866  1.0000
  C   C31       1.0  0.08903  0.29230  0.12326  1.0000
  C   C32       1.0  0.22971  0.29199  0.00782  1.0000
  C   C33       1.0  0.12107  0.16763  0.37655  1.0000
  C   C34       1.0  0.09484  0.18498  0.36085  1.0000
  C   C35       1.0  0.12179  0.15903  0.34723  1.0000
  C   C36       1.0  0.10341  0.20062  0.34722  1.0000
  C   C37       1.0  0.13658  0.14572  0.34515  1.0000
  C   C38       1.0  0.09356  0.20697  0.32129  1.0000
  H   H36       1.0  0.09259  0.17580  0.34370  1.0000
  H   H37       1.0  0.13176  0.17675  0.37630  1.0000
  H   H38       1.0  0.12380  0.16895  0.33084  1.0000
  H   H39       1.0  0.21370  0.22247  0.15169  1.0000
  H   H40       1.0  0.10335  0.21152  0.36208  1.0000
  H   H41       1.0  0.11688  0.19734  0.34104  1.0000
  H   H42       1.0  0.13711  0.14035  0.32355  1.0000
  H   H43       1.0  0.14900  0.15164  0.34957  1.0000
  H   H44       1.0  0.13460  0.13503  0.36022  1.0000
  H   H45       1.0  0.09961  0.21852  0.31253  1.0000
  H   H46       1.0  0.09375  0.19697  0.30480  1.0000
  H   H47       1.0  0.08003  0.21045  0.32691  1.0000
  H   H48       1.0  0.19104  0.17055  0.33942  1.0000
  C   C39       1.0  0.03154  0.00374  0.43852  1.0000
  H   H49       1.0  0.19481  0.17218  0.12448  1.0000
  H   H50       1.0  0.07888  0.26246  0.09652  1.0000
  H   H51       1.0  0.99589  0.03962  0.47286  1.0000
  C   C40       1.0  0.98810  0.08441  0.44787  1.0000
  C   C41       1.0  0.02037  0.04195  0.99456  1.0000
  C   C42       1.0  0.17168  0.16836  0.16502  1.0000
  H   H52       1.0  0.20100  0.19190  0.21250  1.0000
  H   H53       1.0  0.18550  0.19086  0.03002  1.0000
  H   H54       1.0  0.19392  0.22678  0.11210  1.0000
  H   H55       1.0  0.11860  0.26212  0.10008  1.0000
  H   H56       1.0  0.07781  0.13402  0.41769  1.0000
  H   H57       1.0  0.08054  0.15364  0.36165  1.0000
  N   N1        1.0  0.10433  0.17657  0.38518  1.0000
  C   C43       1.0  0.21535  0.19880  0.10889  1.0000
  H   H58       1.0  0.22725  0.18339  0.33352  1.0000
  H   H59       1.0  0.12485  0.15778  0.39258  1.0000
  H   H60       1.0  0.17915  0.23602  0.17507  1.0000
  H   H61       1.0  0.08108  0.17138  0.40821  1.0000
  H   H62       1.0  0.05212  0.06240  0.41875  1.0000
  H   H63       1.0  0.02032  0.03289  0.01268  1.0000
  H   H64       1.0  0.00362  0.08757  0.14413  1.0000
  C   C44       1.0  0.18074  0.20374  0.03692  1.0000
  H   H65       1.0  0.12688  0.19457  0.47241  1.0000
  C   C45       1.0  0.19101  0.21631  0.12717  1.0000
  H   H66       1.0  0.09879  0.09548  0.21752  1.0000
  H   H67       1.0  0.00656  0.11023  0.13889  1.0000
  C   C46       1.0  0.20047  0.16335  0.32589  1.0000
  H   H68       1.0  0.02256  0.05231  0.41053  1.0000
  H   H69       1.0  0.09217  0.24645  0.11403  1.0000
  H   H70       1.0  0.17213  0.19850  0.09288  1.0000
  H   H71       1.0  0.12302  0.27481  0.18089  1.0000
  H   H72       1.0  0.99250  0.02255  0.99442  1.0000
  H   H73       1.0  0.10503  0.17897  0.44804  1.0000
  H   H74       1.0  0.03568  0.07860  0.42593  1.0000
  H   H75       1.0  0.20190  0.18437  0.15286  1.0000
  H   H76       1.0  0.09904  0.15800  0.41802  1.0000
  C   C47       1.0  0.22130  0.31680  0.45016  1.0000
  H   H77       1.0  0.19793  0.21093  0.17140  1.0000
  C   C48       1.0  0.12287  0.19904  0.45115  1.0000
  H   H78       1.0  0.15200  0.30250  0.10957  1.0000
  H   H79       1.0  0.17244  0.30155  0.40544  1.0000
  C   C49       1.0  0.03495  0.03464  0.44082  1.0000
  C   C50       1.0  0.17436  0.18468  0.14793  1.0000
  C   C51       1.0  0.18990  0.20908  0.06358  1.0000
  S   S22       1.0  0.16547  0.24985  0.00761  1.0000
  H   H80       1.0  0.22924  0.30244  0.02265  1.0000
  H   H81       1.0  0.08177  0.18947  0.36785  1.0000
  H   H82       1.0  0.09715  0.14000  0.37734  1.0000
  H   H83       1.0  0.01305  0.01561  0.25248  1.0000
  C   C52       1.0  0.10328  0.26269  0.20440  1.0000
  H   H84       1.0  0.20376  0.20935  0.05844  1.0000
  H   H85       1.0  0.10589  0.27746  0.08123  1.0000
  H   H86       1.0  0.15827  0.16831  0.17295  1.0000
  H   H87       1.0  0.03493  0.00359  0.41571  1.0000
  H   H88       1.0  0.04406  0.03115  0.42334  1.0000
  H   H89       1.0  0.10993  0.15253  0.34191  1.0000
  H   H90       1.0  0.12472  0.29732  0.08449  1.0000
  H   H91       1.0  0.22263  0.19884  0.12896  1.0000
  C   C53       1.0  0.21551  0.26697  0.47409  1.0000
  H   H92       1.0  0.08984  0.08645  0.18635  1.0000
  H   H93       1.0  0.12578  0.17425  0.43222  1.0000
  C   C54       1.0  0.12092  0.29004  0.12891  1.0000
  C   C55       1.0  0.10604  0.26939  0.10058  1.0000
  H   H94       1.0  0.08891  0.26494  0.15410  1.0000
  C   C56       1.0  0.00628  0.99051  0.26828  1.0000
  N   N2        1.0  0.10456  0.28038  0.12667  1.0000
  H   H95       1.0  0.09655  0.19865  0.41041  1.0000
  H   H96       1.0  0.17214  0.19571  0.16227  1.0000
  H   H97       1.0  0.16450  0.18527  0.13133  1.0000
  H   H98       1.0  0.08944  0.29887  0.10235  1.0000
  H   H99       1.0  0.13215  0.28082  0.12952  1.0000
  C   C57       1.0  0.22251  0.18301  0.09233  1.0000
  H   H100      1.0  0.19912  0.29705  0.42939  1.0000
  C   C58       1.0  0.19269  0.18472  0.13511  1.0000
  H   H101      1.0  0.02182  0.01028  0.28649  1.0000
  H   H102      1.0  0.04613  0.06750  0.45478  1.0000
  N   N3        1.0  0.03808  0.09642  0.20870  1.0000
  C   C59       1.0  0.05585  0.09833  0.19642  1.0000
  C   C60       1.0  0.02462  0.10076  0.18676  1.0000
  C   C61       1.0  0.03594  0.10914  0.23243  1.0000
  C   C62       1.0  0.03570  0.07872  0.22079  1.0000
  C   C63       1.0  0.03747  0.06365  0.19990  1.0000
  C   C64       1.0  0.07100  0.09595  0.21723  1.0000
  C   C65       1.0  0.01759  0.11167  0.24503  1.0000
  C   C66       1.0  0.02893  0.09601  0.15571  1.0000
  C   C67       1.0  0.01290  0.09730  0.13742  1.0000
  C   C68       1.0  0.03739  0.04638  0.21517  1.0000
  C   C69       1.0  0.08827  0.09690  0.20197  1.0000
  C   C70       1.0  0.17226  0.29479  0.42607  1.0000
  H   H103      1.0  0.05680  0.11134  0.18685  1.0000
  H   H104      1.0  0.05843  0.08929  0.17892  1.0000
  H   H105      1.0  0.01231  0.09487  0.19265  1.0000
  H   H106      1.0  0.02174  0.11484  0.18608  1.0000
  H   H107      1.0  0.04019  0.12198  0.22542  1.0000
  H   H108      1.0  0.04429  0.10527  0.25043  1.0000
  H   H109      1.0  0.04457  0.07620  0.23866  1.0000
  H   H110      1.0  0.02267  0.07777  0.23022  1.0000
  H   H111      1.0  0.04957  0.06392  0.18758  1.0000
  H   H112      1.0  0.02636  0.06405  0.18544  1.0000
  H   H113      1.0  0.08425  0.23667  0.06759  1.0000
  H   H114      1.0  0.07077  0.08339  0.22821  1.0000
  H   H115      1.0  0.01318  0.09960  0.25445  1.0000
  H   H116      1.0  0.10818  0.24940  0.20032  1.0000
  H   H117      1.0  0.03832  0.10504  0.14696  1.0000
  H   H118      1.0  0.03458  0.08292  0.15352  1.0000
  H   H119      1.0  0.01274  0.00600  0.36281  1.0000
  H   H120      1.0  0.06030  0.31361  0.13157  1.0000
  C   C71       1.0  0.04128  0.06605  0.43306  1.0000
  H   H121      1.0  0.03814  0.03586  0.19958  1.0000
  H   H122      1.0  0.04858  0.04491  0.22939  1.0000
  H   H123      1.0  0.02537  0.04518  0.22760  1.0000
  H   H124      1.0  0.08936  0.10948  0.19119  1.0000
  C   C72       1.0  0.08631  0.14921  0.38176  1.0000
  H   H125      1.0  0.11001  0.25624  0.14826  1.0000
  H   H126      1.0  0.11385  0.31357  0.10519  1.0000
  C   C73       1.0  0.10825  0.19042  0.40603  1.0000
  H   H127      1.0  0.99513  0.99043  0.25395  1.0000
  H   H128      1.0  0.19906  0.22411  0.23095  1.0000
  C   C74       1.0  0.21226  0.18342  0.21185  1.0000
  N   N4        1.0  0.19630  0.19917  0.11489  1.0000
  C   C75       1.0  0.10255  0.26852  0.15175  1.0000
  C   C76       1.0  0.17264  0.27556  0.42006  1.0000
  H   H129      1.0  0.19302  0.23775  0.26033  1.0000
  C   C77       1.0  0.19232  0.23779  0.16680  1.0000
  H   H130      1.0  0.19360  0.15323  0.31474  1.0000
  C   C78       1.0  0.21848  0.25417  0.06808  1.0000
  C   C79       1.0  0.11545  0.18425  0.43487  1.0000
  H   H131      1.0  0.20363  0.26131  0.46817  1.0000
  H   H132      1.0  0.18934  0.29034  0.46131  1.0000
  C   C80       1.0  0.18612  0.19671  0.08844  1.0000
  H   H133      1.0  0.20788  0.24504  0.23403  1.0000
  H   H134      1.0  0.22045  0.17101  0.10433  1.0000
  H   H135      1.0  0.02085  0.13777  0.25963  1.0000
  H   H136      1.0  0.08908  0.26279  0.20636  1.0000
  H   H137      1.0  0.16666  0.20351  0.04060  1.0000
  H   H138      1.0  0.21725  0.16749  0.29073  1.0000
  C   C81       1.0  0.07266  0.13928  0.39756  1.0000
  H   H139      1.0  0.12145  0.29718  0.14890  1.0000
  H   H140      1.0  0.10865  0.26688  0.22468  1.0000
  C   C82       1.0  0.04830  0.99931  0.45483  1.0000
  H   H141      1.0  0.19198  0.24799  0.15038  1.0000
  H   H142      1.0  0.01312  0.05391  0.00058  1.0000
  C   C83       1.0  0.01727  0.12513  0.26824  1.0000
  H   H143      1.0  0.05751  0.00977  0.45332  1.0000
  H   H144      1.0  0.21941  0.25314  0.09134  1.0000
  H   H145      1.0  0.21601  0.26780  0.06210  1.0000
  H   H146      1.0  0.20740  0.24679  0.06108  1.0000
  H   H147      1.0  0.02631  0.12126  0.28528  1.0000
  H   H148      1.0  0.17687  0.21735  0.13035  1.0000
  S   S23       1.0  0.99209  0.05346  0.25485  1.0000
  H   H149      1.0  0.09265  0.25545  0.05110  1.0000
  C   C84       1.0  0.01035  0.00929  0.27298  1.0000
  H   H150      1.0  0.01174  0.02179  0.40401  1.0000
  C   C85       1.0  0.20843  0.17533  0.30428  1.0000
  H   H151      1.0  0.10699  0.23986  0.06821  1.0000
  C   C86       1.0  0.12414  0.30340  0.10537  1.0000
  C   C87       1.0  0.02162  0.99515  0.36490  1.0000
  C   C88       1.0  0.09414  0.24647  0.06921  1.0000
  C   C89       1.0  0.10877  0.27473  0.18076  1.0000
  C   C90       1.0  0.23470  0.21625  0.31691  1.0000
  H   H152      1.0  0.99563  0.09555  0.45138  1.0000
  H   H153      1.0  0.20831  0.20117  0.26613  1.0000
  H   H154      1.0  0.22910  0.25885  0.43641  1.0000
  H   H155      1.0  0.00105  0.03554  0.42782  1.0000
  C   C91       1.0  0.21323  0.21063  0.28115  1.0000
  H   H156      1.0  0.11321  0.20974  0.45361  1.0000
  H   H157      1.0  0.20197  0.21510  0.29421  1.0000
  C   C92       1.0  0.14114  0.31211  0.10961  1.0000
  H   H158      1.0  0.00816  0.11603  0.22893  1.0000
  H   H159      1.0  0.00415  0.12641  0.27747  1.0000
  H   H160      1.0  0.01643  0.09486  0.11509  1.0000
  C   C93       1.0  0.02752  0.05263  0.43238  1.0000
  C   C94       1.0  0.23495  0.24713  0.05405  1.0000
  C   C95       1.0  0.21469  0.28310  0.00257  1.0000
  H   H161      1.0  0.18444  0.27163  0.40815  1.0000
  C   C96       1.0  0.18797  0.29966  0.44358  1.0000
  H   H162      1.0  0.22726  0.20039  0.18616  1.0000
  H   H163      1.0  0.13432  0.20387  0.44002  1.0000
  H   H164      1.0  0.23178  0.20759  0.36079  1.0000
  H   H165      1.0  0.98736  0.08903  0.23477  1.0000
  H   H166      1.0  0.22484  0.22654  0.32175  1.0000
  H   H167      1.0  0.15999  0.29802  0.43695  1.0000
  N   N5        1.0  0.22684  0.20233  0.29973  1.0000
  H   H168      1.0  0.99691  0.99663  0.43276  1.0000
  C   C97       1.0  0.21883  0.22604  0.26279  1.0000
  H   H169      1.0  0.22894  0.22203  0.24740  1.0000
  H   H170      1.0  0.98993  0.98855  0.30398  1.0000
  H   H171      1.0  0.22374  0.23646  0.27585  1.0000
  N   N6        1.0  0.02237  0.02054  0.44577  1.0000
  H   H172      1.0  0.23277  0.24706  0.03095  1.0000
  S   S24       1.0  0.14749  0.28737  0.98801  1.0000
  H   H173      1.0  0.02319  0.99271  0.44209  1.0000
  H   H174      1.0  0.99931  0.01632  0.28306  1.0000
  H   H175      1.0  0.22386  0.30286  0.44736  1.0000
  H   H176      1.0  0.06893  0.31188  0.04408  1.0000
  C   C98       1.0  0.98858  0.07662  0.42121  1.0000
  H   H177      1.0  0.01690  0.05704  0.44638  1.0000
  C   C99       1.0  0.22713  0.18821  0.19699  1.0000
  H   H178      1.0  0.05798  0.30766  0.47821  1.0000
  H   H179      1.0  0.23375  0.18477  0.26605  1.0000
  H   H180      1.0  0.09777  0.31285  0.15119  1.0000
  C   C100      1.0  0.01678  0.01984  0.47620  1.0000
  H   H181      1.0  0.00925  0.00821  0.48022  1.0000
  H   H182      1.0  0.16130  0.31808  0.46866  1.0000
  N   N7        1.0  0.18797  0.31769  0.45490  1.0000
  H   H183      1.0  0.04545  0.99681  0.47737  1.0000
  Fe  Fe12      1.0  0.03996  0.07659  0.81838  1.0000
  S   S25       1.0  0.01465  0.08727  0.80146  1.0000
  S   S26       1.0  0.06655  0.08900  0.82064  1.0000
  Fe  Fe13      1.0  0.02374  0.04204  0.83671  1.0000
  S   S27       1.0  0.99820  0.05078  0.81988  1.0000
  S   S28       1.0  0.02217  0.01816  0.86482  1.0000
  Fe  Fe14      1.0  0.01216  0.06105  0.78226  1.0000
  C   C101      1.0  0.99363  0.00520  0.94187  1.0000
  Fe  Fe15      1.0  0.00280  0.07575  0.84089  1.0000
  H   H184      1.0  0.04331  0.15600  0.69413  1.0000
  S   S29       1.0  0.03783  0.05065  0.79776  1.0000
  S   S30       1.0  0.02796  0.06688  0.85889  1.0000
  Fe  Fe16      1.0  0.16771  0.17137  0.75290  1.0000
  S   S31       1.0  0.16867  0.19900  0.76423  1.0000
  S   S32       1.0  0.19181  0.15711  0.73680  1.0000
  Fe  Fe17      1.0  0.12931  0.16916  0.77041  1.0000
  S   S33       1.0  0.12850  0.19707  0.78301  1.0000
  S   S34       1.0  0.10307  0.15610  0.77178  1.0000
  Fe  Fe18      1.0  0.14318  0.20169  0.74271  1.0000
  S   S35       1.0  0.13675  0.22474  0.71460  1.0000
  Fe  Fe19      1.0  0.15411  0.19173  0.80325  1.0000
  S   S36       1.0  0.16557  0.19852  0.84570  1.0000
  S   S37       1.0  0.14292  0.17434  0.72900  1.0000
  S   S38       1.0  0.15421  0.16359  0.79293  1.0000
  Fe  Fe20      1.0  0.14373  0.25013  0.54949  1.0000
  S   S39       1.0  0.15359  0.27644  0.55728  1.0000
  S   S40       1.0  0.14188  0.22752  0.58040  1.0000
  C   C102      1.0  0.04411  0.16752  0.70757  1.0000
  H   H185      1.0  0.21166  0.24964  0.87561  1.0000
  S   S41       1.0  0.13371  0.24964  0.93852  1.0000
  Fe  Fe21      1.0  0.17030  0.27146  0.51887  1.0000
  S   S42       1.0  0.19826  0.27945  0.52190  1.0000
  Fe  Fe22      1.0  0.13290  0.28628  0.52747  1.0000
  H   H186      1.0  0.17582  0.30874  0.49304  1.0000
  S   S43       1.0  0.16172  0.24461  0.51277  1.0000
  S   S44       1.0  0.12200  0.26011  0.52187  1.0000
  C   C103      1.0  0.14070  0.22727  0.61775  1.0000
  C   C104      1.0  0.13852  0.24222  0.63357  1.0000
  C   C105      1.0  0.13730  0.24124  0.66319  1.0000
  C   C106      1.0  0.13852  0.22537  0.67733  1.0000
  C   C107      1.0  0.14098  0.21045  0.66154  1.0000
  C   C108      1.0  0.14196  0.21140  0.63193  1.0000
  H   H187      1.0  0.13754  0.25452  0.62297  1.0000
  H   H188      1.0  0.13543  0.25288  0.67521  1.0000
  H   H189      1.0  0.14198  0.19821  0.67219  1.0000
  H   H190      1.0  0.14367  0.19977  0.61986  1.0000
  C   C109      1.0  0.15647  0.21270  0.87134  1.0000
  C   C110      1.0  0.16523  0.21502  0.89673  1.0000
  C   C111      1.0  0.15853  0.22628  0.91755  1.0000
  C   C112      1.0  0.14292  0.23528  0.91321  1.0000
  C   C113      1.0  0.13412  0.23281  0.88789  1.0000
  C   C114      1.0  0.14087  0.22165  0.86702  1.0000
  H   H191      1.0  0.17728  0.20812  0.90032  1.0000
  H   H192      1.0  0.16540  0.22801  0.93692  1.0000
  H   H193      1.0  0.12209  0.23977  0.88430  1.0000
  H   H194      1.0  0.13412  0.22015  0.84748  1.0000
  C   C115      1.0  0.17376  0.17091  0.65834  1.0000
  H   H195      1.0  0.00144  0.00983  0.76656  1.0000
  C   C116      1.0  0.22702  0.19375  0.72454  1.0000
  S   S45       1.0  0.15046  0.28300  0.48972  1.0000
  H   H196      1.0  0.21093  0.21155  0.90461  1.0000
  H   H197      1.0  0.13695  0.15602  0.66863  1.0000
  N   N8        1.0  0.10193  0.17050  0.86544  1.0000
  C   C117      1.0  0.21157  0.18557  0.72987  1.0000
  C   C118      1.0  0.21119  0.16771  0.73023  1.0000
  H   H198      1.0  0.00676  0.07818  0.91113  1.0000
  H   H199      1.0  0.19989  0.19310  0.73335  1.0000
  H   H200      1.0  0.10728  0.20660  0.59668  1.0000
  H   H201      1.0  0.09027  0.21191  0.76977  1.0000
  C   C119      1.0  0.09335  0.13718  0.78536  1.0000
  C   C120      1.0  0.10219  0.12502  0.80212  1.0000
  C   C121      1.0  0.09377  0.11049  0.81265  1.0000
  C   C122      1.0  0.07641  0.10772  0.80653  1.0000
  C   C123      1.0  0.06758  0.11990  0.78981  1.0000
  C   C124      1.0  0.07595  0.13450  0.77946  1.0000
  H   H202      1.0  0.11555  0.12672  0.80685  1.0000
  H   H203      1.0  0.10083  0.10122  0.82546  1.0000
  H   H204      1.0  0.05425  0.11809  0.78487  1.0000
  H   H205      1.0  0.06887  0.14375  0.76665  1.0000
  C   C125      1.0  0.10953  0.19239  0.90460  1.0000
  C   C126      1.0  0.07528  0.17092  0.69372  1.0000
  H   H206      1.0  0.04985  0.29978  0.61907  1.0000
  H   H207      1.0  0.21217  0.21540  0.60063  1.0000
  H   H208      1.0  0.08253  0.22470  0.83185  1.0000
  H   H209      1.0  0.21114  0.23307  0.62394  1.0000
  H   H210      1.0  0.07914  0.20716  0.69451  1.0000
  H   H211      1.0  0.19854  0.23788  0.56672  1.0000
  C   C127      1.0  0.20255  0.21886  0.67038  1.0000
  H   H212      1.0  0.08019  0.18886  0.74076  1.0000
  C   C128      1.0  0.04693  0.30475  0.64049  1.0000
  H   H213      1.0  0.20403  0.20994  0.68848  1.0000
  H   H214      1.0  0.21316  0.23518  0.50425  1.0000
  Fe  Fe23      1.0  0.14083  0.25641  0.48578  1.0000
  H   H215      1.0  0.22637  0.14429  0.72529  1.0000
  S   S46       1.0  0.11955  0.31330  0.52797  1.0000
  H   H216      1.0  0.98941  0.03790  0.68909  1.0000
  H   H217      1.0  0.20641  0.31140  0.48765  1.0000
  H   H218      1.0  0.16136  0.15460  0.86721  1.0000
  H   H219      1.0  0.11593  0.19245  0.85072  1.0000
  C   C129      1.0  0.05032  0.00595  0.92809  1.0000
  H   H220      1.0  0.22153  0.19012  0.66230  1.0000
  C   C130      1.0  0.99455  0.06174  0.70943  1.0000
  H   H221      1.0  0.12288  0.19266  0.89662  1.0000
  H   H222      1.0  0.10685  0.18051  0.82385  1.0000
  C   C131      1.0  0.18693  0.18420  0.66539  1.0000
  C   C132      1.0  0.09093  0.19630  0.73230  1.0000
  C   C133      1.0  0.10431  0.18536  0.84554  1.0000
  H   H223      1.0  0.17862  0.16251  0.64105  1.0000
  C   C134      1.0  0.18972  0.19664  0.64021  1.0000
  C   C135      1.0  0.23226  0.19431  0.84564  1.0000
  H   H224      1.0  0.01371  0.00907  0.79874  1.0000
  H   H225      1.0  0.11695  0.15275  0.83968  1.0000
  H   H226      1.0  0.08152  0.19929  0.86375  1.0000
  H   H227      1.0  0.02810  0.01841  0.49017  1.0000
  H   H228      1.0  0.05063  0.99182  0.93089  1.0000
  H   H229      1.0  0.10455  0.16530  0.91009  1.0000
  H   H230      1.0  0.07627  0.00617  0.91309  1.0000
  H   H231      1.0  0.23140  0.25503  0.95417  1.0000
  H   H232      1.0  0.08645  0.17843  0.90173  1.0000
  C   C136      1.0  0.22652  0.15814  0.72515  1.0000
  H   H233      1.0  0.05702  0.19117  0.70923  1.0000
  H   H234      1.0  0.01364  0.04307  0.95099  1.0000
  H   H235      1.0  0.08366  0.17486  0.64054  1.0000
  H   H236      1.0  0.00636  0.99755  0.98166  1.0000
  H   H237      1.0  0.05322  0.01192  0.94857  1.0000
  H   H238      1.0  0.09101  0.13431  0.86406  1.0000
  C   C137      1.0  0.03998  0.99056  0.83994  1.0000
  H   H239      1.0  0.05423  0.14825  0.87492  1.0000
  H   H240      1.0  0.05928  0.30647  0.65142  1.0000
  H   H241      1.0  0.04629  0.99978  0.82672  1.0000
  H   H242      1.0  0.21325  0.22779  0.67226  1.0000
  S   S47       1.0  0.00273  0.05118  0.74006  1.0000
  C   C138      1.0  0.21637  0.27596  0.49937  1.0000
  C   C139      1.0  0.22129  0.20404  0.89357  1.0000
  H   H243      1.0  0.03939  0.29513  0.65208  1.0000
  C   C140      1.0  0.09410  0.21627  0.83528  1.0000
  C   C141      1.0  0.08580  0.16182  0.85668  1.0000
  H   H244      1.0  0.10178  0.20552  0.69382  1.0000
  C   C142      1.0  0.10104  0.19599  0.63764  1.0000
  H   H245      1.0  0.19882  0.17696  0.67131  1.0000
  H   H246      1.0  0.07794  0.22092  0.74112  1.0000
  H   H247      1.0  0.17739  0.23110  0.62036  1.0000
  C   C143      1.0  0.23199  0.28314  0.50670  1.0000
  H   H248      1.0  0.09920  0.14630  0.67385  1.0000
  H   H249      1.0  0.20406  0.26268  0.97906  1.0000
  H   H250      1.0  0.08616  0.15917  0.83362  1.0000
  N   N9        1.0  0.07585  0.03695  0.87925  1.0000
  C   C144      1.0  0.06306  0.03047  0.90051  1.0000
  C   C145      1.0  0.07375  0.05622  0.87588  1.0000
  C   C146      1.0  0.07196  0.02882  0.85131  1.0000
  C   C147      1.0  0.09407  0.03176  0.88682  1.0000
  C   C148      1.0  0.10038  0.03751  0.91591  1.0000
  C   C149      1.0  0.06348  0.01082  0.90568  1.0000
  C   C150      1.0  0.08127  0.03617  0.82502  1.0000
  C   C151      1.0  0.06833  0.06673  0.90240  1.0000
  C   C152      1.0  0.06908  0.08599  0.89694  1.0000
  C   C153      1.0  0.11793  0.02919  0.92261  1.0000
  C   C154      1.0  0.11009  0.19425  0.93654  1.0000
  C   C155      1.0  0.07878  0.02491  0.79928  1.0000
  H   H251      1.0  0.04981  0.03445  0.89394  1.0000
  H   H252      1.0  0.06464  0.03641  0.92137  1.0000
  H   H253      1.0  0.08566  0.06161  0.86684  1.0000
  H   H254      1.0  0.06365  0.05950  0.86020  1.0000
  H   H255      1.0  0.05792  0.02998  0.84700  1.0000
  H   H256      1.0  0.07522  0.01484  0.85190  1.0000
  H   H257      1.0  0.09614  0.01763  0.88528  1.0000
  H   H258      1.0  0.10322  0.03708  0.87131  1.0000
  H   H259      1.0  0.10187  0.21599  0.81565  1.0000
  H   H260      1.0  0.10195  0.05156  0.91578  1.0000
  H   H261      1.0  0.23366  0.21015  0.89741  1.0000
  H   H262      1.0  0.09150  0.03398  0.93313  1.0000
  H   H263      1.0  0.09525  0.03697  0.82820  1.0000
  H   H264      1.0  0.07609  0.04923  0.81985  1.0000
  H   H265      1.0  0.05486  0.06408  0.90836  1.0000
  H   H266      1.0  0.07648  0.06356  0.92073  1.0000
  H   H267      1.0  0.06592  0.09306  0.91660  1.0000
  H   H268      1.0  0.08208  0.08946  0.88966  1.0000
  H   H269      1.0  0.05954  0.09007  0.88080  1.0000
  C   C156      1.0  0.09661  0.19977  0.60692  1.0000
  H   H270      1.0  0.11715  0.01503  0.92378  1.0000
  H   H271      1.0  0.11731  0.18049  0.68321  1.0000
  H   H272      1.0  0.11635  0.20636  0.94188  1.0000
  C   C157      1.0  0.10632  0.17207  0.68706  1.0000
  H   H273      1.0  0.09111  0.30323  0.56556  1.0000
  H   H274      1.0  0.08521  0.01212  0.80239  1.0000
  H   H275      1.0  0.06494  0.02320  0.79533  1.0000
  H   H276      1.0  0.08448  0.03104  0.78040  1.0000
  H   H277      1.0  0.19369  0.25313  0.59448  1.0000
  C   C158      1.0  0.12657  0.14716  0.67394  1.0000
  H   H278      1.0  0.22144  0.18997  0.62492  1.0000
  N   N10       1.0  0.20399  0.20908  0.64321  1.0000
  H   H279      1.0  0.12755  0.03261  0.90630  1.0000
  H   H280      1.0  0.07432  0.17045  0.86012  1.0000
  H   H281      1.0  0.03123  0.17405  0.70847  1.0000
  H   H282      1.0  0.17673  0.24488  0.57380  1.0000
  C   C159      1.0  0.21925  0.25930  0.88655  1.0000
  C   C160      1.0  0.21324  0.18089  0.81056  1.0000
  H   H283      1.0  0.23646  0.21731  0.80797  1.0000
  C   C161      1.0  0.10898  0.15581  0.66872  1.0000
  H   H284      1.0  0.12236  0.03381  0.94328  1.0000
  H   H285      1.0  0.21584  0.21699  0.85476  1.0000
  C   C162      1.0  0.21293  0.16319  0.82558  1.0000
  C   C163      1.0  0.18927  0.24156  0.58365  1.0000
  C   C164      1.0  0.20995  0.21638  0.79448  1.0000
  C   C165      1.0  0.21114  0.23427  0.78155  1.0000
  C   C166      1.0  0.18710  0.22684  0.60460  1.0000
  C   C167      1.0  0.19557  0.15507  0.82214  1.0000
  C   C168      1.0  0.18436  0.23616  0.70524  1.0000
  H   H286      1.0  0.21144  0.17861  0.78770  1.0000
  H   H287      1.0  0.20144  0.18815  0.81731  1.0000
  H   H288      1.0  0.06198  0.12622  0.87550  1.0000
  H   H289      1.0  0.21515  0.16436  0.84847  1.0000
  H   H290      1.0  0.17438  0.22252  0.67063  1.0000
  H   H291      1.0  0.11320  0.18821  0.63773  1.0000
  H   H292      1.0  0.17143  0.16278  0.67718  1.0000
  H   H293      1.0  0.00480  0.07473  0.96297  1.0000
  H   H294      1.0  0.20513  0.19706  0.85984  1.0000
  H   H295      1.0  0.13826  0.17451  0.85385  1.0000
  H   H296      1.0  0.21850  0.27158  0.87461  1.0000
  H   H297      1.0  0.10824  0.15892  0.64596  1.0000
  H   H298      1.0  0.18208  0.19139  0.68408  1.0000
  H   H299      1.0  0.02406  0.01346  0.76557  1.0000
  H   H300      1.0  0.20253  0.20865  0.77978  1.0000
  H   H301      1.0  0.20256  0.21752  0.81440  1.0000
  H   H302      1.0  0.21799  0.23364  0.76095  1.0000
  H   H303      1.0  0.19800  0.23981  0.77801  1.0000
  H   H304      1.0  0.21794  0.24283  0.79591  1.0000
  H   H305      1.0  0.07970  0.19382  0.82740  1.0000
  H   H306      1.0  0.07402  0.15971  0.67969  1.0000
  H   H307      1.0  0.16142  0.17720  0.65195  1.0000
  H   H308      1.0  0.19569  0.14237  0.83279  1.0000
  H   H309      1.0  0.18522  0.16331  0.83174  1.0000
  H   H310      1.0  0.19281  0.15320  0.79951  1.0000
  C   C169      1.0  0.08642  0.18649  0.65286  1.0000
  C   C170      1.0  0.08208  0.14466  0.87183  1.0000
  H   H311      1.0  0.06910  0.31294  0.50982  1.0000
  H   H312      1.0  0.23278  0.29023  0.52608  1.0000
  H   H313      1.0  0.05274  0.18385  0.67427  1.0000
  H   H314      1.0  0.18361  0.22515  0.72007  1.0000
  N   N11       1.0  0.08954  0.18196  0.68336  1.0000
  H   H315      1.0  0.08478  0.20809  0.60547  1.0000
  H   H316      1.0  0.19184  0.18892  0.62077  1.0000
  H   H317      1.0  0.98877  0.02199  0.51439  1.0000
  C   C171      1.0  0.09019  0.19836  0.69985  1.0000
  C   C172      1.0  0.23102  0.26537  0.96914  1.0000
  H   H318      1.0  0.10114  0.22142  0.74028  1.0000
  H   H319      1.0  0.18184  0.21595  0.59291  1.0000
  H   H320      1.0  0.07469  0.19494  0.65088  1.0000
  C   C173      1.0  0.20447  0.22123  0.61821  1.0000
  H   H321      1.0  0.17714  0.20339  0.63715  1.0000
  H   H322      1.0  0.23305  0.20589  0.77672  1.0000
  C   C174      1.0  0.10018  0.17596  0.89589  1.0000
  H   H323      1.0  0.14767  0.14360  0.84349  1.0000
  Fe  Fe24      1.0  0.14323  0.25925  0.98097  1.0000
  H   H324      1.0  0.12820  0.13562  0.66056  1.0000
  H   H325      1.0  0.10328  0.20843  0.64780  1.0000
  H   H326      1.0  0.12775  0.14309  0.69633  1.0000
  H   H327      1.0  0.04771  0.16344  0.72924  1.0000
  C   C175      1.0  0.09001  0.21375  0.74663  1.0000
  H   H328      1.0  0.19549  0.24392  0.71070  1.0000
  H   H329      1.0  0.09476  0.18770  0.59531  1.0000
  H   H330      1.0  0.13562  0.16811  0.89033  1.0000
  H   H331      1.0  0.17243  0.24424  0.70769  1.0000
  H   H332      1.0  0.99778  0.08750  0.72365  1.0000
  H   H333      1.0  0.06033  0.00384  0.88629  1.0000
  C   C176      1.0  0.99829  0.03218  0.51597  1.0000
  H   H334      1.0  0.07842  0.16523  0.71474  1.0000
  C   C177      1.0  0.22801  0.20776  0.79852  1.0000
  C   C178      1.0  0.13483  0.16392  0.86820  1.0000
  H   H335      1.0  0.18593  0.24132  0.66101  1.0000
  C   C179      1.0  0.18589  0.22985  0.67491  1.0000
  C   C180      1.0  0.98839  0.05172  0.68747  1.0000
  H   H336      1.0  0.10314  0.18969  0.73850  1.0000
  H   H337      1.0  0.10766  0.16768  0.70930  1.0000
  C   C181      1.0  0.22188  0.22465  0.51194  1.0000
  C   C182      1.0  0.11672  0.15767  0.86169  1.0000
  C   C183      1.0  0.05718  0.17977  0.69548  1.0000
  C   C184      1.0  0.08907  0.31658  0.55991  1.0000
  C   C185      1.0  0.99808  0.99201  0.96549  1.0000
  C   C186      1.0  0.14839  0.14944  0.86465  1.0000
  H   H338      1.0  0.11507  0.14637  0.87567  1.0000
  H   H339      1.0  0.01503  0.04656  0.48974  1.0000
  C   C187      1.0  0.01398  0.00591  0.77598  1.0000
  C   C188      1.0  0.99312  0.07960  0.70697  1.0000
  C   C189      1.0  0.08872  0.19829  0.84355  1.0000
  H   H340      1.0  0.22045  0.21339  0.49813  1.0000
  C   C190      1.0  0.99437  0.07885  0.92150  1.0000
  C   C191      1.0  0.99321  0.07688  0.95097  1.0000
  H   H341      1.0  0.02009  0.02212  0.96381  1.0000
  H   H342      1.0  0.14657  0.13932  0.88082  1.0000
  C   C192      1.0  0.21744  0.20354  0.86211  1.0000
  C   C193      1.0  0.99330  0.03005  0.97446  1.0000
  H   H343      1.0  0.09691  0.19473  0.94563  1.0000
  H   H344      1.0  0.21790  0.22130  0.53372  1.0000
  H   H345      1.0  0.10921  0.31544  0.95969  1.0000
  H   H346      1.0  0.22712  0.20759  0.72424  1.0000
  C   C194      1.0  0.06391  0.13902  0.86589  1.0000
  H   H347      1.0  0.08353  0.14577  0.89495  1.0000
  H   H348      1.0  0.21345  0.26157  0.90771  1.0000
  H   H349      1.0  0.00568  0.00832  0.93048  1.0000
  H   H350      1.0  0.10269  0.20399  0.89620  1.0000
  C   C195      1.0  0.02737  0.99614  0.85921  1.0000
  H   H351      1.0  0.99577  0.03628  0.91794  1.0000
  H   H352      1.0  0.03721  0.01014  0.92147  1.0000
  H   H353      1.0  0.11764  0.18343  0.94613  1.0000
  H   H354      1.0  0.10173  0.22187  0.85231  1.0000
  C   C196      1.0  0.01788  0.98676  0.77166  1.0000
  H   H355      1.0  0.06185  0.13803  0.84287  1.0000
  C   C197      1.0  0.22071  0.19863  0.64349  1.0000
  H   H356      1.0  0.22181  0.19086  0.90256  1.0000
  H   H357      1.0  0.00824  0.02828  0.53154  1.0000
  C   C198      1.0  0.00640  0.03570  0.48721  1.0000
  H   H358      1.0  0.00963  0.98811  0.89121  1.0000
  C   C199      1.0  0.01239  0.03392  0.96877  1.0000
  H   H359      1.0  0.22275  0.15418  0.81644  1.0000
  N   N12       1.0  0.22913  0.19104  0.81489  1.0000
  H   H360      1.0  0.23578  0.18214  0.85681  1.0000
  H   H361      1.0  0.99144  0.04399  0.52363  1.0000
  C   C200      1.0  0.06373  0.31826  0.48991  1.0000
  C   C201      1.0  0.21548  0.26965  0.98328  1.0000
  Fe  Fe25      1.0  0.02160  0.42065  0.08085  1.0000
  C   C202      1.0  0.99230  0.57363  0.04933  1.0000
  S   S48       1.0  0.01596  0.44962  0.08435  1.0000
  Fe  Fe26      1.0  0.04087  0.38474  0.07781  1.0000
  S   S49       1.0  0.01683  0.37152  0.06592  1.0000
  S   S50       1.0  0.06809  0.37175  0.07920  1.0000
  Fe  Fe27      1.0  0.01199  0.39375  0.03585  1.0000
  H   H362      1.0  0.06869  0.37164  0.01869  1.0000
  Fe  Fe28      1.0  0.00386  0.38827  0.09941  1.0000
  C   C203      1.0  0.00322  0.47426  0.17490  1.0000
  S   S51       1.0  0.03643  0.40648  0.04687  1.0000
  S   S52       1.0  0.02810  0.40025  0.11332  1.0000
  Fe  Fe29      1.0  0.00850  0.56804  0.18032  1.0000
  S   S53       1.0  0.03529  0.55797  0.18865  1.0000
  C   C204      1.0  0.00525  0.48989  0.19359  1.0000
  Fe  Fe30      1.0  0.01560  0.57200  0.11694  1.0000
  S   S54       1.0  0.04315  0.56238  0.12087  1.0000
  H   H363      1.0  0.11656  0.63821  0.07970  1.0000
  Fe  Fe31      1.0  0.03243  0.54211  0.14950  1.0000
  S   S55       1.0  0.04206  0.51413  0.15193  1.0000
  Fe  Fe32      1.0  0.04433  0.57903  0.15956  1.0000
  S   S56       1.0  0.06921  0.59272  0.17103  1.0000
  S   S57       1.0  0.00499  0.55075  0.14319  1.0000
  S   S58       1.0  0.01750  0.59002  0.15372  1.0000
  C   C205      1.0  0.04128  0.33909  0.46931  1.0000
  C   C206      1.0  0.07812  0.61340  0.17498  1.0000
  C   C207      1.0  0.09545  0.61439  0.18285  1.0000
  C   C208      1.0  0.10304  0.63034  0.18709  1.0000
  H   H364      1.0  0.98953  0.45598  0.13094  1.0000
  C   C209      1.0  0.01612  0.35517  0.45040  1.0000
  C   C210      1.0  0.06847  0.62872  0.17147  1.0000
  H   H365      1.0  0.10309  0.60268  0.18573  1.0000
  C   C211      1.0  0.20508  0.31999  0.46888  1.0000
  H   H366      1.0  0.05518  0.62830  0.16533  1.0000
  H   H367      1.0  0.02063  0.44530  0.20258  1.0000
  H   H368      1.0  0.99888  0.53192  0.32277  1.0000
  C   C212      1.0  0.00683  0.35079  0.39988  1.0000
  C   C213      1.0  0.99743  0.38815  0.18135  1.0000
  C   C214      1.0  0.09337  0.64566  0.18377  1.0000
  H   H369      1.0  0.01190  0.57304  0.25287  1.0000
  C   C215      1.0  0.99956  0.57317  0.26336  1.0000
  C   C216      1.0  0.07784  0.35190  0.06717  1.0000
  C   C217      1.0  0.06825  0.33789  0.05948  1.0000
  C   C218      1.0  0.99663  0.51882  0.36227  1.0000
  H   H370      1.0  0.11151  0.32821  0.99066  1.0000
  C   C219      1.0  0.10421  0.33483  0.05581  1.0000
  C   C220      1.0  0.09588  0.35014  0.06547  1.0000
  H   H371      1.0  0.05440  0.33885  0.06097  1.0000
  H   H372      1.0  0.11806  0.33387  0.05442  1.0000
  H   H373      1.0  0.10352  0.36079  0.07148  1.0000
  C   C221      1.0  0.02388  0.46734  0.10293  1.0000
  C   C222      1.0  0.01574  0.48356  0.09907  1.0000
  C   C223      1.0  0.02124  0.49803  0.11360  1.0000
  C   C224      1.0  0.03501  0.49645  0.13223  1.0000
  C   C225      1.0  0.04314  0.48022  0.13612  1.0000
  C   C226      1.0  0.03762  0.46573  0.12157  1.0000
  H   H374      1.0  0.00513  0.48497  0.08464  1.0000
  H   H375      1.0  0.01487  0.51041  0.11036  1.0000
  H   H376      1.0  0.05379  0.47885  0.15048  1.0000
  H   H377      1.0  0.04404  0.45337  0.12471  1.0000
  H   H378      1.0  0.00826  0.34373  0.45372  1.0000
  H   H379      1.0  0.01376  0.49906  0.18299  1.0000
  H   H380      1.0  0.01605  0.54108  0.26028  1.0000
  S   S59       1.0  0.99695  0.40902  0.06799  1.0000
  C   C227      1.0  0.07673  0.40538  0.00919  1.0000
  H   H381      1.0  0.03239  0.38268  0.46526  1.0000
  N   N13       1.0  0.04752  0.60916  0.25335  1.0000
  C   C228      1.0  0.06388  0.61896  0.25294  1.0000
  C   C229      1.0  0.05098  0.59099  0.24318  1.0000
  C   C230      1.0  0.03523  0.61805  0.23311  1.0000
  C   C231      1.0  0.03912  0.60915  0.28208  1.0000
  C   C232      1.0  0.05015  0.60205  0.30668  1.0000
  H   H382      1.0  0.17471  0.35934  0.40016  1.0000
  C   C233      1.0  0.01207  0.53036  0.24694  1.0000
  C   C234      1.0  0.06902  0.58263  0.24905  1.0000
  C   C235      1.0  0.06993  0.56375  0.24082  1.0000
  H   H383      1.0  0.03240  0.34564  0.41508  1.0000
  C   C236      1.0  0.00123  0.51811  0.26414  1.0000
  H   H384      1.0  0.00714  0.36644  0.45325  1.0000
  H   H385      1.0  0.06981  0.61829  0.23155  1.0000
  H   H386      1.0  0.07364  0.61299  0.26710  1.0000
  H   H387      1.0  0.04115  0.58232  0.25167  1.0000
  H   H388      1.0  0.04964  0.59035  0.21994  1.0000
  H   H389      1.0  0.23618  0.33811  0.46458  1.0000
  H   H390      1.0  0.01119  0.48600  0.21391  1.0000
  H   H391      1.0  0.05135  0.34058  0.45277  1.0000
  H   H392      1.0  0.02758  0.60122  0.28201  1.0000
  H   H393      1.0  0.00295  0.42277  0.15899  1.0000
  H   H394      1.0  0.05299  0.58817  0.30378  1.0000
  H   H395      1.0  0.03418  0.62224  0.28766  1.0000
  H   H396      1.0  0.01067  0.60748  0.24753  1.0000
  H   H397      1.0  0.01352  0.62206  0.18760  1.0000
  H   H398      1.0  0.06229  0.60887  0.30858  1.0000
  H   H399      1.0  0.07893  0.58912  0.23631  1.0000
  H   H400      1.0  0.07258  0.58348  0.27144  1.0000
  H   H401      1.0  0.06827  0.56247  0.21775  1.0000
  H   H402      1.0  0.08273  0.55803  0.24627  1.0000
  H   H403      1.0  0.05994  0.55652  0.25208  1.0000
  H   H404      1.0  0.01612  0.46820  0.17161  1.0000
  H   H405      1.0  0.07003  0.32892  0.15408  1.0000
  C   C237      1.0  0.02576  0.33946  0.00623  1.0000
  H   H406      1.0  0.03759  0.61774  0.33925  1.0000
  H   H407      1.0  0.03151  0.36392  0.98867  1.0000
  H   H408      1.0  0.04656  0.37002  0.44380  1.0000
  H   H409      1.0  0.15874  0.32597  0.42043  1.0000
  H   H410      1.0  0.04848  0.59851  0.35198  1.0000
  H   H411      1.0  0.06105  0.33862  0.00345  1.0000
  H   H412      1.0  0.17616  0.34757  0.48142  1.0000
  H   H413      1.0  0.01063  0.42541  0.21010  1.0000
  H   H414      1.0  0.02050  0.59621  0.21835  1.0000
  H   H415      1.0  0.03164  0.32939  0.02009  1.0000
  H   H416      1.0  0.99952  0.50668  0.25096  1.0000
  C   C238      1.0  0.04086  0.37088  0.46528  1.0000
  C   C239      1.0  0.02172  0.35511  0.41898  1.0000
  S   S60       1.0  0.00248  0.58366  0.07792  1.0000
  H   H417      1.0  0.99160  0.50093  0.31376  1.0000
  H   H418      1.0  0.00875  0.39301  0.22172  1.0000
  C   C240      1.0  0.00518  0.43571  0.16758  1.0000
  H   H419      1.0  0.00873  0.51420  0.28297  1.0000
  H   H420      1.0  0.04165  0.61976  0.21225  1.0000
  H   H421      1.0  0.09645  0.61622  0.09486  1.0000
  C   C241      1.0  0.17429  0.31944  0.47748  1.0000
  H   H422      1.0  0.00188  0.52967  0.37401  1.0000
  C   C242      1.0  0.98869  0.52550  0.33486  1.0000
  H   H423      1.0  0.02591  0.36802  0.41256  1.0000
  H   H424      1.0  0.08349  0.63204  0.11349  1.0000
  H   H425      1.0  0.99753  0.54774  0.06316  1.0000
  C   C243      1.0  0.01700  0.43295  0.19344  1.0000
  H   H426      1.0  0.02384  0.52348  0.23902  1.0000
  H   H427      1.0  0.21981  0.32283  0.42909  1.0000
  H   H428      1.0  0.99499  0.61242  0.20317  1.0000
  H   H429      1.0  0.01007  0.57546  0.30505  1.0000
  C   C244      1.0  0.06674  0.37584  0.99650  1.0000
  H   H430      1.0  0.00955  0.38785  0.17012  1.0000
  H   H431      1.0  0.01268  0.44223  0.15084  1.0000
  H   H432      1.0  0.03088  0.41034  0.17714  1.0000
  C   C245      1.0  0.03816  0.35391  0.00137  1.0000
  H   H433      1.0  0.09520  0.64322  0.06796  1.0000
  H   H434      1.0  0.07696  0.40148  0.03174  1.0000
  H   H435      1.0  0.99580  0.36001  0.40306  1.0000
  C   C246      1.0  0.16689  0.34788  0.39734  1.0000
  C   C247      1.0  0.16716  0.33679  0.42397  1.0000
  N   N14       1.0  0.98827  0.44522  0.17294  1.0000
  C   C248      1.0  0.99848  0.57449  0.29294  1.0000
  H   H436      1.0  0.01042  0.41034  0.42914  1.0000
  H   H437      1.0  0.10515  0.62675  0.12482  1.0000
  H   H438      1.0  0.15349  0.35226  0.39275  1.0000
  C   C249      1.0  0.98793  0.39699  0.41692  1.0000
  H   H439      1.0  0.05381  0.38226  0.99642  1.0000
  C   C250      1.0  0.06429  0.39105  0.47792  1.0000
  H   H440      1.0  0.20582  0.33325  0.47703  1.0000
  C   C251      1.0  0.07990  0.38984  0.99027  1.0000
  C   C252      1.0  0.06220  0.63819  0.26073  1.0000
  C   C253      1.0  0.07602  0.64468  0.17599  1.0000
  H   H441      1.0  0.01097  0.35156  0.37750  1.0000
  H   H442      1.0  0.03152  0.63112  0.24064  1.0000
  H   H443      1.0  0.03352  0.32835  0.46182  1.0000
  H   H444      1.0  0.21391  0.63690  0.24412  1.0000
  H   H445      1.0  0.00723  0.50931  0.35788  1.0000
  H   H446      1.0  0.99647  0.43368  0.39144  1.0000
  H   H447      1.0  0.00484  0.53556  0.22852  1.0000
  H   H448      1.0  0.04198  0.42164  0.20390  1.0000
  H   H449      1.0  0.08723  0.63974  0.28066  1.0000
  H   H450      1.0  0.11635  0.63076  0.19320  1.0000
  H   H451      1.0  0.98996  0.46557  0.02195  1.0000
  C   C254      1.0  0.00669  0.61958  0.20774  1.0000
  N   N15       1.0  0.03038  0.35543  0.47173  1.0000
  C   C255      1.0  0.01813  0.60903  0.22780  1.0000
  H   H452      1.0  0.02827  0.59710  0.33426  1.0000
  H   H453      1.0  0.08726  0.64431  0.24330  1.0000
  H   H454      1.0  0.01388  0.34467  0.01659  1.0000
  H   H455      1.0  0.99266  0.49656  0.19753  1.0000
  C   C256      1.0  0.09673  0.62857  0.10623  1.0000
  C   C257      1.0  0.99693  0.40104  0.46565  1.0000
  H   H456      1.0  0.06638  0.36377  0.48157  1.0000
  H   H457      1.0  0.07725  0.32674  0.11820  1.0000
  C   C258      1.0  0.05509  0.34721  0.98728  1.0000
  C   C259      1.0  0.99069  0.46165  0.18859  1.0000
  C   C260      1.0  0.04048  0.60400  0.33469  1.0000
  H   H458      1.0  0.00256  0.33762  0.40424  1.0000
  H   H459      1.0  0.07444  0.32349  0.47735  1.0000
  C   C261      1.0  0.18581  0.33083  0.43156  1.0000
  H   H460      1.0  0.04067  0.43042  0.16875  1.0000
  H   H461      1.0  0.17193  0.34042  0.37905  1.0000
  H   H462      1.0  0.00269  0.63201  0.21742  1.0000
  C   C262      1.0  0.99693  0.39102  0.21064  1.0000
  C   C263      1.0  0.03363  0.42324  0.18520  1.0000
  H   H463      1.0  0.05520  0.64557  0.24411  1.0000
  H   H464      1.0  0.99002  0.39892  0.39459  1.0000
  C   C264      1.0  0.10357  0.64246  0.08677  1.0000
  H   H465      1.0  0.19223  0.32597  0.41200  1.0000
  H   H466      1.0  0.13940  0.64761  0.10123  1.0000
  S   S61       1.0  0.00957  0.39388  0.98764  1.0000
  C   C265      1.0  0.22037  0.64892  0.24485  1.0000
  H   H467      1.0  0.16946  0.65040  0.08640  1.0000
  H   H468      1.0  0.05475  0.40180  0.48106  1.0000
  C   C266      1.0  0.07657  0.32255  0.04999  1.0000
  H   H469      1.0  0.14321  0.32135  0.09213  1.0000
  C   C267      1.0  0.99130  0.55585  0.04748  1.0000
  H   H470      1.0  0.19253  0.34274  0.43677  1.0000
  H   H471      1.0  0.05542  0.64008  0.28112  1.0000
  C   C268      1.0  0.99273  0.45829  0.00233  1.0000
  H   H472      1.0  0.04097  0.35946  0.02219  1.0000
  H   H473      1.0  0.98774  0.57465  0.47544  1.0000
  H   H474      1.0  0.06906  0.39128  0.45583  1.0000
  H   H475      1.0  0.99832  0.47890  0.15427  1.0000
  H   H476      1.0  0.09316  0.38489  0.99441  1.0000
  C   C269      1.0  0.07255  0.31960  0.13687  1.0000
  C   C270      1.0  0.09460  0.32088  0.04788  1.0000
  H   H477      1.0  0.08690  0.41474  0.00552  1.0000
  H   H478      1.0  0.16126  0.34460  0.44113  1.0000
  H   H479      1.0  0.99483  0.45891  0.21058  1.0000
  H   H480      1.0  0.06415  0.41178  0.00434  1.0000
  C   C271      1.0  0.99949  0.40339  0.43656  1.0000
  H   H481      1.0  0.08927  0.35108  0.00222  1.0000
  H   H482      1.0  0.00618  0.45311  0.00329  1.0000
  C   C272      1.0  0.07985  0.64592  0.26323  1.0000
  H   H483      1.0  0.02219  0.33373  0.98589  1.0000
  H   H484      1.0  0.14097  0.31922  0.12976  1.0000
  Fe  Fe33      1.0  0.03630  0.42087  0.58308  1.0000
  S   S62       1.0  0.00861  0.42231  0.57097  1.0000
  S   S63       1.0  0.05030  0.44551  0.59097  1.0000
  Fe  Fe34      1.0  0.03966  0.38143  0.57418  1.0000
  S   S64       1.0  0.01182  0.38084  0.56179  1.0000
  S   S65       1.0  0.05269  0.35442  0.57698  1.0000
  Fe  Fe35      1.0  0.01643  0.40437  0.53585  1.0000
  H   H485      1.0  0.10123  0.59504  0.56605  1.0000
  Fe  Fe36      1.0  0.00660  0.39868  0.59828  1.0000
  H   H486      1.0  0.99439  0.34628  0.70648  1.0000
  S   S66       1.0  0.04453  0.40418  0.54636  1.0000
  S   S67       1.0  0.03399  0.39811  0.61230  1.0000
  Fe  Fe37      1.0  0.00541  0.57069  0.67909  1.0000
  S   S68       1.0  0.02931  0.55621  0.69256  1.0000
  H   H487      1.0  0.99399  0.46220  0.95768  1.0000
  Fe  Fe38      1.0  0.01627  0.56979  0.61621  1.0000
  S   S69       1.0  0.04081  0.55508  0.62647  1.0000
  S   S70       1.0  0.01371  0.57654  0.56937  1.0000
  Fe  Fe39      1.0  0.02465  0.53923  0.65522  1.0000
  S   S71       1.0  0.02090  0.51042  0.65916  1.0000
  Fe  Fe40      1.0  0.04330  0.57371  0.66246  1.0000
  S   S72       1.0  0.06958  0.58504  0.67317  1.0000
  S   S73       1.0  0.00004  0.55307  0.64312  1.0000
  S   S74       1.0  0.01946  0.58913  0.65089  1.0000
  C   C273      1.0  0.07352  0.58279  0.75389  1.0000
  C   C274      1.0  0.07935  0.60551  0.67458  1.0000
  C   C275      1.0  0.09688  0.60618  0.68142  1.0000
  C   C276      1.0  0.10522  0.62196  0.68303  1.0000
  H   H488      1.0  0.98918  0.45839  0.49937  1.0000
  H   H489      1.0  0.02813  0.45968  0.54030  1.0000
  C   C277      1.0  0.07027  0.62100  0.66946  1.0000
  H   H490      1.0  0.10412  0.59436  0.68554  1.0000
  H   H491      1.0  0.00875  0.32839  0.71448  1.0000
  H   H492      1.0  0.05676  0.62086  0.66464  1.0000
  H   H493      1.0  0.06237  0.57371  0.58715  1.0000
  H   H494      1.0  0.09951  0.57659  0.60824  1.0000
  H   H495      1.0  0.09242  0.58258  0.52804  1.0000
  H   H496      1.0  0.09815  0.54548  0.61310  1.0000
  H   H497      1.0  0.09500  0.60442  0.61944  1.0000
  H   H498      1.0  0.11868  0.62212  0.68831  1.0000
  C   C278      1.0  0.03994  0.54049  0.54442  1.0000
  C   C279      1.0  0.07155  0.34341  0.56335  1.0000
  C   C280      1.0  0.08338  0.35129  0.54562  1.0000
  H   H499      1.0  0.11586  0.33724  0.95627  1.0000
  C   C281      1.0  0.99710  0.57136  0.54579  1.0000
  H   H500      1.0  0.09032  0.61307  0.74728  1.0000
  H   H501      1.0  0.99241  0.48661  0.92918  1.0000
  H   H502      1.0  0.08138  0.36465  0.54000  1.0000
  C   C282      1.0  0.07453  0.32598  0.57034  1.0000
  H   H503      1.0  0.10691  0.34816  0.52146  1.0000
  C   C283      1.0  0.04114  0.46388  0.60810  1.0000
  C   C284      1.0  0.04979  0.47938  0.60695  1.0000
  C   C285      1.0  0.04335  0.49402  0.62131  1.0000
  C   C286      1.0  0.02842  0.49315  0.63771  1.0000
  C   C287      1.0  0.01961  0.47775  0.63846  1.0000
  C   C288      1.0  0.02576  0.46328  0.62338  1.0000
  H   H504      1.0  0.06173  0.47995  0.59527  1.0000
  H   H505      1.0  0.05034  0.50572  0.62073  1.0000
  H   H506      1.0  0.00805  0.47695  0.65109  1.0000
  H   H507      1.0  0.01892  0.45150  0.62430  1.0000
  H   H508      1.0  0.06293  0.62333  0.57378  1.0000
  C   C289      1.0  0.06797  0.59335  0.54554  1.0000
  C   C290      1.0  0.06452  0.36530  0.94715  1.0000
  H   H509      1.0  0.05475  0.58843  0.54612  1.0000
  C   C291      1.0  0.10746  0.32858  0.96830  1.0000
  H   H510      1.0  0.07671  0.54587  0.59926  1.0000
  H   H511      1.0  0.03170  0.35821  0.51713  1.0000
  H   H512      1.0  0.01217  0.33997  0.53172  1.0000
  C   C292      1.0  0.02181  0.35150  0.69951  1.0000
  H   H513      1.0  0.01123  0.33175  0.49707  1.0000
  C   C293      1.0  0.03199  0.62124  0.60285  1.0000
  C   C294      1.0  0.08865  0.33459  0.96594  1.0000
  H   H514      1.0  0.06488  0.35370  0.93374  1.0000
  H   H515      1.0  0.06972  0.58558  0.61559  1.0000
  H   H516      1.0  0.04309  0.32723  0.68160  1.0000
  C   C295      1.0  0.07868  0.57950  0.52937  1.0000
  H   H517      1.0  0.01523  0.37053  0.50142  1.0000
  H   H518      1.0  0.12120  0.62137  0.61999  1.0000
  H   H519      1.0  0.02053  0.49345  0.56324  1.0000
  C   C296      1.0  0.09795  0.61261  0.60103  1.0000
  H   H520      1.0  0.03122  0.57350  0.83332  1.0000
  H   H521      1.0  0.02457  0.61122  0.70116  1.0000
  H   H522      1.0  0.01872  0.53507  0.57155  1.0000
  H   H523      1.0  0.12071  0.62361  0.58220  1.0000
  C   C297      1.0  0.99910  0.57506  0.51692  1.0000
  H   H524      1.0  0.08693  0.56089  0.71194  1.0000
  C   C298      1.0  0.00712  0.34834  0.65457  1.0000
  C   C299      1.0  0.02563  0.48504  0.52070  1.0000
  H   H525      1.0  0.07509  0.37313  0.93886  1.0000
  H   H526      1.0  0.04660  0.57348  0.78614  1.0000
  H   H527      1.0  0.03678  0.58577  0.74375  1.0000
  C   C300      1.0  0.03172  0.32873  0.66769  1.0000
  H   H528      1.0  0.05712  0.62053  0.78088  1.0000
  C   C301      1.0  0.04245  0.60732  0.58721  1.0000
  H   H529      1.0  0.04051  0.60920  0.81168  1.0000
  H   H530      1.0  0.05249  0.37426  0.50725  1.0000
  C   C302      1.0  0.02639  0.52826  0.55500  1.0000
  C   C303      1.0  0.09148  0.60476  0.57324  1.0000
  N   N16       1.0  0.07383  0.59745  0.57486  1.0000
  H   H531      1.0  0.04212  0.62466  0.73746  1.0000
  H   H532      1.0  0.00900  0.57295  0.75267  1.0000
  H   H533      1.0  0.06590  0.55685  0.76637  1.0000
  H   H534      1.0  0.02266  0.59369  0.84618  1.0000
  H   H535      1.0  0.01029  0.39684  0.66988  1.0000
  C   C304      1.0  0.06873  0.56419  0.74691  1.0000
  H   H536      1.0  0.01919  0.36554  0.70160  1.0000
  H   H537      1.0  0.02883  0.61634  0.76469  1.0000
  H   H538      1.0  0.00488  0.36168  0.74857  1.0000
  H   H539      1.0  0.15562  0.32778  0.52607  1.0000
  H   H540      1.0  0.06551  0.31966  0.58391  1.0000
  H   H541      1.0  0.03392  0.38723  0.90573  1.0000
  H   H542      1.0  0.09505  0.55370  0.74572  1.0000
  H   H543      1.0  0.01154  0.52669  0.95106  1.0000
  H   H544      1.0  0.01959  0.45000  0.69508  1.0000
  C   C305      1.0  0.99472  0.39607  0.93532  1.0000
  H   H545      1.0  0.09528  0.56696  0.57521  1.0000
  H   H546      1.0  0.08540  0.33489  0.94329  1.0000
  H   H547      1.0  0.07577  0.60898  0.79162  1.0000
  H   H548      1.0  0.18485  0.33538  0.51045  1.0000
  C   C306      1.0  0.08960  0.57015  0.59599  1.0000
  C   C307      1.0  0.03751  0.59574  0.80746  1.0000
  H   H549      1.0  0.04048  0.59490  0.59797  1.0000
  C   C308      1.0  0.99814  0.39509  0.68044  1.0000
  C   C309      1.0  0.01954  0.61297  0.72292  1.0000
  C   C310      1.0  0.10090  0.32444  0.54214  1.0000
  H   H550      1.0  0.05672  0.39016  0.90564  1.0000
  C   C311      1.0  0.02201  0.35772  0.50028  1.0000
  H   H551      1.0  0.09510  0.36099  0.96981  1.0000
  H   H552      1.0  0.04072  0.32686  0.51119  1.0000
  H   H553      1.0  0.04529  0.47389  0.54807  1.0000
  H   H554      1.0  0.06730  0.60524  0.53241  1.0000
  H   H555      1.0  0.04426  0.46407  0.51412  1.0000
  C   C312      1.0  0.00697  0.51545  0.93947  1.0000
  C   C313      1.0  0.03435  0.61361  0.74366  1.0000
  N   N17       1.0  0.00295  0.50837  0.53637  1.0000
  C   C314      1.0  0.05023  0.33236  0.49651  1.0000
  H   H556      1.0  0.06515  0.61444  0.60836  1.0000
  C   C315      1.0  0.00695  0.35228  0.62251  1.0000
  H   H557      1.0  0.02549  0.59539  0.79517  1.0000
  N   N18       1.0  0.02439  0.34686  0.66886  1.0000
  C   C316      1.0  0.03648  0.35955  0.65624  1.0000
  C   C317      1.0  0.08558  0.35247  0.97966  1.0000
  H   H558      1.0  0.00977  0.36597  0.61912  1.0000
  C   C318      1.0  0.08094  0.63848  0.75680  1.0000
  H   H559      1.0  0.99292  0.62778  0.82193  1.0000
  C   C319      1.0  0.05483  0.35933  0.66861  1.0000
  C   C320      1.0  0.98965  0.44313  0.72792  1.0000
  H   H560      1.0  0.99692  0.61497  0.79091  1.0000
  H   H561      1.0  0.07488  0.64975  0.58170  1.0000
  C   C321      1.0  0.09617  0.63747  0.67790  1.0000
  C   C322      1.0  0.06580  0.37265  0.65406  1.0000
  C   C323      1.0  0.00656  0.34756  0.74645  1.0000
  H   H562      1.0  0.03080  0.37277  0.65845  1.0000
  H   H563      1.0  0.03816  0.35774  0.63329  1.0000
  C   C324      1.0  0.01291  0.43801  0.69060  1.0000
  C   C325      1.0  0.09789  0.34187  0.53511  1.0000
  H   H564      1.0  0.07130  0.64862  0.66764  1.0000
  H   H565      1.0  0.03371  0.34862  0.71166  1.0000
  H   H566      1.0  0.07348  0.58995  0.48743  1.0000
  H   H567      1.0  0.01851  0.48048  0.50226  1.0000
  H   H568      1.0  0.09177  0.61508  0.55693  1.0000
  H   H569      1.0  0.98871  0.45136  0.68311  1.0000
  H   H570      1.0  0.05455  0.36236  0.69137  1.0000
  H   H571      1.0  0.06141  0.34665  0.66553  1.0000
  C   C326      1.0  0.11726  0.61520  0.60017  1.0000
  H   H572      1.0  0.05852  0.57419  0.49941  1.0000
  N   N19       1.0  0.06764  0.36040  0.97750  1.0000
  C   C327      1.0  0.07860  0.63678  0.67118  1.0000
  C   C328      1.0  0.98921  0.51099  0.95048  1.0000
  H   H573      1.0  0.01820  0.61814  0.60264  1.0000
  H   H574      1.0  0.01072  0.58083  0.50953  1.0000
  C   C329      1.0  0.99648  0.57192  0.76226  1.0000
  H   H575      1.0  0.99410  0.45763  0.78019  1.0000
  H   H576      1.0  0.00401  0.48168  0.54865  1.0000
  H   H577      1.0  0.06020  0.38576  0.65742  1.0000
  H   H578      1.0  0.07894  0.37203  0.66291  1.0000
  H   H579      1.0  0.06682  0.37015  0.63110  1.0000
  H   H580      1.0  0.99343  0.60460  0.82433  1.0000
  H   H581      1.0  0.99311  0.47591  0.70619  1.0000
  H   H582      1.0  0.08089  0.32476  0.97651  1.0000
  H   H583      1.0  0.00662  0.53501  0.52597  1.0000
  C   C330      1.0  0.05214  0.58596  0.79139  1.0000
  H   H584      1.0  0.08093  0.55585  0.63271  1.0000
  H   H585      1.0  0.00640  0.51879  0.91671  1.0000
  C   C331      1.0  0.03681  0.32182  0.63823  1.0000
  C   C332      1.0  0.99325  0.50507  0.50963  1.0000
  H   H586      1.0  0.05136  0.59625  0.72163  1.0000
  C   C333      1.0  0.07762  0.61984  0.74985  1.0000
  C   C334      1.0  0.04723  0.37483  0.94063  1.0000
  H   H587      1.0  0.06276  0.58302  0.80644  1.0000
  H   H588      1.0  0.03612  0.62197  0.62510  1.0000
  H   H589      1.0  0.99950  0.45147  0.73652  1.0000
  H   H590      1.0  0.03459  0.49493  0.51366  1.0000
  C   C335      1.0  0.99728  0.39434  0.71010  1.0000
  H   H591      1.0  0.02509  0.31942  0.62601  1.0000
  C   C336      1.0  0.01444  0.52318  0.53082  1.0000
  C   C337      1.0  0.06703  0.61108  0.77338  1.0000
  H   H592      1.0  0.07881  0.58817  0.73401  1.0000
  H   H593      1.0  0.01178  0.62515  0.72367  1.0000
  H   H594      1.0  0.07986  0.56755  0.48826  1.0000
  H   H595      1.0  0.00742  0.51400  0.59584  1.0000
  H   H596      1.0  0.01627  0.50453  0.94271  1.0000
  H   H597      1.0  0.04747  0.54499  0.56247  1.0000
  H   H598      1.0  0.01519  0.43465  0.66818  1.0000
  H   H599      1.0  0.12440  0.60269  0.59832  1.0000
  C   C338      1.0  0.00709  0.34252  0.71542  1.0000
  H   H600      1.0  0.03378  0.55184  0.53389  1.0000
  H   H601      1.0  0.04506  0.38633  0.95387  1.0000
  H   H602      1.0  0.07906  0.39440  0.96817  1.0000
  C   C339      1.0  0.08356  0.55449  0.73207  1.0000
  H   H603      1.0  0.07095  0.61955  0.72941  1.0000
  H   H604      1.0  0.04518  0.58829  0.85002  1.0000
  H   H605      1.0  0.00674  0.40133  0.92869  1.0000
  H   H606      1.0  0.04832  0.36978  0.89550  1.0000
  H   H607      1.0  0.05183  0.33866  0.96960  1.0000
  C   C340      1.0  0.08605  0.55333  0.61118  1.0000
  H   H608      1.0  0.99642  0.49434  0.59334  1.0000
  H   H609      1.0  0.07973  0.54127  0.72728  1.0000
  C   C341      1.0  0.99484  0.57017  0.79171  1.0000
  H   H610      1.0  0.01103  0.60231  0.72830  1.0000
  H   H611      1.0  0.07734  0.56684  0.53974  1.0000
  C   C342      1.0  0.07307  0.58181  0.59371  1.0000
  H   H612      1.0  0.09157  0.62536  0.60461  1.0000
  H   H613      1.0  0.08902  0.64409  0.73996  1.0000
  H   H614      1.0  0.99064  0.48040  0.74273  1.0000
  N   N20       1.0  0.05919  0.59444  0.76528  1.0000
  H   H615      1.0  0.04886  0.53389  0.52935  1.0000
  C   C343      1.0  0.03398  0.58725  0.83593  1.0000
  C   C344      1.0  0.06174  0.61134  0.58631  1.0000
  H   H616      1.0  0.15794  0.35061  0.52423  1.0000
  C   C345      1.0  0.04660  0.38083  0.90996  1.0000
  H   H617      1.0  0.01840  0.42744  0.70385  1.0000
  H   H618      1.0  0.02236  0.52085  0.51156  1.0000
  H   H619      1.0  0.00886  0.39544  0.72220  1.0000
  H   H620      1.0  0.98933  0.35295  0.58737  1.0000
  C   C346      1.0  0.00943  0.34365  0.50949  1.0000
  C   C347      1.0  0.03642  0.46974  0.53155  1.0000
  H   H621      1.0  0.03335  0.51711  0.56457  1.0000
  H   H622      1.0  0.03649  0.36608  0.94375  1.0000
  H   H623      1.0  0.00618  0.56986  0.80457  1.0000
  C   C348      1.0  0.04552  0.59673  0.74305  1.0000
  H   H624      1.0  0.01662  0.34461  0.61048  1.0000
  C   C349      1.0  0.17427  0.33616  0.49492  1.0000
  C   C350      1.0  0.01303  0.49207  0.54370  1.0000
  H   H625      1.0  0.03344  0.63390  0.59250  1.0000
  H   H626      1.0  0.03713  0.60686  0.56566  1.0000
  H   H627      1.0  0.08443  0.58198  0.76893  1.0000
  H   H628      1.0  0.98914  0.50664  0.71368  1.0000
  H   H629      1.0  0.05741  0.56414  0.73297  1.0000
  H   H630      1.0  0.14639  0.33999  0.49713  1.0000
  H   H631      1.0  0.02237  0.31966  0.67642  1.0000
  H   H632      1.0  0.08783  0.63933  0.77706  1.0000
  H   H633      1.0  0.06867  0.64613  0.75804  1.0000
  C   C351      1.0  0.15752  0.33877  0.51153  1.0000
  H   H634      1.0  0.99204  0.43048  0.73854  1.0000
  H   H635      1.0  0.99982  0.33655  0.65848  1.0000
  C   C352      1.0  0.99051  0.46989  0.97643  1.0000
  C   C353      1.0  0.07219  0.57775  0.49930  1.0000
  H   H636      1.0  0.99913  0.35903  0.66390  1.0000
  H   H637      1.0  0.05662  0.34257  0.50788  1.0000
  C   C354      1.0  0.98959  0.61584  0.81103  1.0000
  C   C355      1.0  0.99365  0.44047  0.69613  1.0000
  H   H638      1.0  0.98821  0.36092  0.52237  1.0000
  C   C356      1.0  0.99512  0.50842  0.59014  1.0000
  C   C357      1.0  0.99231  0.39156  0.96381  1.0000
  C   C358      1.0  0.99057  0.34976  0.50834  1.0000
  C   C359      1.0  0.05626  0.37394  0.48476  1.0000
  H   H639      1.0  0.99998  0.48008  0.97804  1.0000
  H   H640      1.0  0.23192  0.64949  0.71375  1.0000
  H   H641      1.0  0.00228  0.50307  0.49161  1.0000
  S   S75       1.0  0.01147  0.41009  0.48930  1.0000
  C   C360      1.0  0.98937  0.34919  0.60994  1.0000
  H   H642      1.0  0.99555  0.34157  0.75715  1.0000
  H   H643      1.0  0.01856  0.34320  0.75714  1.0000
  C   C361      1.0  0.98995  0.51271  0.55932  1.0000
  H   H644      1.0  0.04493  0.33075  0.62638  1.0000
  H   H645      1.0  0.07526  0.39296  0.49216  1.0000
  H   H646      1.0  0.99011  0.50813  0.97332  1.0000
  H   H647      1.0  0.98742  0.42883  0.68866  1.0000
  H   H648      1.0  0.98722  0.43987  0.52166  1.0000
  H   H649      1.0  0.98707  0.53121  0.49396  1.0000
  Fe  Fe41      1.0  0.00058  0.90077  0.35638  1.0000
  S   S76       1.0  0.02861  0.90673  0.35877  1.0000
  H   H650      1.0  0.06221  0.86098  0.00297  1.0000
  Fe  Fe42      1.0  0.99829  0.89377  0.42131  1.0000
  S   S77       1.0  0.02593  0.89972  0.42784  1.0000
  H   H651      1.0  0.09066  0.68475  0.13580  1.0000
  Fe  Fe43      1.0  0.02103  0.92189  0.39748  1.0000
  S   S78       1.0  0.02435  0.95003  0.40817  1.0000
  Fe  Fe44      1.0  0.03128  0.88388  0.38884  1.0000
  S   S79       1.0  0.04933  0.85981  0.38455  1.0000
  C   C362      1.0  0.21556  0.75882  0.04609  1.0000
  S   S80       1.0  0.00349  0.87716  0.38353  1.0000
  Fe  Fe45      1.0  0.12871  0.79405  0.43805  1.0000
  S   S81       1.0  0.11543  0.76954  0.44782  1.0000
  S   S82       1.0  0.11652  0.82147  0.43674  1.0000
  Fe  Fe46      1.0  0.16468  0.77569  0.44234  1.0000
  S   S83       1.0  0.15353  0.75023  0.45242  1.0000
  S   S84       1.0  0.19367  0.77614  0.43505  1.0000
  Fe  Fe47      1.0  0.13472  0.75687  0.41790  1.0000
  S   S85       1.0  0.12870  0.73542  0.38739  1.0000
  H   H652      1.0  0.16484  0.80310  0.05139  1.0000
  S   S86       1.0  0.12772  0.75825  0.02350  1.0000
  S   S87       1.0  0.14676  0.78157  0.40602  1.0000
  H   H653      1.0  0.00180  0.88152  0.23139  1.0000
  Fe  Fe48      1.0  0.16702  0.67896  0.21153  1.0000
  S   S88       1.0  0.16911  0.70658  0.20016  1.0000
  H   H654      1.0  0.03623  0.88574  0.16952  1.0000
  Fe  Fe49      1.0  0.12809  0.67861  0.19789  1.0000
  S   S89       1.0  0.12793  0.70698  0.18721  1.0000
  Fe  Fe50      1.0  0.15230  0.70115  0.16309  1.0000
  S   S90       1.0  0.15927  0.70727  0.11715  1.0000
  Fe  Fe51      1.0  0.14457  0.70993  0.22543  1.0000
  S   S91       1.0  0.14374  0.73296  0.25486  1.0000
  S   S92       1.0  0.15207  0.67285  0.17259  1.0000
  S   S93       1.0  0.14296  0.68227  0.23816  1.0000
  C   C363      1.0  0.13617  0.74356  0.04912  1.0000
  C   C364      1.0  0.14807  0.73043  0.04210  1.0000
  C   C365      1.0  0.15465  0.71926  0.06316  1.0000
  C   C366      1.0  0.14951  0.72106  0.09148  1.0000
  C   C367      1.0  0.13736  0.73397  0.09844  1.0000
  C   C368      1.0  0.13072  0.74513  0.07735  1.0000
  H   H655      1.0  0.15220  0.72890  0.02045  1.0000
  H   H656      1.0  0.16387  0.70916  0.05749  1.0000
  H   H657      1.0  0.13332  0.73557  0.12013  1.0000
  H   H658      1.0  0.12146  0.75518  0.08304  1.0000
  C   C369      1.0  0.13317  0.73496  0.35059  1.0000
  C   C370      1.0  0.13884  0.74931  0.33590  1.0000
  C   C371      1.0  0.14210  0.74841  0.30669  1.0000
  C   C372      1.0  0.13971  0.73320  0.29176  1.0000
  C   C373      1.0  0.13417  0.71882  0.30645  1.0000
  C   C374      1.0  0.13090  0.71972  0.33568  1.0000
  H   H659      1.0  0.14052  0.76115  0.34699  1.0000
  H   H660      1.0  0.14633  0.75962  0.29553  1.0000
  H   H661      1.0  0.13216  0.70707  0.29523  1.0000
  H   H662      1.0  0.12646  0.70856  0.34677  1.0000
  C   C375      1.0  0.16938  0.68897  0.30722  1.0000
  H   H663      1.0  0.16405  0.66530  0.11409  1.0000
  C   C376      1.0  0.22021  0.67958  0.23830  1.0000
  H   H664      1.0  0.21404  0.70231  0.34570  1.0000
  H   H665      1.0  0.22692  0.85527  0.38782  1.0000
  H   H666      1.0  0.21351  0.69143  0.23253  1.0000
  C   C377      1.0  0.21217  0.70982  0.32585  1.0000
  C   C378      1.0  0.21046  0.77973  0.45909  1.0000
  H   H667      1.0  0.08426  0.75516  0.99156  1.0000
  H   H668      1.0  0.19559  0.68668  0.29367  1.0000
  H   H669      1.0  0.20077  0.74058  0.24627  1.0000
  C   C379      1.0  0.18999  0.72032  0.29130  1.0000
  H   H670      1.0  0.20064  0.72444  0.37433  1.0000
  C   C380      1.0  0.06813  0.84953  0.39945  1.0000
  C   C381      1.0  0.07313  0.83290  0.39048  1.0000
  C   C382      1.0  0.08766  0.82403  0.40184  1.0000
  C   C383      1.0  0.09757  0.83170  0.42233  1.0000
  C   C384      1.0  0.09266  0.84839  0.43115  1.0000
  C   C385      1.0  0.07802  0.85719  0.41999  1.0000
  H   H671      1.0  0.06568  0.82679  0.37457  1.0000
  H   H672      1.0  0.09127  0.81131  0.39455  1.0000
  H   H673      1.0  0.10025  0.85456  0.44679  1.0000
  H   H674      1.0  0.07450  0.86997  0.42711  1.0000
  C   C386      1.0  0.02858  0.96633  0.38318  1.0000
  C   C387      1.0  0.04448  0.96674  0.36944  1.0000
  H   H675      1.0  0.02198  0.87360  0.46968  1.0000
  H   H676      1.0  0.18530  0.81936  0.35418  1.0000
  H   H677      1.0  0.05360  0.95606  0.37173  1.0000
  H   H678      1.0  0.18084  0.85767  0.40762  1.0000
  H   H679      1.0  0.99640  0.96446  0.23585  1.0000
  H   H680      1.0  0.99157  0.92965  0.45661  1.0000
  H   H681      1.0  0.19252  0.78735  0.05679  1.0000
  C   C388      1.0  0.03924  0.85085  0.46664  1.0000
  S   S94       1.0  0.18982  0.66226  0.22647  1.0000
  H   H682      1.0  0.10968  0.79750  0.09589  1.0000
  H   H683      1.0  0.20888  0.74042  0.29689  1.0000
  H   H684      1.0  0.12120  0.84060  0.37770  1.0000
  H   H685      1.0  0.11729  0.83534  0.02036  1.0000
  C   C389      1.0  0.18238  0.71709  0.34203  1.0000
  N   N21       1.0  0.19343  0.71016  0.31791  1.0000
  C   C390      1.0  0.18868  0.69188  0.31255  1.0000
  C   C391      1.0  0.23098  0.74829  0.05820  1.0000
  H   H686      1.0  0.17035  0.72833  0.39373  1.0000
  H   H687      1.0  0.07689  0.81041  0.04320  1.0000
  C   C392      1.0  0.20088  0.73603  0.99966  1.0000
  C   C393      1.0  0.17701  0.73845  0.38181  1.0000
  C   C394      1.0  0.19137  0.79267  0.36265  1.0000
  H   H688      1.0  0.19276  0.68352  0.33059  1.0000
  C   C395      1.0  0.16615  0.66992  0.30389  1.0000
  C   C396      1.0  0.01592  0.95366  0.28674  1.0000
  H   H689      1.0  0.11604  0.66107  0.04745  1.0000
  H   H690      1.0  0.20784  0.69305  0.16637  1.0000
  C   C397      1.0  0.08836  0.78178  0.00116  1.0000
  H   H691      1.0  0.03570  0.91476  0.11718  1.0000
  C   C398      1.0  0.01651  0.93388  0.28998  1.0000
  H   H692      1.0  0.09164  0.69353  0.08577  1.0000
  N   N22       1.0  0.09094  0.81482  0.00448  1.0000
  C   C399      1.0  0.22506  0.70219  0.30387  1.0000
  H   H693      1.0  0.06182  0.98194  0.34502  1.0000
  C   C400      1.0  0.03147  0.92554  0.27355  1.0000
  H   H694      1.0  0.15675  0.83316  0.36771  1.0000
  H   H695      1.0  0.02674  0.95845  0.29936  1.0000
  H   H696      1.0  0.01926  0.95680  0.26464  1.0000
  H   H697      1.0  0.11227  0.70223  0.08993  1.0000
  H   H698      1.0  0.10463  0.72089  0.13011  1.0000
  S   S95       1.0  0.99316  0.91673  0.39393  1.0000
  C   C401      1.0  0.03141  0.86644  0.48291  1.0000
  C   C402      1.0  0.98815  0.90690  0.99628  1.0000
  H   H699      1.0  0.04440  0.85573  0.44630  1.0000
  H   H700      1.0  0.23189  0.73516  0.04955  1.0000
  C   C403      1.0  0.11963  0.68765  0.03830  1.0000
  H   H701      1.0  0.01814  0.93031  0.31247  1.0000
  H   H702      1.0  0.00448  0.92838  0.28269  1.0000
  H   H703      1.0  0.11245  0.69045  0.14074  1.0000
  H   H704      1.0  0.13218  0.67543  0.11916  1.0000
  H   H705      1.0  0.13365  0.85444  0.35543  1.0000
  H   H706      1.0  0.21377  0.74095  0.99517  1.0000
  H   H707      1.0  0.08734  0.79656  0.08706  1.0000
  H   H708      1.0  0.18015  0.84963  0.37300  1.0000
  H   H709      1.0  0.09696  0.67379  0.05009  1.0000
  H   H710      1.0  0.10661  0.79246  0.04534  1.0000
  H   H711      1.0  0.21548  0.77124  0.05727  1.0000
  C   C404      1.0  0.16156  0.66204  0.09184  1.0000
  H   H712      1.0  0.03173  0.91148  0.27725  1.0000
  H   H713      1.0  0.02995  0.92798  0.25064  1.0000
  H   H714      1.0  0.04383  0.93058  0.28066  1.0000
  H   H715      1.0  0.19593  0.74123  0.34934  1.0000
  H   H716      1.0  0.17322  0.79601  0.01785  1.0000
  C   C405      1.0  0.10424  0.69134  0.09638  1.0000
  H   H717      1.0  0.03264  0.90216  0.19548  1.0000
  H   H718      1.0  0.22097  0.68125  0.14123  1.0000
  H   H719      1.0  0.08268  0.71521  0.12360  1.0000
  H   H720      1.0  0.06496  0.76862  0.99123  1.0000
  N   N23       1.0  0.11260  0.67447  0.08724  1.0000
  S   S96       1.0  0.14784  0.79009  0.47329  1.0000
  C   C406      1.0  0.99534  0.95670  0.32540  1.0000
  H   H721      1.0  0.01199  0.98443  0.31181  1.0000
  H   H722      1.0  0.20791  0.83669  0.41482  1.0000
  H   H723      1.0  0.99665  0.92688  0.13226  1.0000
  H   H724      1.0  0.19299  0.81224  0.40737  1.0000
  H   H725      1.0  0.12068  0.86332  0.38377  1.0000
  H   H726      1.0  0.06158  0.80043  0.42135  1.0000
  H   H727      1.0  0.17901  0.74705  0.25599  1.0000
  H   H728      1.0  0.19312  0.84174  0.45348  1.0000
  C   C407      1.0  0.06080  0.79936  0.44465  1.0000
  N   N24       1.0  0.02738  0.83634  0.46146  1.0000
  C   C408      1.0  0.23515  0.69742  0.16943  1.0000
  H   H729      1.0  0.15580  0.78490  0.03468  1.0000
  C   C409      1.0  0.21291  0.85842  0.38865  1.0000
  H   H730      1.0  0.10285  0.68622  0.00195  1.0000
  H   H731      1.0  0.19211  0.81867  0.45167  1.0000
  C   C410      1.0  0.01709  0.98053  0.38054  1.0000
  H   H732      1.0  0.16310  0.84579  0.44205  1.0000
  H   H733      1.0  0.16740  0.74650  0.37024  1.0000
  C   C411      1.0  0.10931  0.81381  0.99413  1.0000
  H   H734      1.0  0.18695  0.74665  0.30630  1.0000
  H   H735      1.0  0.07834  0.65985  0.26757  1.0000
  C   C412      1.0  0.08151  0.79991  0.99285  1.0000
  C   C413      1.0  0.19767  0.73449  0.03181  1.0000
  H   H736      1.0  0.19636  0.76098  0.26284  1.0000
  H   H737      1.0  0.99112  0.82766  0.45551  1.0000
  H   H738      1.0  0.02948  0.81168  0.44055  1.0000
  H   H739      1.0  0.00411  0.88729  0.28268  1.0000
  C   C414      1.0  0.11083  0.67345  0.05567  1.0000
  H   H740      1.0  0.16561  0.67277  0.07813  1.0000
  H   H741      1.0  0.04822  0.90519  0.16775  1.0000
  H   H742      1.0  0.08833  0.84253  0.00178  1.0000
  H   H743      1.0  0.18594  0.78170  0.37429  1.0000
  H   H744      1.0  0.98755  0.90016  0.12589  1.0000
  C   C415      1.0  0.11964  0.83014  0.99896  1.0000
  H   H745      1.0  0.18405  0.73446  0.13039  1.0000
  C   C416      1.0  0.98868  0.93428  0.09056  1.0000
  H   H746      1.0  0.23470  0.70789  0.15361  1.0000
  N   N25       1.0  0.19825  0.75087  0.04840  1.0000
  C   C417      1.0  0.12904  0.85220  0.37727  1.0000
  C   C418      1.0  0.19337  0.74759  0.07883  1.0000
  C   C419      1.0  0.18509  0.76344  0.03605  1.0000
  H   H747      1.0  0.99999  0.94570  0.47913  1.0000
  C   C420      1.0  0.18092  0.77989  0.05345  1.0000
  C   C421      1.0  0.19915  0.73006  0.09203  1.0000
  C   C422      1.0  0.19731  0.73035  0.12407  1.0000
  C   C423      1.0  0.08949  0.81531  0.03624  1.0000
  C   C424      1.0  0.16788  0.79165  0.03832  1.0000
  H   H748      1.0  0.15195  0.86162  0.39549  1.0000
  C   C425      1.0  0.14257  0.65867  0.08760  1.0000
  H   H749      1.0  0.19804  0.75802  0.09235  1.0000
  H   H750      1.0  0.17911  0.74797  0.08136  1.0000
  H   H751      1.0  0.17271  0.75705  0.03275  1.0000
  H   H752      1.0  0.18932  0.76791  0.01488  1.0000
  H   H753      1.0  0.00568  0.85413  0.45484  1.0000
  H   H754      1.0  0.17530  0.77675  0.07430  1.0000
  C   C426      1.0  0.06293  0.83332  0.99635  1.0000
  H   H755      1.0  0.99458  0.93820  0.07027  1.0000
  H   H756      1.0  0.19999  0.71730  0.13272  1.0000
  H   H757      1.0  0.20651  0.73922  0.13330  1.0000
  C   C427      1.0  0.09454  0.71169  0.13538  1.0000
  H   H758      1.0  0.11658  0.80272  0.00338  1.0000
  C   C428      1.0  0.18029  0.80893  0.36752  1.0000
  C   C429      1.0  0.03731  0.82294  0.44457  1.0000
  C   C430      1.0  0.20318  0.84215  0.39469  1.0000
  H   H759      1.0  0.08628  0.77947  0.02396  1.0000
  H   H760      1.0  0.99240  0.94287  0.32575  1.0000
  N   N26       1.0  0.01004  0.90918  0.10393  1.0000
  C   C431      1.0  0.02527  0.90594  0.12286  1.0000
  C   C432      1.0  0.01606  0.90951  0.07362  1.0000
  H   H761      1.0  0.21258  0.72621  0.08693  1.0000
  H   H762      1.0  0.05361  0.81472  0.48061  1.0000
  H   H763      1.0  0.00682  0.95776  0.33892  1.0000
  H   H764      1.0  0.18341  0.74675  0.39708  1.0000
  H   H765      1.0  0.13370  0.68717  0.04171  1.0000
  C   C433      1.0  0.02440  0.89277  0.06174  1.0000
  C   C434      1.0  0.03257  0.89584  0.03286  1.0000
  H   H766      1.0  0.00396  0.81898  0.42665  1.0000
  H   H767      1.0  0.14700  0.82239  0.39649  1.0000
  C   C435      1.0  0.09902  0.80414  0.08432  1.0000
  H   H768      1.0  0.08942  0.82876  0.04391  1.0000
  H   H769      1.0  0.03108  0.89294  0.11974  1.0000
  H   H770      1.0  0.00511  0.91241  0.05932  1.0000
  H   H771      1.0  0.02519  0.92002  0.07044  1.0000
  C   C436      1.0  0.13115  0.67444  0.09596  1.0000
  C   C437      1.0  0.21152  0.66411  0.23719  1.0000
  H   H772      1.0  0.09673  0.81705  0.09357  1.0000
  C   C438      1.0  0.00244  0.87757  0.11594  1.0000
  H   H773      1.0  0.20473  0.79440  0.36973  1.0000
  H   H774      1.0  0.01239  0.87241  0.10136  1.0000
  H   H775      1.0  0.05057  0.84628  0.47899  1.0000
  H   H776      1.0  0.05906  0.83066  0.01843  1.0000
  H   H777      1.0  0.21650  0.72282  0.33064  1.0000
  H   H778      1.0  0.01293  0.93632  0.11145  1.0000
  H   H779      1.0  0.03459  0.88731  0.07554  1.0000
  H   H780      1.0  0.01437  0.88323  0.05875  1.0000
  H   H781      1.0  0.02290  0.90120  0.01790  1.0000
  H   H782      1.0  0.04321  0.90484  0.03446  1.0000
  H   H783      1.0  0.03780  0.88354  0.02423  1.0000
  H   H784      1.0  0.17252  0.80425  0.41052  1.0000
  H   H785      1.0  0.06787  0.80041  0.99986  1.0000
  C   C439      1.0  0.14417  0.85006  0.39741  1.0000
  H   H786      1.0  0.19165  0.78954  0.33989  1.0000
  H   H787      1.0  0.18491  0.72880  0.03476  1.0000
  C   C440      1.0  0.19268  0.74740  0.26229  1.0000
  C   C441      1.0  0.02151  0.90826  0.15483  1.0000
  H   H788      1.0  0.16118  0.69377  0.32484  1.0000
  H   H789      1.0  0.13874  0.84953  0.41906  1.0000
  H   H790      1.0  0.05215  0.88326  0.47154  1.0000
  H   H791      1.0  0.17885  0.70653  0.35664  1.0000
  H   H792      1.0  0.02076  0.92211  0.16003  1.0000
  H   H793      1.0  0.14363  0.81667  0.01014  1.0000
  H   H794      1.0  0.16510  0.69549  0.28757  1.0000
  H   H795      1.0  0.20674  0.83282  0.37793  1.0000
  H   H796      1.0  0.04035  0.82807  0.42319  1.0000
  N   N27       1.0  0.17226  0.83170  0.40536  1.0000
  H   H797      1.0  0.09165  0.71261  0.15826  1.0000
  C   C442      1.0  0.19522  0.73920  0.29133  1.0000
  H   H798      1.0  0.00911  0.90278  0.16106  1.0000
  H   H799      1.0  0.22040  0.67459  0.17774  1.0000
  S   S97       1.0  0.10195  0.66629  0.18991  1.0000
  H   H800      1.0  0.06461  0.82583  0.45320  1.0000
  H   H801      1.0  0.99240  0.84138  0.39487  1.0000
  H   H802      1.0  0.01778  0.84904  0.42392  1.0000
  H   H803      1.0  0.10213  0.77995  0.99593  1.0000
  C   C443      1.0  0.03558  0.89980  0.17289  1.0000
  C   C444      1.0  0.19031  0.73063  0.36142  1.0000
  C   C445      1.0  0.16892  0.83303  0.43665  1.0000
  C   C446      1.0  0.18347  0.84588  0.39502  1.0000
  C   C447      1.0  0.11677  0.68541  0.00679  1.0000
  H   H804      1.0  0.17605  0.72077  0.28658  1.0000
  H   H805      1.0  0.16994  0.72254  0.33401  1.0000
  C   C448      1.0  0.15505  0.83348  0.39097  1.0000
  H   H806      1.0  0.22938  0.76594  0.43385  1.0000
  H   H807      1.0  0.15929  0.82352  0.44323  1.0000
  H   H808      1.0  0.19611  0.71380  0.27282  1.0000
  H   H809      1.0  0.11445  0.70060  0.04392  1.0000
  H   H810      1.0  0.14583  0.83859  0.99902  1.0000
  H   H811      1.0  0.22261  0.80334  0.00296  1.0000
  H   H812      1.0  0.16715  0.80622  0.36032  1.0000
  H   H813      1.0  0.21853  0.76216  0.02385  1.0000
  H   H814      1.0  0.13728  0.68608  0.08777  1.0000
  H   H815      1.0  0.11598  0.81250  0.05177  1.0000
  C   C449      1.0  0.22717  0.77351  0.45260  1.0000
  C   C450      1.0  0.08265  0.83105  0.99239  1.0000
  C   C451      1.0  0.17982  0.81406  0.39904  1.0000
  C   C452      1.0  0.10075  0.69342  0.12843  1.0000
  H   H816      1.0  0.06909  0.98001  0.45512  1.0000
  C   C453      1.0  0.99632  0.89620  0.10833  1.0000
  H   H817      1.0  0.19095  0.71986  0.08401  1.0000
  C   C454      1.0  0.18468  0.83071  0.45605  1.0000
  C   C455      1.0  0.99858  0.83087  0.43630  1.0000
  H   H818      1.0  0.10813  0.65818  0.12354  1.0000
  H   H819      1.0  0.00790  0.87704  0.13743  1.0000
  H   H820      1.0  0.21044  0.86796  0.40555  1.0000
  C   C456      1.0  0.00258  0.92685  0.11083  1.0000
  N   N28       1.0  0.99926  0.96253  0.29567  1.0000
  C   C457      1.0  0.10383  0.80557  0.05318  1.0000
  C   C458      1.0  0.01269  0.84345  0.44386  1.0000
  C   C459      1.0  0.22024  0.68584  0.16328  1.0000
  H   H821      1.0  0.20995  0.70954  0.99369  1.0000
  C   C460      1.0  0.13890  0.82668  0.99513  1.0000
  C   C461      1.0  0.98830  0.95469  0.24558  1.0000
  H   H822      1.0  0.20901  0.86411  0.36808  1.0000
  H   H823      1.0  0.20708  0.72468  0.03971  1.0000
  H   H824      1.0  0.98797  0.89573  0.08945  1.0000
  H   H825      1.0  0.12316  0.69574  0.99493  1.0000
  H   H826      1.0  0.00787  0.80688  0.47368  1.0000
  C   C462      1.0  0.22465  0.79215  0.98989  1.0000
  C   C463      1.0  0.99331  0.89254  0.27093  1.0000
  H   H827      1.0  0.17357  0.66459  0.28568  1.0000
  H   H828      1.0  0.07381  0.79581  0.45263  1.0000
  H   H829      1.0  0.19102  0.74458  0.98966  1.0000
  H   H830      1.0  0.16985  0.66270  0.32325  1.0000
  H   H831      1.0  0.06834  0.65638  0.17340  1.0000
  C   C464      1.0  0.99196  0.88931  0.24185  1.0000
  H   H832      1.0  0.23279  0.70278  0.19072  1.0000
  H   H833      1.0  0.22991  0.74772  0.08148  1.0000
  H   H834      1.0  0.12231  0.67287  0.99959  1.0000
  H   H835      1.0  0.22318  0.68829  0.30115  1.0000
  C   C465      1.0  0.04917  0.98149  0.35448  1.0000
  H   H836      1.0  0.18707  0.71328  0.98864  1.0000
  H   H837      1.0  0.99236  0.85217  0.12053  1.0000
  H   H838      1.0  0.99519  0.94210  0.24321  1.0000
  H   H839      1.0  0.15231  0.66817  0.30003  1.0000
  C   C466      1.0  0.19994  0.71865  0.98536  1.0000
  C   C467      1.0  0.05459  0.81639  0.45747  1.0000
  C   C468      1.0  0.98757  0.86542  0.11584  1.0000
  H   H840      1.0  0.05199  0.78905  0.45047  1.0000
  C   C469      1.0  0.00177  0.98161  0.29645  1.0000
  C   C470      1.0  0.10330  0.66010  0.10165  1.0000
  H   H841      1.0  0.04244  0.85258  0.99051  1.0000
  C   C471      1.0  0.05665  0.85151  0.98867  1.0000
  C   C472      1.0  0.07882  0.76801  0.98559  1.0000
  H   H842      1.0  0.08938  0.66361  0.10398  1.0000
  C   C473      1.0  0.99342  0.93333  0.47888  1.0000
  H   H843      1.0  0.00480  0.98033  0.39116  1.0000
  H   H844      1.0  0.04872  0.97208  0.44459  1.0000
  H   H845      1.0  0.22364  0.70877  0.28323  1.0000
  H   H846      1.0  0.14104  0.65522  0.06525  1.0000
  Fe  Fe52      1.0  0.13551  0.76490  0.48127  1.0000
  C   C474      1.0  0.05726  0.98313  0.44302  1.0000
  H   H847      1.0  0.06090  0.98508  0.42059  1.0000
  H   H848      1.0  0.01763  0.98434  0.25788  1.0000
  H   H849      1.0  0.98861  0.96048  0.10632  1.0000
  H   H850      1.0  0.12375  0.71054  0.48327  1.0000
  C   C475      1.0  0.20784  0.78963  0.48325  1.0000
  Fe  Fe53      1.0  0.00077  0.89388  0.87068  1.0000
  S   S98       1.0  0.02801  0.89153  0.85511  1.0000
  H   H851      1.0  0.13690  0.66842  0.54431  1.0000
  Fe  Fe54      1.0  0.01155  0.90540  0.92964  1.0000
  S   S99       1.0  0.03970  0.90438  0.91789  1.0000
  H   H852      1.0  0.15051  0.81150  0.87076  1.0000
  Fe  Fe55      1.0  0.03106  0.91689  0.87699  1.0000
  S   S100      1.0  0.04334  0.93883  0.85283  1.0000
  Fe  Fe56      1.0  0.03449  0.87909  0.89719  1.0000
  S   S101      1.0  0.04809  0.85244  0.90385  1.0000
  S   S102      1.0  0.00355  0.91963  0.89027  1.0000
  S   S103      1.0  0.00657  0.87974  0.91123  1.0000
  Fe  Fe57      1.0  0.13394  0.78932  0.93110  1.0000
  S   S104      1.0  0.11818  0.76677  0.94242  1.0000
  S   S105      1.0  0.12310  0.81614  0.91806  1.0000
  Fe  Fe58      1.0  0.16798  0.76801  0.94027  1.0000
  S   S106      1.0  0.15393  0.74423  0.95173  1.0000
  S   S107      1.0  0.19694  0.76350  0.93629  1.0000
  Fe  Fe59      1.0  0.13687  0.75142  0.91506  1.0000
  S   S108      1.0  0.12753  0.73163  0.88403  1.0000
  H   H853      1.0  0.03088  0.83122  0.50606  1.0000
  S   S109      1.0  0.12729  0.75820  0.52622  1.0000
  S   S110      1.0  0.15181  0.77413  0.90213  1.0000
  H   H854      1.0  0.10580  0.75296  0.74638  1.0000
  Fe  Fe60      1.0  0.17024  0.67424  0.70310  1.0000
  S   S111      1.0  0.16989  0.70252  0.69618  1.0000
  H   H855      1.0  0.08134  0.80071  0.96944  1.0000
  H   H856      1.0  0.10031  0.69516  0.62993  1.0000
  S   S112      1.0  0.12908  0.70044  0.68281  1.0000
  Fe  Fe61      1.0  0.15384  0.69785  0.65825  1.0000
  S   S113      1.0  0.16290  0.70704  0.61485  1.0000
  Fe  Fe62      1.0  0.14534  0.70283  0.72166  1.0000
  S   S114      1.0  0.14285  0.72561  0.75188  1.0000
  C   C476      1.0  0.17309  0.77975  0.53563  1.0000
  S   S115      1.0  0.14626  0.67438  0.73056  1.0000
  C   C477      1.0  0.13836  0.74490  0.55099  1.0000
  C   C478      1.0  0.15226  0.73408  0.54327  1.0000
  C   C479      1.0  0.15991  0.72291  0.56333  1.0000
  C   C480      1.0  0.15375  0.72243  0.59125  1.0000
  C   C481      1.0  0.14028  0.73368  0.59920  1.0000
  C   C482      1.0  0.13259  0.74480  0.57912  1.0000
  H   H857      1.0  0.15684  0.73405  0.52171  1.0000
  H   H858      1.0  0.17039  0.71430  0.55701  1.0000
  H   H859      1.0  0.13568  0.73369  0.62073  1.0000
  H   H860      1.0  0.12196  0.75327  0.58532  1.0000
  C   C483      1.0  0.13327  0.72940  0.84780  1.0000
  C   C484      1.0  0.14295  0.74150  0.83350  1.0000
  C   C485      1.0  0.14609  0.73990  0.80431  1.0000
  C   C486      1.0  0.14004  0.72597  0.78913  1.0000
  C   C487      1.0  0.13079  0.71361  0.80359  1.0000
  C   C488      1.0  0.12729  0.71542  0.83265  1.0000
  H   H861      1.0  0.14791  0.75213  0.84488  1.0000
  H   H862      1.0  0.15330  0.74951  0.79338  1.0000
  H   H863      1.0  0.12592  0.70289  0.79222  1.0000
  H   H864      1.0  0.11982  0.70596  0.84345  1.0000
  C   C489      1.0  0.99380  0.95219  0.75719  1.0000
  C   C490      1.0  0.21402  0.66955  0.72711  1.0000
  C   C491      1.0  0.21211  0.68458  0.74285  1.0000
  H   H865      1.0  0.00716  0.94934  0.82547  1.0000
  C   C492      1.0  0.22516  0.70609  0.66131  1.0000
  H   H866      1.0  0.19968  0.69114  0.74421  1.0000
  H   H867      1.0  0.10967  0.67606  0.53292  1.0000
  H   H868      1.0  0.00363  0.89213  0.49566  1.0000
  H   H869      1.0  0.10485  0.78050  0.88945  1.0000
  C   C493      1.0  0.00710  0.80656  0.51874  1.0000
  H   H870      1.0  0.09454  0.69312  0.53804  1.0000
  H   H871      1.0  0.08505  0.78772  0.87332  1.0000
  H   H872      1.0  0.05673  0.81353  0.80660  1.0000
  C   C494      1.0  0.06915  0.84270  0.90756  1.0000
  C   C495      1.0  0.07084  0.82486  0.91229  1.0000
  C   C496      1.0  0.08714  0.81652  0.91554  1.0000
  C   C497      1.0  0.10209  0.82589  0.91404  1.0000
  C   C498      1.0  0.10041  0.84369  0.90928  1.0000
  C   C499      1.0  0.08412  0.85205  0.90616  1.0000
  H   H873      1.0  0.05942  0.81744  0.91346  1.0000
  H   H874      1.0  0.08811  0.80288  0.91928  1.0000
  H   H875      1.0  0.11183  0.85113  0.90803  1.0000
  H   H876      1.0  0.08315  0.86573  0.90254  1.0000
  C   C500      1.0  0.03694  0.96082  0.85572  1.0000
  C   C501      1.0  0.04484  0.97301  0.83842  1.0000
  C   C502      1.0  0.07218  0.66032  0.59670  1.0000
  C   C503      1.0  0.02407  0.96640  0.87453  1.0000
  H   H877      1.0  0.05483  0.96883  0.82382  1.0000
  H   H878      1.0  0.08033  0.76547  0.90898  1.0000
  H   H879      1.0  0.01788  0.95720  0.88797  1.0000
  H   H880      1.0  0.20195  0.77025  0.60907  1.0000
  H   H881      1.0  0.08030  0.76961  0.96247  1.0000
  H   H882      1.0  0.21604  0.69266  0.62447  1.0000
  H   H883      1.0  0.22087  0.78164  0.57439  1.0000
  C   C504      1.0  0.21350  0.77161  0.95714  1.0000
  H   H884      1.0  0.12970  0.81831  0.83244  1.0000
  N   N29       1.0  0.11082  0.68799  0.57397  1.0000
  H   H885      1.0  0.17011  0.74095  0.64185  1.0000
  H   H886      1.0  0.21391  0.75140  0.61776  1.0000
  H   H887      1.0  0.20742  0.74118  0.83195  1.0000
  C   C505      1.0  0.22996  0.76368  0.95552  1.0000
  H   H888      1.0  0.20886  0.72237  0.80980  1.0000
  C   C506      1.0  0.10498  0.70491  0.58653  1.0000
  H   H889      1.0  0.09167  0.70851  0.57993  1.0000
  H   H890      1.0  0.20851  0.68438  0.65793  1.0000
  H   H891      1.0  0.23101  0.76874  0.54855  1.0000
  H   H892      1.0  0.99245  0.93809  0.75598  1.0000
  H   H893      1.0  0.12645  0.76088  0.75492  1.0000
  H   H894      1.0  0.10967  0.81124  0.97118  1.0000
  C   C507      1.0  0.00769  0.97624  0.95353  1.0000
  H   H895      1.0  0.18025  0.76111  0.64563  1.0000
  H   H896      1.0  0.00196  0.89216  0.54787  1.0000
  H   H897      1.0  0.00626  0.97836  0.80972  1.0000
  C   C508      1.0  0.98825  0.89855  0.79323  1.0000
  H   H898      1.0  0.06028  0.85465  0.96660  1.0000
  C   C509      1.0  0.15346  0.80807  0.84854  1.0000
  H   H899      1.0  0.00968  0.83761  0.49672  1.0000
  H   H900      1.0  0.21960  0.70973  0.68215  1.0000
  C   C510      1.0  0.15718  0.66709  0.57436  1.0000
  H   H901      1.0  0.08312  0.72238  0.62537  1.0000
  H   H902      1.0  0.11286  0.71536  0.57818  1.0000
  C   C511      1.0  0.00437  0.97577  0.78690  1.0000
  C   C512      1.0  0.98718  0.84771  0.80180  1.0000
  C   C513      1.0  0.02621  0.93070  0.77239  1.0000
  H   H903      1.0  0.03083  0.98381  0.78039  1.0000
  C   C514      1.0  0.08098  0.67643  0.58669  1.0000
  H   H904      1.0  0.13703  0.69577  0.57433  1.0000
  H   H905      1.0  0.99324  0.85967  0.79469  1.0000
  H   H906      1.0  0.19958  0.70425  0.64413  1.0000
  C   C515      1.0  0.22186  0.79365  0.50020  1.0000
  C   C516      1.0  0.18233  0.74763  0.63876  1.0000
  H   H907      1.0  0.03109  0.95351  0.79599  1.0000
  C   C517      1.0  0.04524  0.87891  0.49070  1.0000
  S   S116      1.0  0.00141  0.91688  0.97095  1.0000
  H   H908      1.0  0.16161  0.79611  0.84810  1.0000
  H   H909      1.0  0.10351  0.66159  0.57379  1.0000
  H   H910      1.0  0.99723  0.90490  0.75149  1.0000
  C   C518      1.0  0.01942  0.98395  0.87635  1.0000
  H   H911      1.0  0.20211  0.72027  0.96236  1.0000
  H   H912      1.0  0.07524  0.82668  0.80572  1.0000
  H   H913      1.0  0.13131  0.68339  0.60385  1.0000
  C   C519      1.0  0.08087  0.79950  0.81385  1.0000
  C   C520      1.0  0.09708  0.72251  0.62976  1.0000
  H   H914      1.0  0.02490  0.86248  0.50261  1.0000
  H   H915      1.0  0.10957  0.77553  0.74269  1.0000
  H   H916      1.0  0.11758  0.68856  0.48544  1.0000
  C   C521      1.0  0.10224  0.77229  0.84547  1.0000
  H   H917      1.0  0.16382  0.67834  0.56568  1.0000
  H   H918      1.0  0.06702  0.81889  0.83900  1.0000
  H   H919      1.0  0.19074  0.82873  0.50046  1.0000
  H   H920      1.0  0.99743  0.93384  0.80425  1.0000
  H   H921      1.0  0.22519  0.73235  0.58595  1.0000
  Fe  Fe63      1.0  0.13129  0.67164  0.68989  1.0000
  H   H922      1.0  0.08534  0.83199  0.96936  1.0000
  C   C522      1.0  0.21084  0.78577  0.97468  1.0000
  H   H923      1.0  0.22758  0.71799  0.64928  1.0000
  H   H924      1.0  0.05809  0.66283  0.59796  1.0000
  H   H925      1.0  0.10827  0.75418  0.79729  1.0000
  N   N30       1.0  0.11046  0.78665  0.82936  1.0000
  C   C523      1.0  0.10803  0.68895  0.54257  1.0000
  H   H926      1.0  0.10498  0.67024  0.60784  1.0000
  C   C524      1.0  0.10075  0.67348  0.58600  1.0000
  C   C525      1.0  0.08552  0.76182  0.88796  1.0000
  C   C526      1.0  0.20853  0.72697  0.83188  1.0000
  C   C527      1.0  0.18866  0.77815  0.55488  1.0000
  H   H927      1.0  0.19739  0.78856  0.54918  1.0000
  C   C528      1.0  0.11243  0.76391  0.75564  1.0000
  H   H928      1.0  0.99082  0.93702  0.70381  1.0000
  S   S117      1.0  0.15174  0.78527  0.96819  1.0000
  H   H929      1.0  0.22209  0.70932  0.53167  1.0000
  C   C529      1.0  0.23030  0.66116  0.72576  1.0000
  H   H930      1.0  0.10464  0.81222  0.81351  1.0000
  H   H931      1.0  0.19828  0.79207  0.97594  1.0000
  H   H932      1.0  0.07412  0.78896  0.82439  1.0000
  S   S118      1.0  0.10593  0.65799  0.67946  1.0000
  C   C530      1.0  0.99819  0.94786  0.80757  1.0000
  C   C531      1.0  0.06931  0.81566  0.81648  1.0000
  H   H933      1.0  0.18396  0.78031  0.57666  1.0000
  H   H934      1.0  0.09240  0.76989  0.78559  1.0000
  H   H935      1.0  0.13461  0.78013  0.84922  1.0000
  H   H936      1.0  0.08235  0.79662  0.79112  1.0000
  C   C532      1.0  0.09464  0.77694  0.87481  1.0000
  C   C533      1.0  0.22461  0.72062  0.84754  1.0000
  H   H937      1.0  0.14060  0.80279  0.81011  1.0000
  H   H938      1.0  0.12994  0.77493  0.80183  1.0000
  H   H939      1.0  0.22453  0.70640  0.84774  1.0000
  S   S119      1.0  0.15543  0.66920  0.66351  1.0000
  C   C534      1.0  0.98850  0.95112  0.70469  1.0000
  H   H940      1.0  0.00084  0.89879  0.80255  1.0000
  H   H941      1.0  0.07471  0.75803  0.87458  1.0000
  H   H942      1.0  0.16084  0.81853  0.83889  1.0000
  H   H943      1.0  0.11751  0.79164  0.78579  1.0000
  C   C535      1.0  0.02338  0.95020  0.77735  1.0000
  C   C536      1.0  0.12948  0.68465  0.58070  1.0000
  H   H944      1.0  0.99479  0.81414  0.52037  1.0000
  H   H945      1.0  0.13336  0.69761  0.52781  1.0000
  H   H946      1.0  0.00424  0.79274  0.51967  1.0000
  H   H947      1.0  0.03918  0.89030  0.50116  1.0000
  H   H948      1.0  0.01530  0.80954  0.53693  1.0000
  H   H949      1.0  0.09460  0.75067  0.89065  1.0000
  H   H950      1.0  0.00176  0.92334  0.48907  1.0000
  H   H951      1.0  0.07599  0.67982  0.56553  1.0000
  H   H952      1.0  0.22374  0.74054  0.52198  1.0000
  H   H953      1.0  0.12233  0.79642  0.86687  1.0000
  C   C537      1.0  0.99926  0.95883  0.72783  1.0000
  H   H954      1.0  0.02955  0.95670  0.75932  1.0000
  C   C538      1.0  0.09864  0.80228  0.82684  1.0000
  Fe  Fe64      1.0  0.13689  0.76171  0.97788  1.0000
  C   C539      1.0  0.04523  0.92605  0.76791  1.0000
  H   H955      1.0  0.09675  0.80848  0.84777  1.0000
  H   H956      1.0  0.07684  0.65643  0.61790  1.0000
  H   H957      1.0  0.02195  0.92314  0.79083  1.0000
  H   H958      1.0  0.17663  0.77630  0.51366  1.0000
  H   H959      1.0  0.21981  0.80183  0.51826  1.0000
  S   S120      1.0  0.19643  0.66063  0.70937  1.0000
  H   H960      1.0  0.11172  0.76140  0.84836  1.0000
  C   C540      1.0  0.10631  0.76661  0.78598  1.0000
  H   H961      1.0  0.09160  0.76688  0.83354  1.0000
  C   C541      1.0  0.13693  0.80581  0.83216  1.0000
  C   C542      1.0  0.22617  0.69084  0.75759  1.0000
  H   H962      1.0  0.22440  0.70228  0.77010  1.0000
  H   H963      1.0  0.09881  0.72344  0.65287  1.0000
  C   C543      1.0  0.10612  0.70613  0.61899  1.0000
  C   C544      1.0  0.12602  0.79162  0.84568  1.0000
  C   C545      1.0  0.11663  0.78060  0.80061  1.0000
  H   H964      1.0  0.05032  0.93279  0.74912  1.0000
  H   H965      1.0  0.20711  0.72916  0.56497  1.0000
  H   H966      1.0  0.04695  0.91203  0.76461  1.0000
  C   C546      1.0  0.13806  0.66836  0.56753  1.0000
  H   H967      1.0  0.19695  0.72198  0.84245  1.0000
  C   C547      1.0  0.11958  0.70138  0.52589  1.0000
  N   N31       1.0  0.21160  0.75586  0.57297  1.0000
  C   C548      1.0  0.99159  0.88988  0.50615  1.0000
  C   C549      1.0  0.19809  0.76045  0.55137  1.0000
  C   C550      1.0  0.20433  0.75672  0.60250  1.0000
  H   H968      1.0  0.98768  0.83650  0.76077  1.0000
  H   H969      1.0  0.01927  0.92665  0.75344  1.0000
  H   H970      1.0  0.22361  0.72527  0.86953  1.0000
  C   C551      1.0  0.18769  0.74690  0.60775  1.0000
  C   C552      1.0  0.21810  0.73772  0.56750  1.0000
  H   H971      1.0  0.16772  0.79311  0.53583  1.0000
  H   H972      1.0  0.19222  0.74113  0.65216  1.0000
  H   H973      1.0  0.05271  0.92950  0.78673  1.0000
  H   H974      1.0  0.20385  0.76055  0.52986  1.0000
  H   H975      1.0  0.18828  0.75044  0.55068  1.0000
  H   H976      1.0  0.10255  0.73397  0.61965  1.0000
  H   H977      1.0  0.07713  0.68686  0.60143  1.0000
  H   H978      1.0  0.11977  0.70645  0.62519  1.0000
  H   H979      1.0  0.15912  0.66654  0.59749  1.0000
  H   H980      1.0  0.16297  0.77115  0.54309  1.0000
  C   C553      1.0  0.11535  0.70150  0.49455  1.0000
  H   H981      1.0  0.18961  0.73323  0.60205  1.0000
  H   H982      1.0  0.17691  0.75252  0.59526  1.0000
  H   H983      1.0  0.01288  0.95549  0.72295  1.0000
  C   C554      1.0  0.22987  0.73516  0.54122  1.0000
  N   N32       1.0  0.00504  0.95663  0.78156  1.0000
  H   H984      1.0  0.99279  0.94960  0.57357  1.0000
  H   H985      1.0  0.02009  0.97984  0.94392  1.0000
  C   C555      1.0  0.02104  0.82967  0.48949  1.0000
  H   H986      1.0  0.14181  0.82253  0.97324  1.0000
  C   C556      1.0  0.21156  0.69619  0.64597  1.0000
  C   C557      1.0  0.22585  0.76834  0.57048  1.0000
  H   H987      1.0  0.11771  0.71473  0.53337  1.0000
  H   H988      1.0  0.10181  0.70585  0.49116  1.0000
  H   H989      1.0  0.05460  0.87273  0.50541  1.0000
  C   C558      1.0  0.99057  0.88998  0.53577  1.0000
  H   H990      1.0  0.16311  0.65530  0.56496  1.0000
  H   H991      1.0  0.99710  0.97293  0.72669  1.0000
  C   C559      1.0  0.01628  0.81055  0.49104  1.0000
  H   H992      1.0  0.99207  0.95665  0.68395  1.0000
  H   H993      1.0  0.99142  0.98137  0.78178  1.0000
  H   H994      1.0  0.23210  0.75267  0.94210  1.0000
  H   H995      1.0  0.98815  0.86016  0.72990  1.0000
  H   H996      1.0  0.99381  0.95700  0.62358  1.0000
  C   C560      1.0  0.17919  0.83017  0.48701  1.0000
  H   H997      1.0  0.99990  0.97000  0.93734  1.0000
  H   H998      1.0  0.98830  0.94751  0.52825  1.0000
  H   H999      1.0  0.17098  0.81910  0.49115  1.0000
  H   H1000     1.0  0.01038  0.96679  0.97065  1.0000
  H   H1001     1.0  0.13215  0.65668  0.57607  1.0000
  C   C561      1.0  0.23400  0.71617  0.53609  1.0000
  C   C562      1.0  0.99148  0.85528  0.68598  1.0000
  H   H1002     1.0  0.11573  0.84020  0.98338  1.0000
  H   H1003     1.0  0.99986  0.86635  0.68287  1.0000
  H   H1004     1.0  0.17202  0.84218  0.49291  1.0000
  H   H1005     1.0  0.99740  0.83879  0.80996  1.0000
  H   H1006     1.0  0.99973  0.84357  0.68926  1.0000
  H   H1007     1.0  0.99386  0.88106  0.98293  1.0000
  H   H1008     1.0  0.19514  0.79473  0.48823  1.0000
  H   H1009     1.0  0.05625  0.82452  0.98220  1.0000
  H   H1010     1.0  0.23665  0.76872  0.61299  1.0000
  H   H1011     1.0  0.01847  0.98436  0.74878  1.0000
  H   H1012     1.0  0.02801  0.80210  0.48994  1.0000
  Fe  Fe65      1.0  0.31457  0.20813  0.16925  1.0000
  S   S121      1.0  0.30893  0.18229  0.15229  1.0000
  S   S122      1.0  0.31914  0.23224  0.14293  1.0000
  Fe  Fe66      1.0  0.30797  0.19652  0.23135  1.0000
  S   S123      1.0  0.30218  0.16975  0.21784  1.0000
  S   S124      1.0  0.29991  0.20405  0.27615  1.0000
  Fe  Fe67      1.0  0.32513  0.17151  0.18827  1.0000
  S   S125      1.0  0.35009  0.15447  0.18552  1.0000
  Fe  Fe68      1.0  0.28665  0.18278  0.18343  1.0000
  S   S126      1.0  0.25846  0.18157  0.17103  1.0000
  S   S127      1.0  0.33163  0.19779  0.20397  1.0000
  S   S128      1.0  0.29165  0.20922  0.19807  1.0000
  H   H1013     1.0  0.24754  0.27058  0.04879  1.0000
  H   H1014     1.0  0.29105  0.30550  0.07359  1.0000
  C   C563      1.0  0.46972  0.00470  0.05247  1.0000
  Fe  Fe69      1.0  0.32350  0.25907  0.41143  1.0000
  S   S129      1.0  0.31003  0.28500  0.41367  1.0000
  S   S130      1.0  0.33482  0.24886  0.37001  1.0000
  Fe  Fe70      1.0  0.32741  0.28974  0.45038  1.0000
  C   C564      1.0  0.43779  0.04731  0.01873  1.0000
  Fe  Fe71      1.0  0.29210  0.27276  0.44508  1.0000
  S   S131      1.0  0.26300  0.27185  0.43900  1.0000
  S   S132      1.0  0.34166  0.26429  0.44690  1.0000
  S   S133      1.0  0.30474  0.24664  0.44027  1.0000
  Fe  Fe72      1.0  0.41612  0.07213  0.14247  1.0000
  S   S134      1.0  0.44053  0.08667  0.14404  1.0000
  S   S135      1.0  0.38864  0.08344  0.14965  1.0000
  Fe  Fe73      1.0  0.43558  0.03797  0.12628  1.0000
  S   S136      1.0  0.46082  0.05102  0.12647  1.0000
  S   S137      1.0  0.44178  0.00982  0.11590  1.0000
  Fe  Fe74      1.0  0.45178  0.06334  0.16692  1.0000
  H   H1015     1.0  0.25056  0.17474  0.31168  1.0000
  Fe  Fe75      1.0  0.44753  0.07272  0.10364  1.0000
  S   S138      1.0  0.45686  0.08662  0.06413  1.0000
  S   S139      1.0  0.42695  0.04944  0.16754  1.0000
  S   S140      1.0  0.42267  0.05921  0.10091  1.0000
  H   H1016     1.0  0.27501  0.27229  0.02556  1.0000
  C   C565      1.0  0.48322  0.01174  0.07197  1.0000
  H   H1017     1.0  0.29285  0.26177  0.04220  1.0000
  C   C566      1.0  0.43085  0.06014  0.24581  1.0000
  S   S141      1.0  0.34110  0.31504  0.45865  1.0000
  H   H1018     1.0  0.46049  0.09574  0.00569  1.0000
  H   H1019     1.0  0.33366  0.15783  0.07045  1.0000
  C   C567      1.0  0.26756  0.24021  0.02730  1.0000
  C   C568      1.0  0.43050  0.02910  0.01760  1.0000
  C   C569      1.0  0.25126  0.22613  0.35933  1.0000
  H   H1020     1.0  0.39531  0.16164  0.09981  1.0000
  H   H1021     1.0  0.27635  0.25761  0.23236  1.0000
  C   C570      1.0  0.25504  0.18366  0.29521  1.0000
  C   C571      1.0  0.42436  0.09103  0.24734  1.0000
  H   H1022     1.0  0.41633  0.13640  0.09373  1.0000
  H   H1023     1.0  0.43879  0.08671  0.20794  1.0000
  H   H1024     1.0  0.42107  0.12206  0.21731  1.0000
  C   C572      1.0  0.44136  0.02904  0.24473  1.0000
  H   H1025     1.0  0.24665  0.17250  0.07582  1.0000
  C   C573      1.0  0.47274  0.08271  0.24579  1.0000
  C   C574      1.0  0.24558  0.27288  0.46338  1.0000
  C   C575      1.0  0.38719  0.08528  0.24044  1.0000
  C   C576      1.0  0.36043  0.13440  0.17605  1.0000
  C   C577      1.0  0.37837  0.13230  0.17895  1.0000
  C   C578      1.0  0.38723  0.11693  0.17093  1.0000
  C   C579      1.0  0.37828  0.10333  0.15989  1.0000
  C   C580      1.0  0.36034  0.10541  0.15712  1.0000
  C   C581      1.0  0.35148  0.12081  0.16497  1.0000
  H   H1026     1.0  0.38549  0.14268  0.18741  1.0000
  H   H1027     1.0  0.40097  0.11562  0.17328  1.0000
  H   H1028     1.0  0.35320  0.09499  0.14879  1.0000
  H   H1029     1.0  0.33772  0.12210  0.16256  1.0000
  C   C582      1.0  0.24168  0.17705  0.19525  1.0000
  H   H1030     1.0  0.30852  0.28932  0.33495  1.0000
  H   H1031     1.0  0.27644  0.25037  0.09648  1.0000
  H   H1032     1.0  0.25154  0.20016  0.34474  1.0000
  C   C583      1.0  0.31039  0.21526  0.30299  1.0000
  C   C584      1.0  0.32748  0.21990  0.30051  1.0000
  C   C585      1.0  0.33477  0.23005  0.32136  1.0000
  C   C586      1.0  0.32512  0.23560  0.34497  1.0000
  C   C587      1.0  0.30810  0.23071  0.34768  1.0000
  C   C588      1.0  0.30084  0.22054  0.32683  1.0000
  H   H1033     1.0  0.33505  0.21566  0.28255  1.0000
  H   H1034     1.0  0.34798  0.23364  0.31922  1.0000
  H   H1035     1.0  0.30055  0.23482  0.36578  1.0000
  H   H1036     1.0  0.28768  0.21684  0.32902  1.0000
  C   C589      1.0  0.32238  0.23283  0.10578  1.0000
  C   C590      1.0  0.32265  0.24877  0.09181  1.0000
  C   C591      1.0  0.32542  0.24979  0.06243  1.0000
  C   C592      1.0  0.32819  0.23484  0.04671  1.0000
  C   C593      1.0  0.32788  0.21891  0.06069  1.0000
  C   C594      1.0  0.32484  0.21788  0.08996  1.0000
  H   H1037     1.0  0.32084  0.26042  0.10379  1.0000
  H   H1038     1.0  0.32585  0.26214  0.05207  1.0000
  H   H1039     1.0  0.33003  0.20728  0.04876  1.0000
  H   H1040     1.0  0.32464  0.20553  0.10036  1.0000
  N   N33       1.0  0.31217  0.26261  0.24541  1.0000
  C   C595      1.0  0.30868  0.26746  0.21515  1.0000
  C   C596      1.0  0.29997  0.24897  0.25410  1.0000
  C   C597      1.0  0.30974  0.27834  0.26349  1.0000
  C   C598      1.0  0.33032  0.25565  0.24904  1.0000
  C   C599      1.0  0.33584  0.24035  0.23002  1.0000
  H   H1041     1.0  0.46358  0.99420  0.06407  1.0000
  C   C600      1.0  0.31018  0.27519  0.29587  1.0000
  C   C601      1.0  0.28063  0.25434  0.25400  1.0000
  C   C602      1.0  0.26970  0.23976  0.26465  1.0000
  C   C603      1.0  0.35490  0.23563  0.23359  1.0000
  C   C604      1.0  0.47682  0.07618  0.98623  1.0000
  H   H1042     1.0  0.27152  0.23285  0.48100  1.0000
  C   C605      1.0  0.47832  0.06145  0.04027  1.0000
  H   H1043     1.0  0.30765  0.25578  0.20197  1.0000
  H   H1044     1.0  0.30143  0.23770  0.24002  1.0000
  H   H1045     1.0  0.30322  0.24399  0.27535  1.0000
  C   C606      1.0  0.42996  0.07242  0.30497  1.0000
  H   H1046     1.0  0.25696  0.22203  0.37975  1.0000
  H   H1047     1.0  0.33966  0.26596  0.24610  1.0000
  H   H1048     1.0  0.33232  0.25107  0.27098  1.0000
  H   H1049     1.0  0.33369  0.24314  0.20740  1.0000
  H   H1050     1.0  0.32853  0.22896  0.23593  1.0000
  H   H1051     1.0  0.24197  0.23698  0.36331  1.0000
  H   H1052     1.0  0.33490  0.27313  0.20054  1.0000
  H   H1053     1.0  0.32254  0.26901  0.30246  1.0000
  H   H1054     1.0  0.29969  0.26693  0.30293  1.0000
  H   H1055     1.0  0.27786  0.26552  0.26775  1.0000
  H   H1056     1.0  0.25935  0.22913  0.03091  1.0000
  H   H1057     1.0  0.25594  0.24389  0.26442  1.0000
  H   H1058     1.0  0.27152  0.22834  0.25098  1.0000
  H   H1059     1.0  0.27327  0.23614  0.28655  1.0000
  H   H1060     1.0  0.36287  0.24648  0.22701  1.0000
  H   H1061     1.0  0.26140  0.24764  0.00974  1.0000
  H   H1062     1.0  0.35848  0.22443  0.22024  1.0000
  H   H1063     1.0  0.29328  0.21021  0.44056  1.0000
  C   C607      1.0  0.42458  0.06097  0.00907  1.0000
  H   H1064     1.0  0.39783  0.10879  0.47648  1.0000
  H   H1065     1.0  0.40843  0.28834  0.47436  1.0000
  H   H1066     1.0  0.24454  0.19552  0.07418  1.0000
  H   H1067     1.0  0.26646  0.21625  0.07050  1.0000
  H   H1068     1.0  0.43681  0.09277  0.25793  1.0000
  H   H1069     1.0  0.38322  0.15389  0.12838  1.0000
  H   H1070     1.0  0.40577  0.08408  0.29213  1.0000
  H   H1071     1.0  0.46377  0.02965  0.03576  1.0000
  H   H1072     1.0  0.38428  0.08884  0.26254  1.0000
  H   H1073     1.0  0.36595  0.30458  0.41393  1.0000
  C   C608      1.0  0.42772  0.09472  0.21567  1.0000
  H   H1074     1.0  0.27952  0.22551  0.12923  1.0000
  H   H1075     1.0  0.27950  0.19398  0.47862  1.0000
  H   H1076     1.0  0.35408  0.13810  0.09610  1.0000
  H   H1077     1.0  0.31678  0.27100  0.15807  1.0000
  H   H1078     1.0  0.25448  0.22888  0.09644  1.0000
  C   C609      1.0  0.38492  0.16688  0.04608  1.0000
  H   H1079     1.0  0.29596  0.27428  0.21340  1.0000
  H   H1080     1.0  0.35750  0.16826  0.05152  1.0000
  H   H1081     1.0  0.36485  0.06929  0.23916  1.0000
  C   C610      1.0  0.46853  0.07659  0.03615  1.0000
  S   S142      1.0  0.30809  0.27974  0.48234  1.0000
  H   H1082     1.0  0.44939  0.04846  0.00543  1.0000
  C   C611      1.0  0.36314  0.20294  0.13828  1.0000
  H   H1083     1.0  0.38608  0.12898  0.47336  1.0000
  C   C612      1.0  0.31696  0.28306  0.17033  1.0000
  C   C613      1.0  0.26552  0.17305  0.27380  1.0000
  H   H1084     1.0  0.35301  0.15104  0.12630  1.0000
  H   H1085     1.0  0.39519  0.05885  0.24687  1.0000
  C   C614      1.0  0.28501  0.23281  0.01606  1.0000
  C   C615      1.0  0.46193  0.99233  0.17845  1.0000
  C   C616      1.0  0.42466  0.07258  0.33600  1.0000
  H   H1086     1.0  0.43479  0.11570  0.18826  1.0000
  H   H1087     1.0  0.40846  0.00434  0.01307  1.0000
  C   C617      1.0  0.36241  0.18381  0.13204  1.0000
  H   H1088     1.0  0.40582  0.99954  0.12000  1.0000
  H   H1089     1.0  0.41699  0.08444  0.34102  1.0000
  H   H1090     1.0  0.39626  0.15866  0.05188  1.0000
  H   H1091     1.0  0.38771  0.13246  0.07439  1.0000
  H   H1092     1.0  0.26709  0.28614  0.07320  1.0000
  H   H1093     1.0  0.43810  0.06066  0.30158  1.0000
  C   C618      1.0  0.36840  0.16051  0.06058  1.0000
  H   H1094     1.0  0.37461  0.10961  0.47883  1.0000
  C   C619      1.0  0.32184  0.27923  0.20088  1.0000
  H   H1095     1.0  0.39139  0.09686  0.22902  1.0000
  C   C620      1.0  0.38411  0.15374  0.10502  1.0000
  H   H1096     1.0  0.37617  0.20762  0.13386  1.0000
  H   H1097     1.0  0.30434  0.29063  0.05353  1.0000
  C   C621      1.0  0.27304  0.20610  0.47156  1.0000
  C   C622      1.0  0.28240  0.22092  0.99122  1.0000
  C   C623      1.0  0.26741  0.22555  0.08783  1.0000
  N   N34       1.0  0.36792  0.16150  0.09228  1.0000
  C   C624      1.0  0.29090  0.29527  0.05750  1.0000
  H   H1098     1.0  0.45304  0.03205  0.25668  1.0000
  H   H1099     1.0  0.35614  0.18705  0.08803  1.0000
  H   H1100     1.0  0.47895  0.05568  0.06102  1.0000
  C   C625      1.0  0.38338  0.16643  0.01406  1.0000
  C   C626      1.0  0.41398  0.07284  0.28557  1.0000
  C   C627      1.0  0.41733  0.99362  0.01943  1.0000
  C   C628      1.0  0.35292  0.15167  0.10300  1.0000
  H   H1101     1.0  0.40634  0.06149  0.29096  1.0000
  C   C629      1.0  0.45633  0.01892  0.04395  1.0000
  C   C630      1.0  0.32093  0.14766  0.10665  1.0000
  C   C631      1.0  0.36630  0.18014  0.10051  1.0000
  H   H1102     1.0  0.36006  0.20522  0.16082  1.0000
  H   H1103     1.0  0.43796  0.01568  0.24972  1.0000
  H   H1104     1.0  0.29554  0.29853  0.30710  1.0000
  H   H1105     1.0  0.41510  0.03760  0.24050  1.0000
  S   S143      1.0  0.46992  0.05791  0.20405  1.0000
  C   C632      1.0  0.37048  0.07995  0.22705  1.0000
  H   H1106     1.0  0.27312  0.22154  0.43301  1.0000
  H   H1107     1.0  0.24868  0.18470  0.10750  1.0000
  H   H1108     1.0  0.44344  0.06273  0.25526  1.0000
  H   H1109     1.0  0.37275  0.07580  0.20499  1.0000
  N   N35       1.0  0.44280  0.01399  0.02330  1.0000
  S   S144      1.0  0.47919  0.05842  0.45717  1.0000
  H   H1110     1.0  0.27539  0.19876  0.42765  1.0000
  H   H1111     1.0  0.29020  0.21173  0.10362  1.0000
  C   C633      1.0  0.42301  0.31147  0.47647  1.0000
  C   C634      1.0  0.25042  0.25844  0.06059  1.0000
  H   H1112     1.0  0.28549  0.30087  0.03778  1.0000
  C   C635      1.0  0.33493  0.15848  0.09364  1.0000
  S   S145      1.0  0.31224  0.28171  0.99045  1.0000
  H   H1113     1.0  0.32221  0.13424  0.09913  1.0000
  C   C636      1.0  0.43261  0.99998  0.03681  1.0000
  H   H1114     1.0  0.44358  0.11665  0.22312  1.0000
  H   H1115     1.0  0.25660  0.29488  0.99756  1.0000
  H   H1116     1.0  0.46637  0.09162  0.23151  1.0000
  H   H1117     1.0  0.43320  0.06067  0.22281  1.0000
  C   C637      1.0  0.24224  0.21114  0.34608  1.0000
  H   H1118     1.0  0.37957  0.12619  0.10825  1.0000
  H   H1119     1.0  0.45712  0.99441  0.00012  1.0000
  C   C638      1.0  0.43206  0.11345  0.21093  1.0000
  H   H1120     1.0  0.26387  0.19284  0.30455  1.0000
  H   H1121     1.0  0.27042  0.20556  0.11974  1.0000
  H   H1122     1.0  0.41983  0.02945  0.03343  1.0000
  H   H1123     1.0  0.27701  0.16711  0.28411  1.0000
  H   H1124     1.0  0.25230  0.15239  0.20769  1.0000
  Fe  Fe76      1.0  0.32144  0.25400  0.47625  1.0000
  C   C639      1.0  0.40672  0.12946  0.10636  1.0000
  H   H1125     1.0  0.30810  0.15303  0.10058  1.0000
  H   H1126     1.0  0.41284  0.06067  0.02246  1.0000
  C   C640      1.0  0.38853  0.13479  0.09728  1.0000
  C   C641      1.0  0.42643  0.04136  0.25265  1.0000
  C   C642      1.0  0.27908  0.20943  0.44139  1.0000
  H   H1127     1.0  0.42367  0.03953  0.27537  1.0000
  H   H1128     1.0  0.41649  0.09207  0.20249  1.0000
  H   H1129     1.0  0.47388  0.02241  0.99439  1.0000
  H   H1130     1.0  0.38737  0.18025  0.05210  1.0000
  H   H1131     1.0  0.45778  0.99952  0.48154  1.0000
  H   H1132     1.0  0.42115  0.05899  0.98673  1.0000
  H   H1133     1.0  0.29199  0.22530  0.03250  1.0000
  H   H1134     1.0  0.39802  0.30686  0.45833  1.0000
  H   H1135     1.0  0.42421  0.02770  0.99683  1.0000
  H   H1136     1.0  0.36638  0.14720  0.05342  1.0000
  H   H1137     1.0  0.26993  0.18127  0.25617  1.0000
  H   H1138     1.0  0.24620  0.20309  0.26682  1.0000
  H   H1139     1.0  0.44120  0.05042  0.04073  1.0000
  H   H1140     1.0  0.25773  0.16270  0.26521  1.0000
  H   H1141     1.0  0.45007  0.02393  0.06352  1.0000
  H   H1142     1.0  0.32175  0.14763  0.12999  1.0000
  C   C643      1.0  0.27624  0.24192  0.07779  1.0000
  N   N36       1.0  0.41758  0.07365  0.25433  1.0000
  H   H1143     1.0  0.24975  0.26201  0.08325  1.0000
  H   H1144     1.0  0.28995  0.23854  0.07334  1.0000
  C   C644      1.0  0.46804  0.08404  0.00909  1.0000
  H   H1145     1.0  0.43633  0.07219  0.34929  1.0000
  C   C645      1.0  0.27753  0.21661  0.11151  1.0000
  H   H1146     1.0  0.37179  0.17708  0.14599  1.0000
  C   C646      1.0  0.28005  0.28062  0.06812  1.0000
  H   H1147     1.0  0.47706  0.01718  0.09127  1.0000
  H   H1148     1.0  0.42988  0.30792  0.45666  1.0000
  H   H1149     1.0  0.35772  0.23221  0.25584  1.0000
  H   H1150     1.0  0.35366  0.21039  0.12543  1.0000
  H   H1151     1.0  0.29323  0.24317  0.00836  1.0000
  C   C647      1.0  0.40117  0.07064  0.23878  1.0000
  H   H1152     1.0  0.41562  0.10136  0.25585  1.0000
  C   C648      1.0  0.27932  0.26624  0.04578  1.0000
  S   S146      1.0  0.33269  0.23536  0.00991  1.0000
  H   H1153     1.0  0.43008  0.07383  0.01100  1.0000
  H   H1154     1.0  0.34939  0.17973  0.13795  1.0000
  H   H1155     1.0  0.44427  0.02993  0.22184  1.0000
  H   H1156     1.0  0.28600  0.27571  0.08782  1.0000
  C   C649      1.0  0.43163  0.99001  0.11213  1.0000
  H   H1157     1.0  0.40897  0.11548  0.10304  1.0000
  H   H1158     1.0  0.33245  0.17193  0.10020  1.0000
  H   H1159     1.0  0.36109  0.09099  0.22683  1.0000
  H   H1160     1.0  0.40860  0.13216  0.12900  1.0000
  C   C650      1.0  0.24135  0.16126  0.20926  1.0000
  H   H1161     1.0  0.37834  0.18669  0.09519  1.0000
  H   H1162     1.0  0.41706  0.06122  0.34124  1.0000
  H   H1163     1.0  0.40383  0.06803  0.21609  1.0000
  H   H1164     1.0  0.43798  0.08365  0.30120  1.0000
  N   N37       1.0  0.26822  0.25135  0.05309  1.0000
  C   C651      1.0  0.48636  0.07683  0.29145  1.0000
  H   H1165     1.0  0.23702  0.23370  0.06111  1.0000
  C   C652      1.0  0.47629  0.06583  0.23732  1.0000
  H   H1166     1.0  0.32235  0.29161  0.21206  1.0000
  C   C653      1.0  0.45057  0.00711  0.99629  1.0000
  H   H1167     1.0  0.26170  0.23061  0.34540  1.0000
  H   H1168     1.0  0.31991  0.28757  0.25866  1.0000
  C   C654      1.0  0.30807  0.29201  0.31195  1.0000
  H   H1169     1.0  0.29748  0.28537  0.25842  1.0000
  H   H1170     1.0  0.47498  0.10125  0.27898  1.0000
  H   H1171     1.0  0.39541  0.17087  0.00419  1.0000
  C   C655      1.0  0.40598  0.30237  0.47639  1.0000
  H   H1172     1.0  0.46721  0.99089  0.15677  1.0000
  C   C656      1.0  0.24179  0.18409  0.08718  1.0000
  H   H1173     1.0  0.25900  0.20436  0.47085  1.0000
  H   H1174     1.0  0.42750  0.00432  0.05767  1.0000
  H   H1175     1.0  0.24493  0.22248  0.30447  1.0000
  H   H1176     1.0  0.31863  0.30065  0.30655  1.0000
  H   H1177     1.0  0.37259  0.17502  0.00691  1.0000
  C   C657      1.0  0.41388  0.98847  0.11462  1.0000
  H   H1178     1.0  0.32656  0.29145  0.16051  1.0000
  H   H1179     1.0  0.30415  0.28970  0.16924  1.0000
  C   C658      1.0  0.24528  0.28769  0.99368  1.0000
  H   H1180     1.0  0.38127  0.15318  0.00685  1.0000
  C   C659      1.0  0.47772  0.08815  0.27270  1.0000
  H   H1181     1.0  0.45015  0.00074  0.17741  1.0000
  H   H1182     1.0  0.47650  0.99932  0.03374  1.0000
  C   C660      1.0  0.36914  0.31715  0.42122  1.0000
  H   H1183     1.0  0.47883  0.99018  0.48366  1.0000
  C   C661      1.0  0.24003  0.19359  0.28074  1.0000
  H   H1184     1.0  0.44086  0.98838  0.04115  1.0000
  H   H1185     1.0  0.27499  0.20969  0.99785  1.0000
  H   H1186     1.0  0.47140  0.99869  0.19178  1.0000
  H   H1187     1.0  0.42205  0.98691  0.00022  1.0000
  C   C662      1.0  0.48501  0.05457  0.25601  1.0000
  H   H1188     1.0  0.40104  0.98719  0.05515  1.0000
  C   C663      1.0  0.48655  0.06100  0.99037  1.0000
  C   C664      1.0  0.38643  0.11635  0.48425  1.0000
  Fe  Fe77      1.0  0.31904  0.20508  0.67362  1.0000
  S   S147      1.0  0.30343  0.18213  0.66459  1.0000
  S   S148      1.0  0.32172  0.22787  0.64327  1.0000
  Fe  Fe78      1.0  0.32292  0.19516  0.73679  1.0000
  S   S149      1.0  0.30773  0.17155  0.73102  1.0000
  S   S150      1.0  0.33162  0.19846  0.78231  1.0000
  Fe  Fe79      1.0  0.32335  0.16742  0.69104  1.0000
  S   S151      1.0  0.33344  0.13982  0.68140  1.0000
  Fe  Fe80      1.0  0.28948  0.18811  0.70547  1.0000
  S   S152      1.0  0.26121  0.19568  0.71351  1.0000
  S   S153      1.0  0.33963  0.19024  0.69819  1.0000
  S   S154      1.0  0.30412  0.21184  0.71311  1.0000
  H   H1189     1.0  0.29814  0.31160  0.51890  1.0000
  C   C665      1.0  0.27005  0.23284  0.88254  1.0000
  C   C666      1.0  0.33326  0.29687  0.81572  1.0000
  Fe  Fe81      1.0  0.32274  0.26411  0.91456  1.0000
  S   S155      1.0  0.30825  0.28881  0.92346  1.0000
  S   S156      1.0  0.32382  0.26166  0.86658  1.0000
  Fe  Fe82      1.0  0.32858  0.29357  0.95564  1.0000
  H   H1190     1.0  0.38390  0.13828  0.56283  1.0000
  Fe  Fe83      1.0  0.29347  0.27482  0.95670  1.0000
  C   C667      1.0  0.24597  0.27443  0.97406  1.0000
  S   S157      1.0  0.34360  0.26918  0.94585  1.0000
  S   S158      1.0  0.30717  0.24995  0.94616  1.0000
  Fe  Fe84      1.0  0.42014  0.07544  0.64467  1.0000
  S   S159      1.0  0.44784  0.07643  0.65817  1.0000
  S   S160      1.0  0.40542  0.10157  0.64921  1.0000
  Fe  Fe85      1.0  0.42597  0.03791  0.62397  1.0000
  S   S161      1.0  0.45352  0.03694  0.63693  1.0000
  S   S162      1.0  0.41655  0.01687  0.59545  1.0000
  Fe  Fe86      1.0  0.44416  0.05027  0.67641  1.0000
  S   S163      1.0  0.45414  0.03975  0.71838  1.0000
  Fe  Fe87      1.0  0.45465  0.06310  0.61748  1.0000
  C   C668      1.0  0.46504  0.99814  0.58826  1.0000
  S   S164      1.0  0.41614  0.04953  0.66477  1.0000
  S   S165      1.0  0.42757  0.06376  0.60270  1.0000
  N   N38       1.0  0.34924  0.30100  0.54291  1.0000
  C   C669      1.0  0.46266  0.06487  0.53796  1.0000
  C   C670      1.0  0.47745  0.05001  0.79238  1.0000
  H   H1191     1.0  0.29511  0.21625  0.98305  1.0000
  H   H1192     1.0  0.45063  0.06401  0.54922  1.0000
  C   C671      1.0  0.46329  0.06271  0.50854  1.0000
  C   C672      1.0  0.42403  0.10088  0.55127  1.0000
  C   C673      1.0  0.46236  0.05103  0.74731  1.0000
  H   H1193     1.0  0.43569  0.01018  0.50489  1.0000
  H   H1194     1.0  0.41743  0.03653  0.50021  1.0000
  H   H1195     1.0  0.24885  0.21564  0.54674  1.0000
  H   H1196     1.0  0.34462  0.26955  0.62884  1.0000
  H   H1197     1.0  0.28564  0.23642  0.77922  1.0000
  H   H1198     1.0  0.24640  0.16857  0.81604  1.0000
  H   H1199     1.0  0.41283  0.99568  0.64589  1.0000
  H   H1200     1.0  0.40919  0.12304  0.56359  1.0000
  H   H1201     1.0  0.28805  0.18442  0.78849  1.0000
  C   C674      1.0  0.47552  0.99411  0.61464  1.0000
  H   H1202     1.0  0.44795  0.02886  0.49683  1.0000
  H   H1203     1.0  0.30342  0.18587  0.56982  1.0000
  C   C675      1.0  0.27726  0.22119  0.49111  1.0000
  H   H1204     1.0  0.35336  0.14087  0.57573  1.0000
  C   C676      1.0  0.35381  0.12950  0.67348  1.0000
  C   C677      1.0  0.36862  0.13862  0.66794  1.0000
  C   C678      1.0  0.38420  0.12983  0.66064  1.0000
  C   C679      1.0  0.38537  0.11181  0.65915  1.0000
  C   C680      1.0  0.37066  0.10267  0.66510  1.0000
  C   C681      1.0  0.35502  0.11147  0.67203  1.0000
  H   H1205     1.0  0.36797  0.15246  0.66883  1.0000
  H   H1206     1.0  0.39543  0.13711  0.65601  1.0000
  H   H1207     1.0  0.37123  0.08884  0.66405  1.0000
  H   H1208     1.0  0.34370  0.10424  0.67623  1.0000
  H   H1209     1.0  0.29138  0.22291  0.49002  1.0000
  H   H1210     1.0  0.39874  0.30484  0.49624  1.0000
  H   H1211     1.0  0.47484  0.02123  0.49697  1.0000
  H   H1212     1.0  0.25382  0.15887  0.71616  1.0000
  C   C682      1.0  0.32817  0.21598  0.80564  1.0000
  C   C683      1.0  0.32261  0.23224  0.79624  1.0000
  C   C684      1.0  0.32118  0.24601  0.81529  1.0000
  C   C685      1.0  0.32502  0.24363  0.84397  1.0000
  C   C686      1.0  0.33010  0.22729  0.85353  1.0000
  C   C687      1.0  0.33176  0.21358  0.83442  1.0000
  H   H1213     1.0  0.31993  0.23430  0.77415  1.0000
  H   H1214     1.0  0.31725  0.25860  0.80764  1.0000
  H   H1215     1.0  0.33319  0.22528  0.87548  1.0000
  H   H1216     1.0  0.33614  0.20107  0.84188  1.0000
  C   C688      1.0  0.32230  0.22861  0.60582  1.0000
  C   C689      1.0  0.32598  0.21409  0.58948  1.0000
  C   C690      1.0  0.32721  0.21556  0.55990  1.0000
  C   C691      1.0  0.32463  0.23149  0.54626  1.0000
  C   C692      1.0  0.32064  0.24592  0.56256  1.0000
  C   C693      1.0  0.31955  0.24449  0.59213  1.0000
  H   H1217     1.0  0.32822  0.20180  0.59970  1.0000
  H   H1218     1.0  0.33029  0.20428  0.54752  1.0000
  H   H1219     1.0  0.31824  0.25811  0.55232  1.0000
  H   H1220     1.0  0.31650  0.25575  0.60458  1.0000
  H   H1221     1.0  0.28731  0.25303  0.50825  1.0000
  H   H1222     1.0  0.45321  0.98614  0.53298  1.0000
  C   C694      1.0  0.27981  0.20159  0.56627  1.0000
  C   C695      1.0  0.34866  0.28194  0.61975  1.0000
  C   C696      1.0  0.27221  0.24170  0.77922  1.0000
  H   H1223     1.0  0.48470  0.11466  0.94455  1.0000
  H   H1224     1.0  0.38980  0.13388  0.59859  1.0000
  H   H1225     1.0  0.37842  0.24930  0.51744  1.0000
  C   C697      1.0  0.25321  0.19701  0.63911  1.0000
  C   C698      1.0  0.27569  0.17776  0.78907  1.0000
  C   C699      1.0  0.36550  0.25563  0.51956  1.0000
  N   N39       1.0  0.46805  0.00885  0.53650  1.0000
  H   H1226     1.0  0.44240  0.01136  0.55398  1.0000
  C   C700      1.0  0.24423  0.18048  0.80342  1.0000
  C   C701      1.0  0.23791  0.25297  0.88968  1.0000
  H   H1227     1.0  0.26219  0.22142  0.87914  1.0000
  C   C702      1.0  0.26176  0.18937  0.80249  1.0000
  C   C703      1.0  0.47981  0.01943  0.51862  1.0000
  H   H1228     1.0  0.42290  0.10431  0.52863  1.0000
  H   H1229     1.0  0.44607  0.99356  0.69900  1.0000
  H   H1230     1.0  0.33989  0.28427  0.81173  1.0000
  H   H1231     1.0  0.41596  0.02717  0.53485  1.0000
  H   H1232     1.0  0.29757  0.23732  0.88686  1.0000
  H   H1233     1.0  0.42239  0.98850  0.55764  1.0000
  N   N40       1.0  0.35399  0.31010  0.85113  1.0000
  H   H1234     1.0  0.30587  0.20983  0.90884  1.0000
  H   H1235     1.0  0.36221  0.28378  0.62566  1.0000
  C   C704      1.0  0.37494  0.26976  0.88874  1.0000
  H   H1236     1.0  0.38116  0.26765  0.90948  1.0000
  H   H1237     1.0  0.36327  0.26201  0.88815  1.0000
  H   H1238     1.0  0.38401  0.26528  0.87197  1.0000
  H   H1239     1.0  0.26818  0.23631  0.55746  1.0000
  H   H1240     1.0  0.36694  0.29871  0.57799  1.0000
  C   C705      1.0  0.44046  0.02231  0.51331  1.0000
  H   H1241     1.0  0.24374  0.23328  0.48906  1.0000
  H   H1242     1.0  0.33113  0.30288  0.77099  1.0000
  H   H1243     1.0  0.26468  0.26837  0.55587  1.0000
  H   H1244     1.0  0.24237  0.25957  0.84600  1.0000
  H   H1245     1.0  0.42830  0.04604  0.52914  1.0000
  C   C706      1.0  0.41813  0.99436  0.60151  1.0000
  H   H1246     1.0  0.36380  0.05060  0.58731  1.0000
  C   C707      1.0  0.28132  0.20410  0.53382  1.0000
  H   H1247     1.0  0.27246  0.30686  0.85460  1.0000
  H   H1248     1.0  0.31364  0.29112  0.78556  1.0000
  H   H1249     1.0  0.33998  0.27555  0.53539  1.0000
  C   C708      1.0  0.27181  0.23990  0.83255  1.0000
  C   C709      1.0  0.36725  0.27470  0.52524  1.0000
  H   H1250     1.0  0.24147  0.17623  0.78159  1.0000
  H   H1251     1.0  0.25369  0.18650  0.65499  1.0000
  H   H1252     1.0  0.45993  0.98599  0.58053  1.0000
  C   C710      1.0  0.27634  0.23506  0.53816  1.0000
  H   H1253     1.0  0.37498  0.30597  0.94196  1.0000
  H   H1254     1.0  0.27609  0.26376  0.89180  1.0000
  H   H1255     1.0  0.36159  0.29273  0.90247  1.0000
  H   H1256     1.0  0.26324  0.28005  0.83598  1.0000
  H   H1257     1.0  0.27225  0.17463  0.76710  1.0000
  H   H1258     1.0  0.35113  0.28275  0.85513  1.0000
  C   C711      1.0  0.37023  0.28879  0.88485  1.0000
  C   C712      1.0  0.32265  0.30148  0.78970  1.0000
  C   C713      1.0  0.36293  0.31192  0.53004  1.0000
  H   H1259     1.0  0.26106  0.20134  0.78984  1.0000
  H   H1260     1.0  0.47918  0.01988  0.57360  1.0000
  C   C714      1.0  0.27478  0.26268  0.86852  1.0000
  N   N41       1.0  0.39128  0.10222  0.56293  1.0000
  C   C715      1.0  0.40880  0.10917  0.56830  1.0000
  C   C716      1.0  0.37744  0.11240  0.57877  1.0000
  C   C717      1.0  0.39150  0.08409  0.57431  1.0000
  C   C718      1.0  0.38738  0.10163  0.53196  1.0000
  C   C719      1.0  0.37423  0.07479  0.57391  1.0000
  C   C720      1.0  0.37982  0.13189  0.58247  1.0000
  C   C721      1.0  0.36318  0.14093  0.59250  1.0000
  C   C722      1.0  0.37616  0.05718  0.58806  1.0000
  H   H1261     1.0  0.41182  0.10806  0.59112  1.0000
  H   H1262     1.0  0.36470  0.11064  0.56895  1.0000
  H   H1263     1.0  0.37612  0.10742  0.60074  1.0000
  H   H1264     1.0  0.39590  0.08394  0.59657  1.0000
  H   H1265     1.0  0.40071  0.07569  0.56238  1.0000
  H   H1266     1.0  0.38611  0.04906  0.57713  1.0000
  H   H1267     1.0  0.28782  0.26574  0.55737  1.0000
  H   H1268     1.0  0.42465  0.08676  0.55300  1.0000
  H   H1269     1.0  0.24359  0.20235  0.84813  1.0000
  H   H1270     1.0  0.36393  0.08212  0.58534  1.0000
  H   H1271     1.0  0.44337  0.10320  0.58378  1.0000
  H   H1272     1.0  0.46719  0.98819  0.63081  1.0000
  C   C723      1.0  0.34066  0.31430  0.87356  1.0000
  H   H1273     1.0  0.31641  0.30159  0.57393  1.0000
  H   H1274     1.0  0.37499  0.28017  0.50783  1.0000
  C   C724      1.0  0.33213  0.31029  0.53858  1.0000
  H   H1275     1.0  0.28520  0.21245  0.57778  1.0000
  H   H1276     1.0  0.37982  0.05849  0.61048  1.0000
  N   N42       1.0  0.41052  0.11268  0.74622  1.0000
  C   C725      1.0  0.42392  0.10931  0.76849  1.0000
  C   C726      1.0  0.41880  0.12118  0.72116  1.0000
  C   C727      1.0  0.39723  0.12536  0.75799  1.0000
  C   C728      1.0  0.40155  0.09668  0.73762  1.0000
  C   C729      1.0  0.41195  0.07935  0.73902  1.0000
  C   C730      1.0  0.41697  0.10373  0.79773  1.0000
  C   C731      1.0  0.38336  0.13207  0.73693  1.0000
  C   C732      1.0  0.43428  0.11152  0.70724  1.0000
  C   C733      1.0  0.44227  0.12244  0.68408  1.0000
  C   C734      1.0  0.40092  0.06463  0.72996  1.0000
  C   C735      1.0  0.43116  0.09532  0.81567  1.0000
  C   C736      1.0  0.36871  0.14196  0.75190  1.0000
  H   H1277     1.0  0.43140  0.12101  0.77187  1.0000
  H   H1278     1.0  0.43358  0.09943  0.76150  1.0000
  H   H1279     1.0  0.40936  0.12331  0.70400  1.0000
  H   H1280     1.0  0.42307  0.13413  0.72713  1.0000
  H   H1281     1.0  0.40354  0.13675  0.76666  1.0000
  H   H1282     1.0  0.39021  0.11958  0.77598  1.0000
  H   H1283     1.0  0.38992  0.09486  0.75095  1.0000
  H   H1284     1.0  0.39657  0.09814  0.71579  1.0000
  H   H1285     1.0  0.41625  0.07629  0.76070  1.0000
  H   H1286     1.0  0.42346  0.07933  0.72531  1.0000
  H   H1287     1.0  0.41174  0.11513  0.80924  1.0000
  H   H1288     1.0  0.40650  0.09459  0.79573  1.0000
  H   H1289     1.0  0.37773  0.12139  0.72533  1.0000
  H   H1290     1.0  0.38902  0.14101  0.72146  1.0000
  H   H1291     1.0  0.44458  0.10819  0.72243  1.0000
  H   H1292     1.0  0.42993  0.09977  0.69717  1.0000
  H   H1293     1.0  0.45307  0.11510  0.67392  1.0000
  H   H1294     1.0  0.43266  0.12587  0.66767  1.0000
  H   H1295     1.0  0.44730  0.13434  0.69299  1.0000
  H   H1296     1.0  0.39564  0.06711  0.70863  1.0000
  H   H1297     1.0  0.40884  0.05252  0.72958  1.0000
  H   H1298     1.0  0.39011  0.06302  0.74501  1.0000
  H   H1299     1.0  0.44199  0.10404  0.81807  1.0000
  H   H1300     1.0  0.42602  0.09226  0.83692  1.0000
  H   H1301     1.0  0.43606  0.08319  0.80592  1.0000
  H   H1302     1.0  0.35925  0.14682  0.73611  1.0000
  H   H1303     1.0  0.36197  0.13351  0.76691  1.0000
  H   H1304     1.0  0.37362  0.15310  0.76334  1.0000
  C   C737      1.0  0.38747  0.11896  0.51603  1.0000
  H   H1305     1.0  0.37078  0.28853  0.83922  1.0000
  H   H1306     1.0  0.37001  0.07274  0.55201  1.0000
  C   C738      1.0  0.36138  0.29218  0.85615  1.0000
  H   H1307     1.0  0.28815  0.21944  0.92825  1.0000
  H   H1308     1.0  0.46146  0.00532  0.94058  1.0000
  C   C739      1.0  0.24041  0.23040  0.51127  1.0000
  H   H1309     1.0  0.45574  0.07629  0.73172  1.0000
  H   H1310     1.0  0.28460  0.20198  0.90448  1.0000
  H   H1311     1.0  0.23788  0.24118  0.90285  1.0000
  H   H1312     1.0  0.35467  0.27042  0.58005  1.0000
  H   H1313     1.0  0.39926  0.12600  0.52012  1.0000
  C   C740      1.0  0.44119  0.10719  0.56155  1.0000
  N   N43       1.0  0.26573  0.24658  0.86086  1.0000
  H   H1314     1.0  0.25449  0.25590  0.80540  1.0000
  H   H1315     1.0  0.25819  0.28780  0.49419  1.0000
  S   S166      1.0  0.26496  0.26865  0.95473  1.0000
  H   H1316     1.0  0.36164  0.31250  0.50672  1.0000
  H   H1317     1.0  0.39639  0.09240  0.52115  1.0000
  H   H1318     1.0  0.24074  0.24234  0.52374  1.0000
  H   H1319     1.0  0.33334  0.27920  0.58309  1.0000
  C   C741      1.0  0.29202  0.21364  0.90785  1.0000
  H   H1320     1.0  0.34535  0.28678  0.50469  1.0000
  C   C742      1.0  0.35290  0.29846  0.57393  1.0000
  C   C743      1.0  0.27668  0.26741  0.54312  1.0000
  C   C744      1.0  0.34950  0.28440  0.52682  1.0000
  H   H1321     1.0  0.48080  0.06061  0.68958  1.0000
  C   C745      1.0  0.26642  0.28003  0.85856  1.0000
  H   H1322     1.0  0.36564  0.15444  0.59783  1.0000
  H   H1323     1.0  0.29305  0.21958  0.86423  1.0000
  H   H1324     1.0  0.48056  0.00604  0.62348  1.0000
  N   N44       1.0  0.27163  0.21949  0.52152  1.0000
  H   H1325     1.0  0.37442  0.09658  0.52858  1.0000
  H   H1326     1.0  0.26507  0.20436  0.64108  1.0000
  C   C746      1.0  0.41526  0.98730  0.62817  1.0000
  C   C747      1.0  0.34686  0.28160  0.58778  1.0000
  H   H1327     1.0  0.26607  0.19245  0.82398  1.0000
  H   H1328     1.0  0.31504  0.31360  0.79309  1.0000
  H   H1329     1.0  0.35803  0.13453  0.61155  1.0000
  C   C748      1.0  0.46161  0.06893  0.74865  1.0000
  C   C749      1.0  0.31607  0.30166  0.55059  1.0000
  H   H1330     1.0  0.44157  0.12135  0.55985  1.0000
  H   H1331     1.0  0.45181  0.10150  0.54852  1.0000
  H   H1332     1.0  0.27798  0.27954  0.53116  1.0000
  H   H1333     1.0  0.35860  0.24939  0.53718  1.0000
  H   H1334     1.0  0.32435  0.29525  0.83377  1.0000
  H   H1335     1.0  0.28416  0.17382  0.56643  1.0000
  H   H1336     1.0  0.28600  0.23791  0.83221  1.0000
  H   H1337     1.0  0.45306  0.03094  0.55102  1.0000
  C   C750      1.0  0.29969  0.31168  0.54212  1.0000
  C   C751      1.0  0.34671  0.31056  0.82179  1.0000
  C   C752      1.0  0.28909  0.22642  0.88374  1.0000
  C   C753      1.0  0.24647  0.28169  0.48877  1.0000
  H   H1338     1.0  0.38233  0.29575  0.88630  1.0000
  C   C754      1.0  0.25268  0.21651  0.52423  1.0000
  C   C755      1.0  0.42460  0.03373  0.51988  1.0000
  H   H1339     1.0  0.27755  0.16569  0.80134  1.0000
  H   H1340     1.0  0.26334  0.23107  0.77645  1.0000
  C   C756      1.0  0.47017  0.04165  0.76941  1.0000
  H   H1341     1.0  0.44033  0.00462  0.98088  1.0000
  S   S167      1.0  0.32601  0.23252  0.50888  1.0000
  H   H1342     1.0  0.25297  0.19131  0.61780  1.0000
  C   C757      1.0  0.47145  0.00938  0.95539  1.0000
  H   H1343     1.0  0.28817  0.26195  0.86037  1.0000
  H   H1344     1.0  0.47577  0.08170  0.96536  1.0000
  H   H1345     1.0  0.23760  0.21897  0.62746  1.0000
  H   H1346     1.0  0.25434  0.28292  0.87037  1.0000
  C   C758      1.0  0.46863  0.07728  0.77189  1.0000
  C   C759      1.0  0.26809  0.25138  0.80648  1.0000
  C   C760      1.0  0.45109  0.01858  0.54014  1.0000
  C   C761      1.0  0.47762  0.06800  0.55276  1.0000
  H   H1347     1.0  0.45412  0.00671  0.59490  1.0000
  H   H1348     1.0  0.24046  0.23749  0.85227  1.0000
  H   H1349     1.0  0.46806  0.09112  0.77273  1.0000
  H   H1350     1.0  0.45169  0.06015  0.49730  1.0000
  H   H1351     1.0  0.37610  0.12701  0.52239  1.0000
  H   H1352     1.0  0.26441  0.25450  0.50968  1.0000
  C   C762      1.0  0.47600  0.00703  0.56534  1.0000
  H   H1353     1.0  0.31505  0.28841  0.54292  1.0000
  H   H1354     1.0  0.34722  0.30941  0.58617  1.0000
  C   C763      1.0  0.47677  0.06788  0.79371  1.0000
  H   H1355     1.0  0.27650  0.26254  0.80677  1.0000
  S   S168      1.0  0.47751  0.06994  0.59001  1.0000
  H   H1356     1.0  0.27550  0.22793  0.97406  1.0000
  H   H1357     1.0  0.28970  0.23354  0.54589  1.0000
  H   H1358     1.0  0.37588  0.30600  0.53390  1.0000
  H   H1359     1.0  0.28838  0.30574  0.55196  1.0000
  H   H1360     1.0  0.26628  0.20037  0.57296  1.0000
  H   H1361     1.0  0.35722  0.30871  0.80593  1.0000
  H   H1362     1.0  0.37455  0.27596  0.54498  1.0000
  H   H1363     1.0  0.29529  0.20477  0.52868  1.0000
  H   H1364     1.0  0.24962  0.20388  0.51527  1.0000
  H   H1365     1.0  0.33407  0.30254  0.88049  1.0000
  H   H1366     1.0  0.27700  0.19206  0.52428  1.0000
  H   H1367     1.0  0.34036  0.29236  0.62891  1.0000
  Fe  Fe88      1.0  0.32629  0.25713  0.97875  1.0000
  H   H1368     1.0  0.28883  0.18415  0.59916  1.0000
  H   H1369     1.0  0.24490  0.26274  0.90134  1.0000
  C   C764      1.0  0.24209  0.16636  0.71996  1.0000
  H   H1370     1.0  0.35842  0.25369  0.49978  1.0000
  C   C765      1.0  0.46549  0.99119  0.52475  1.0000
  C   C766      1.0  0.27599  0.25252  0.52255  1.0000
  C   C767      1.0  0.27824  0.29486  0.86362  1.0000
  C   C768      1.0  0.28966  0.18535  0.57587  1.0000
  H   H1371     1.0  0.27071  0.25054  0.76093  1.0000
  H   H1372     1.0  0.48006  0.01812  0.94394  1.0000
  H   H1373     1.0  0.26643  0.22711  0.82873  1.0000
  H   H1374     1.0  0.26679  0.23753  0.90411  1.0000
  H   H1375     1.0  0.47079  0.02781  0.76860  1.0000
  H   H1376     1.0  0.29101  0.29238  0.85360  1.0000
  C   C769      1.0  0.24235  0.18424  0.71966  1.0000
  C   C770      1.0  0.24645  0.24911  0.86062  1.0000
  C   C771      1.0  0.23743  0.20887  0.64394  1.0000
  C   C772      1.0  0.46560  0.98938  0.49216  1.0000
  C   C773      1.0  0.47888  0.06353  0.49355  1.0000
  H   H1377     1.0  0.47924  0.99803  0.96252  1.0000
  H   H1378     1.0  0.45646  0.03033  0.97243  1.0000
  H   H1379     1.0  0.48358  0.04260  0.80904  1.0000
  H   H1380     1.0  0.33005  0.31277  0.51571  1.0000
  H   H1381     1.0  0.43063  0.30652  0.49458  1.0000
  H   H1382     1.0  0.27983  0.29675  0.88655  1.0000
  H   H1383     1.0  0.48026  0.03259  0.52727  1.0000
  C   C774      1.0  0.46328  0.01867  0.98065  1.0000
  H   H1384     1.0  0.23891  0.21500  0.66476  1.0000
  H   H1385     1.0  0.37892  0.31811  0.83711  1.0000
  S   S169      1.0  0.48646  0.07906  0.82149  1.0000
  Fe  Fe89      1.0  0.41444  0.57017  0.32777  1.0000
  S   S170      1.0  0.43678  0.58572  0.31516  1.0000
  S   S171      1.0  0.38674  0.58142  0.32707  1.0000
  Fe  Fe90      1.0  0.43799  0.53755  0.33849  1.0000
  S   S172      1.0  0.46160  0.55161  0.32574  1.0000
  S   S173      1.0  0.44652  0.51057  0.35263  1.0000
  Fe  Fe91      1.0  0.45026  0.57301  0.35228  1.0000
  C   C775      1.0  0.40301  0.59869  0.41884  1.0000
  Fe  Fe92      1.0  0.44588  0.56267  0.28999  1.0000
  S   S174      1.0  0.44958  0.56164  0.24215  1.0000
  S   S175      1.0  0.42738  0.55865  0.36631  1.0000
  S   S176      1.0  0.42284  0.54739  0.30132  1.0000
  Fe  Fe93      1.0  0.42085  0.37693  0.40118  1.0000
  S   S177      1.0  0.44913  0.37479  0.41139  1.0000
  S   S178      1.0  0.40633  0.35154  0.40263  1.0000
  Fe  Fe94      1.0  0.42351  0.41591  0.38918  1.0000
  S   S179      1.0  0.45141  0.41593  0.39959  1.0000
  S   S180      1.0  0.40909  0.44076  0.37695  1.0000
  Fe  Fe95      1.0  0.45336  0.39192  0.37355  1.0000
  C   C776      1.0  0.35911  0.32507  0.44234  1.0000
  Fe  Fe96      1.0  0.44470  0.39896  0.43618  1.0000
  H   H1386     1.0  0.41560  0.59221  0.42376  1.0000
  S   S181      1.0  0.42558  0.39253  0.36145  1.0000
  S   S182      1.0  0.41631  0.40048  0.42751  1.0000
  H   H1387     1.0  0.39102  0.64317  0.30414  1.0000
  C   C777      1.0  0.46399  0.40784  0.00377  1.0000
  C   C778      1.0  0.43479  0.36836  0.03567  1.0000
  N   N45       1.0  0.44268  0.44891  0.28559  1.0000
  H   H1388     1.0  0.40139  0.58369  0.38044  1.0000
  H   H1389     1.0  0.43202  0.34691  0.06533  1.0000
  H   H1390     1.0  0.48189  0.38334  0.47638  1.0000
  C   C779      1.0  0.46168  0.39259  0.26112  1.0000
  C   C780      1.0  0.46115  0.39086  0.29070  1.0000
  C   C781      1.0  0.47627  0.39137  0.30624  1.0000
  H   H1391     1.0  0.34003  0.62475  0.31153  1.0000
  H   H1392     1.0  0.44992  0.39198  0.24931  1.0000
  H   H1393     1.0  0.44908  0.38891  0.30144  1.0000
  H   H1394     1.0  0.40550  0.41879  0.32805  1.0000
  C   C782      1.0  0.43544  0.49161  0.35959  1.0000
  C   C783      1.0  0.41757  0.49088  0.35876  1.0000
  C   C784      1.0  0.40962  0.47524  0.36429  1.0000
  C   C785      1.0  0.41944  0.46029  0.37075  1.0000
  C   C786      1.0  0.43729  0.46112  0.37158  1.0000
  C   C787      1.0  0.44520  0.47667  0.36603  1.0000
  H   H1395     1.0  0.40989  0.50229  0.35382  1.0000
  H   H1396     1.0  0.39578  0.47472  0.36353  1.0000
  H   H1397     1.0  0.44503  0.44973  0.37615  1.0000
  H   H1398     1.0  0.45904  0.47707  0.36624  1.0000
  H   H1399     1.0  0.40445  0.62764  0.44847  1.0000
  C   C788      1.0  0.46544  0.56198  0.19044  1.0000
  C   C789      1.0  0.46719  0.56534  0.21930  1.0000
  H   H1400     1.0  0.35222  0.59555  0.32217  1.0000
  C   C790      1.0  0.46430  0.41473  0.03104  1.0000
  H   H1401     1.0  0.45351  0.55720  0.18281  1.0000
  H   H1402     1.0  0.44842  0.44007  0.19857  1.0000
  H   H1403     1.0  0.47309  0.50978  0.40998  1.0000
  H   H1404     1.0  0.40200  0.36280  0.04209  1.0000
  H   H1405     1.0  0.46545  0.52274  0.26213  1.0000
  H   H1406     1.0  0.47112  0.52704  0.21208  1.0000
  H   H1407     1.0  0.44554  0.37618  0.02786  1.0000
  H   H1408     1.0  0.47425  0.42835  0.28607  1.0000
  C   C791      1.0  0.40679  0.39381  0.01438  1.0000
  C   C792      1.0  0.40502  0.41882  0.30474  1.0000
  H   H1409     1.0  0.44368  0.34010  0.44104  1.0000
  C   C793      1.0  0.38781  0.34196  0.41813  1.0000
  C   C794      1.0  0.37784  0.34985  0.43938  1.0000
  H   H1410     1.0  0.39575  0.59947  0.43915  1.0000
  C   C795      1.0  0.48594  0.39330  0.04549  1.0000
  H   H1411     1.0  0.38095  0.36248  0.44644  1.0000
  H   H1412     1.0  0.42797  0.37661  0.05144  1.0000
  C   C796      1.0  0.36461  0.63610  0.30706  1.0000
  C   C797      1.0  0.38250  0.63278  0.30798  1.0000
  C   C798      1.0  0.38945  0.61616  0.31363  1.0000
  C   C799      1.0  0.37864  0.60259  0.31898  1.0000
  C   C800      1.0  0.36077  0.60590  0.31813  1.0000
  C   C801      1.0  0.35379  0.62248  0.31207  1.0000
  C   C802      1.0  0.36368  0.34145  0.45139  1.0000
  H   H1413     1.0  0.40317  0.61384  0.31379  1.0000
  C   C803      1.0  0.44594  0.44246  0.25607  1.0000
  H   H1414     1.0  0.35605  0.34782  0.46759  1.0000
  H   H1415     1.0  0.38775  0.36437  0.99341  1.0000
  H   H1416     1.0  0.42273  0.46590  0.26848  1.0000
  H   H1417     1.0  0.48324  0.52935  0.16362  1.0000
  C   C804      1.0  0.43147  0.62004  0.44052  1.0000
  S   S183      1.0  0.47644  0.38898  0.34352  1.0000
  H   H1418     1.0  0.43822  0.42259  0.29770  1.0000
  H   H1419     1.0  0.46446  0.48012  0.41584  1.0000
  C   C805      1.0  0.45921  0.45086  0.30132  1.0000
  H   H1420     1.0  0.41742  0.52825  0.43512  1.0000
  C   C806      1.0  0.39297  0.35225  0.00277  1.0000
  H   H1421     1.0  0.37873  0.56308  0.23621  1.0000
  C   C807      1.0  0.44227  0.35276  0.05251  1.0000
  H   H1422     1.0  0.47236  0.55222  0.39783  1.0000
  H   H1423     1.0  0.44177  0.61527  0.15381  1.0000
  H   H1424     1.0  0.46809  0.45817  0.24499  1.0000
  N   N46       1.0  0.42296  0.36421  0.01192  1.0000
  H   H1425     1.0  0.41145  0.34277  0.03285  1.0000
  C   C808      1.0  0.47173  0.47065  0.00285  1.0000
  H   H1426     1.0  0.44161  0.64091  0.33776  1.0000
  H   H1427     1.0  0.48421  0.57417  0.25100  1.0000
  C   C809      1.0  0.47727  0.39489  0.24668  1.0000
  H   H1428     1.0  0.43787  0.50998  0.27990  1.0000
  C   C810      1.0  0.23723  0.32391  0.46372  1.0000
  H   H1429     1.0  0.48299  0.53684  0.25798  1.0000
  C   C811      1.0  0.47053  0.48604  0.43424  1.0000
  H   H1430     1.0  0.44770  0.46570  0.23053  1.0000
  H   H1431     1.0  0.41129  0.43481  0.26976  1.0000
  C   C812      1.0  0.41310  0.43488  0.29281  1.0000
  H   H1432     1.0  0.40569  0.44610  0.30143  1.0000
  H   H1433     1.0  0.45899  0.46619  0.47614  1.0000
  H   H1434     1.0  0.43890  0.54159  0.01549  1.0000
  C   C813      1.0  0.41345  0.62663  0.43014  1.0000
  C   C814      1.0  0.44434  0.52202  0.44411  1.0000
  C   C815      1.0  0.43238  0.46572  0.28564  1.0000
  H   H1435     1.0  0.41178  0.40707  0.29665  1.0000
  C   C816      1.0  0.43040  0.49815  0.27973  1.0000
  H   H1436     1.0  0.43658  0.51382  0.99240  1.0000
  H   H1437     1.0  0.41947  0.45536  0.47226  1.0000
  H   H1438     1.0  0.35735  0.64350  0.39771  1.0000
  H   H1439     1.0  0.46757  0.46012  0.29067  1.0000
  N   N47       1.0  0.45704  0.49120  0.45580  1.0000
  H   H1440     1.0  0.42367  0.49746  0.25930  1.0000
  C   C817      1.0  0.44289  0.50227  0.44242  1.0000
  C   C818      1.0  0.47548  0.55954  0.41622  1.0000
  C   C819      1.0  0.45419  0.46769  0.01626  1.0000
  H   H1441     1.0  0.46737  0.36293  0.06054  1.0000
  H   H1442     1.0  0.45085  0.45406  0.01414  1.0000
  H   H1443     1.0  0.44933  0.45805  0.43004  1.0000
  H   H1444     1.0  0.44803  0.34276  0.03859  1.0000
  C   C820      1.0  0.47524  0.40754  0.05181  1.0000
  H   H1445     1.0  0.42937  0.38749  0.98985  1.0000
  C   C821      1.0  0.46015  0.44508  0.20819  1.0000
  H   H1446     1.0  0.45207  0.48244  0.26659  1.0000
  H   H1447     1.0  0.44142  0.49892  0.41982  1.0000
  H   H1448     1.0  0.44278  0.52636  0.46624  1.0000
  H   H1449     1.0  0.42983  0.63955  0.38502  1.0000
  C   C822      1.0  0.47392  0.51216  0.11673  1.0000
  H   H1450     1.0  0.46592  0.45414  0.19305  1.0000
  H   H1451     1.0  0.42253  0.60107  0.47089  1.0000
  H   H1452     1.0  0.43137  0.52751  0.40449  1.0000
  C   C823      1.0  0.48622  0.46083  0.01916  1.0000
  C   C824      1.0  0.36707  0.63065  0.22529  1.0000
  H   H1453     1.0  0.40315  0.56312  0.42089  1.0000
  H   H1454     1.0  0.45130  0.36842  0.08696  1.0000
  H   H1455     1.0  0.45782  0.63393  0.26256  1.0000
  C   C825      1.0  0.42991  0.44995  0.45860  1.0000
  H   H1456     1.0  0.45631  0.45638  0.32236  1.0000
  S   S184      1.0  0.45093  0.40578  0.48156  1.0000
  C   C826      1.0  0.43670  0.62856  0.34550  1.0000
  H   H1457     1.0  0.43190  0.54533  0.42829  1.0000
  H   H1458     1.0  0.39093  0.31915  0.39307  1.0000
  H   H1459     1.0  0.44772  0.62051  0.35334  1.0000
  H   H1460     1.0  0.46971  0.52590  0.11635  1.0000
  H   H1461     1.0  0.35535  0.63029  0.21223  1.0000
  C   C827      1.0  0.43982  0.46425  0.44460  1.0000
  H   H1462     1.0  0.45684  0.52626  0.43619  1.0000
  H   H1463     1.0  0.42078  0.49903  0.29709  1.0000
  H   H1464     1.0  0.47534  0.41291  0.07272  1.0000
  H   H1465     1.0  0.45254  0.32340  0.46274  1.0000
  C   C828      1.0  0.39073  0.56918  0.41423  1.0000
  H   H1466     1.0  0.44951  0.48441  0.30375  1.0000
  C   C829      1.0  0.47637  0.58652  0.44058  1.0000
  H   H1467     1.0  0.45601  0.42566  0.03620  1.0000
  C   C830      1.0  0.43035  0.53129  0.42694  1.0000
  C   C831      1.0  0.44250  0.48251  0.28384  1.0000
  H   H1468     1.0  0.38453  0.56042  0.39943  1.0000
  N   N48       1.0  0.40549  0.61645  0.40707  1.0000
  H   H1469     1.0  0.42405  0.44202  0.44217  1.0000
  C   C832      1.0  0.38797  0.62409  0.39938  1.0000
  C   C833      1.0  0.41685  0.61494  0.38120  1.0000
  C   C834      1.0  0.42348  0.63189  0.36889  1.0000
  C   C835      1.0  0.44911  0.47506  0.46678  1.0000
  H   H1470     1.0  0.42679  0.63373  0.25302  1.0000
  H   H1471     1.0  0.46422  0.36039  0.46455  1.0000
  H   H1472     1.0  0.47671  0.50866  0.17293  1.0000
  C   C836      1.0  0.43236  0.43565  0.30097  1.0000
  H   H1473     1.0  0.42490  0.46705  0.30569  1.0000
  H   H1474     1.0  0.38261  0.56034  0.27331  1.0000
  H   H1475     1.0  0.38435  0.62008  0.37781  1.0000
  H   H1476     1.0  0.48175  0.32743  0.44146  1.0000
  H   H1477     1.0  0.42808  0.60607  0.38503  1.0000
  H   H1478     1.0  0.40997  0.60872  0.36386  1.0000
  H   H1479     1.0  0.46951  0.43425  0.21186  1.0000
  H   H1480     1.0  0.47017  0.51256  0.47395  1.0000
  H   H1481     1.0  0.45048  0.59374  0.14987  1.0000
  H   H1482     1.0  0.47666  0.33664  0.21398  1.0000
  C   C837      1.0  0.48135  0.50056  0.42204  1.0000
  S   S185      1.0  0.47713  0.39682  0.20935  1.0000
  C   C838      1.0  0.48392  0.57818  0.46417  1.0000
  H   H1483     1.0  0.43365  0.44017  0.24539  1.0000
  H   H1484     1.0  0.43943  0.62632  0.22339  1.0000
  H   H1485     1.0  0.47117  0.35852  0.22398  1.0000
  H   H1486     1.0  0.24879  0.32012  0.45108  1.0000
  H   H1487     1.0  0.46353  0.50444  0.12583  1.0000
  C   C839      1.0  0.48268  0.57151  0.22888  1.0000
  H   H1488     1.0  0.46325  0.42501  0.31927  1.0000
  H   H1489     1.0  0.41439  0.33544  0.45750  1.0000
  H   H1490     1.0  0.43262  0.43779  0.32413  1.0000
  S   S186      1.0  0.46306  0.58809  0.38677  1.0000
  H   H1491     1.0  0.45268  0.42966  0.25652  1.0000
  H   H1492     1.0  0.41273  0.63951  0.35940  1.0000
  C   C840      1.0  0.47842  0.34137  0.44076  1.0000
  H   H1493     1.0  0.44420  0.47573  0.00548  1.0000
  H   H1494     1.0  0.47939  0.47585  0.44279  1.0000
  H   H1495     1.0  0.36854  0.64686  0.36473  1.0000
  H   H1496     1.0  0.43057  0.47211  0.43195  1.0000
  H   H1497     1.0  0.36337  0.62797  0.24747  1.0000
  H   H1498     1.0  0.43265  0.33894  0.99930  1.0000
  H   H1499     1.0  0.48481  0.48295  0.18676  1.0000
  C   C841      1.0  0.44897  0.33730  0.46241  1.0000
  H   H1500     1.0  0.45415  0.47116  0.03890  1.0000
  C   C842      1.0  0.47898  0.52349  0.25487  1.0000
  H   H1501     1.0  0.37784  0.61896  0.41350  1.0000
  H   H1502     1.0  0.41428  0.39867  0.03218  1.0000
  H   H1503     1.0  0.39135  0.41860  0.29847  1.0000
  H   H1504     1.0  0.42661  0.36340  0.45990  1.0000
  H   H1505     1.0  0.46077  0.34704  0.08550  1.0000
  H   H1506     1.0  0.38222  0.57101  0.43291  1.0000
  C   C843      1.0  0.40111  0.40930  0.99655  1.0000
  H   H1507     1.0  0.37215  0.64373  0.22388  1.0000
  H   H1508     1.0  0.42841  0.59855  0.14096  1.0000
  C   C844      1.0  0.47032  0.43433  0.30632  1.0000
  H   H1509     1.0  0.39922  0.55427  0.24834  1.0000
  C   C845      1.0  0.45623  0.35818  0.07260  1.0000
  C   C846      1.0  0.40754  0.35552  0.02393  1.0000
  H   H1510     1.0  0.39344  0.41850  0.00968  1.0000
  C   C847      1.0  0.38336  0.32550  0.40937  1.0000
  H   H1511     1.0  0.43978  0.47829  0.48405  1.0000
  N   N49       1.0  0.41101  0.60468  0.22488  1.0000
  C   C848      1.0  0.39717  0.61796  0.23206  1.0000
  C   C849      1.0  0.42530  0.60606  0.24583  1.0000
  C   C850      1.0  0.41725  0.60783  0.19520  1.0000
  C   C851      1.0  0.40439  0.58679  0.22647  1.0000
  C   C852      1.0  0.39541  0.58181  0.25441  1.0000
  C   C853      1.0  0.38040  0.61724  0.21490  1.0000
  C   C854      1.0  0.43356  0.59720  0.18600  1.0000
  C   C855      1.0  0.43512  0.62299  0.24493  1.0000
  C   C856      1.0  0.45115  0.62162  0.26318  1.0000
  C   C857      1.0  0.38860  0.56375  0.25282  1.0000
  H   H1512     1.0  0.46015  0.61135  0.25524  1.0000
  C   C858      1.0  0.43880  0.60151  0.15580  1.0000
  H   H1513     1.0  0.40201  0.63107  0.22892  1.0000
  H   H1514     1.0  0.39374  0.61730  0.25479  1.0000
  H   H1515     1.0  0.42018  0.60493  0.26765  1.0000
  H   H1516     1.0  0.43471  0.59512  0.24364  1.0000
  H   H1517     1.0  0.41961  0.62164  0.19164  1.0000
  H   H1518     1.0  0.40706  0.60488  0.17990  1.0000
  H   H1519     1.0  0.39546  0.58449  0.20888  1.0000
  H   H1520     1.0  0.41513  0.57717  0.22355  1.0000
  H   H1521     1.0  0.38436  0.59063  0.25939  1.0000
  H   H1522     1.0  0.40460  0.58196  0.27205  1.0000
  H   H1523     1.0  0.38294  0.61987  0.19230  1.0000
  H   H1524     1.0  0.37454  0.60457  0.21688  1.0000
  H   H1525     1.0  0.43126  0.58329  0.18694  1.0000
  H   H1526     1.0  0.44467  0.59974  0.19957  1.0000
  C   C859      1.0  0.47472  0.39366  0.99745  1.0000
  H   H1527     1.0  0.43789  0.61062  0.42631  1.0000
  N   N50       1.0  0.43551  0.34149  0.48459  1.0000
  H   H1528     1.0  0.44770  0.61873  0.28534  1.0000
  C   C860      1.0  0.39357  0.58631  0.39950  1.0000
  C   C861      1.0  0.47209  0.57723  0.41649  1.0000
  C   C862      1.0  0.45584  0.45421  0.23586  1.0000
  H   H1529     1.0  0.38084  0.59164  0.39289  1.0000
  H   H1530     1.0  0.38241  0.33074  0.02586  1.0000
  H   H1531     1.0  0.48186  0.44764  0.02280  1.0000
  H   H1532     1.0  0.47740  0.56217  0.14914  1.0000
  H   H1533     1.0  0.43021  0.49972  0.45235  1.0000
  H   H1534     1.0  0.44013  0.63104  0.44120  1.0000
  H   H1535     1.0  0.43070  0.62210  0.32763  1.0000
  C   C863      1.0  0.48333  0.55132  0.43949  1.0000
  C   C864      1.0  0.43000  0.36017  0.48212  1.0000
  C   C865      1.0  0.47898  0.56472  0.17130  1.0000
  C   C866      1.0  0.46620  0.34631  0.46497  1.0000
  H   H1536     1.0  0.47380  0.60021  0.44105  1.0000
  H   H1537     1.0  0.47614  0.50532  0.22182  1.0000
  C   C867      1.0  0.48663  0.43816  0.32234  1.0000
  C   C868      1.0  0.44502  0.53953  0.99455  1.0000
  C   C869      1.0  0.23749  0.64896  0.25353  1.0000
  H   H1538     1.0  0.39499  0.38811  0.02285  1.0000
  C   C870      1.0  0.37807  0.34339  0.01717  1.0000
  H   H1539     1.0  0.30373  0.64992  0.20070  1.0000
  H   H1540     1.0  0.45911  0.35672  0.99868  1.0000
  C   C871      1.0  0.43170  0.35229  0.99096  1.0000
  H   H1541     1.0  0.41493  0.64016  0.42370  1.0000
  C   C872      1.0  0.48037  0.51859  0.22382  1.0000
  H   H1542     1.0  0.47637  0.50800  0.09469  1.0000
  C   C873      1.0  0.43090  0.61224  0.47012  1.0000
  H   H1543     1.0  0.36784  0.34126  0.00161  1.0000
  H   H1544     1.0  0.45879  0.53596  0.99771  1.0000
  H   H1545     1.0  0.37252  0.35146  0.03437  1.0000
  H   H1546     1.0  0.43862  0.44153  0.47139  1.0000
  C   C874      1.0  0.41780  0.38068  0.99689  1.0000
  C   C875      1.0  0.42002  0.33119  0.47798  1.0000
  C   C876      1.0  0.46460  0.50026  0.48055  1.0000
  C   C877      1.0  0.47996  0.35024  0.21099  1.0000
  S   S187      1.0  0.48439  0.57726  0.01838  1.0000
  C   C878      1.0  0.38527  0.64385  0.40113  1.0000
  H   H1547     1.0  0.48627  0.53773  0.43872  1.0000
  H   H1548     1.0  0.38474  0.64783  0.42354  1.0000
  H   H1549     1.0  0.47802  0.35379  0.18854  1.0000
  H   H1550     1.0  0.47520  0.43605  0.46395  1.0000
  H   H1551     1.0  0.24393  0.63698  0.25944  1.0000
  H   H1552     1.0  0.47257  0.34460  0.42010  1.0000
  C   C879      1.0  0.48553  0.38638  0.01826  1.0000
  H   H1553     1.0  0.48336  0.44397  0.34307  1.0000
  H   H1554     1.0  0.44404  0.60781  0.47634  1.0000
  H   H1555     1.0  0.47370  0.48465  0.00317  1.0000
  H   H1556     1.0  0.41244  0.41595  0.98815  1.0000
  H   H1557     1.0  0.48672  0.46653  0.04056  1.0000
  H   H1558     1.0  0.39569  0.65076  0.39067  1.0000
  C   C880      1.0  0.36837  0.64982  0.38756  1.0000
  H   H1559     1.0  0.39772  0.34383  0.98550  1.0000
  H   H1560     1.0  0.47279  0.34231  0.48464  1.0000
  Fe  Fe97      1.0  0.42405  0.57791  0.82285  1.0000
  S   S188      1.0  0.45297  0.57854  0.82748  1.0000
  S   S189      1.0  0.41093  0.60491  0.81757  1.0000
  Fe  Fe98      1.0  0.42596  0.53849  0.82154  1.0000
  S   S190      1.0  0.45447  0.53694  0.82463  1.0000
  S   S191      1.0  0.40981  0.51506  0.81622  1.0000
  Fe  Fe99      1.0  0.45095  0.55683  0.85860  1.0000
  H   H1561     1.0  0.39179  0.62790  0.90874  1.0000
  Fe  Fe100     1.0  0.45445  0.55869  0.79340  1.0000
  H   H1562     1.0  0.39860  0.58045  0.75214  1.0000
  S   S192      1.0  0.42198  0.55742  0.85690  1.0000
  S   S193      1.0  0.42593  0.55885  0.78742  1.0000
  Fe  Fe101     1.0  0.42289  0.38043  0.90437  1.0000
  S   S194      1.0  0.45117  0.38197  0.91466  1.0000
  S   S195      1.0  0.41078  0.35423  0.91384  1.0000
  Fe  Fe102     1.0  0.42173  0.41841  0.88507  1.0000
  S   S196      1.0  0.44913  0.42227  0.89531  1.0000
  S   S197      1.0  0.40426  0.43978  0.86783  1.0000
  Fe  Fe103     1.0  0.45387  0.39684  0.87394  1.0000
  H   H1563     1.0  0.47118  0.46639  0.98069  1.0000
  Fe  Fe104     1.0  0.44406  0.40719  0.93487  1.0000
  C   C881      1.0  0.32816  0.64757  0.88126  1.0000
  S   S198      1.0  0.42637  0.39349  0.86191  1.0000
  S   S199      1.0  0.41588  0.40517  0.92619  1.0000
  C   C882      1.0  0.48042  0.56950  0.98398  1.0000
  N   N51       1.0  0.43593  0.50944  0.93116  1.0000
  C   C883      1.0  0.46305  0.40057  0.53491  1.0000
  H   H1564     1.0  0.40171  0.31949  0.92558  1.0000
  H   H1565     1.0  0.45213  0.40861  0.54129  1.0000
  H   H1566     1.0  0.42379  0.35145  0.97167  1.0000
  H   H1567     1.0  0.46760  0.61295  0.80231  1.0000
  C   C884      1.0  0.46525  0.38356  0.76433  1.0000
  C   C885      1.0  0.46419  0.38620  0.79363  1.0000
  C   C886      1.0  0.46869  0.61331  0.66404  1.0000
  C   C887      1.0  0.47764  0.56603  0.66442  1.0000
  H   H1568     1.0  0.45459  0.37812  0.75356  1.0000
  H   H1569     1.0  0.45280  0.38278  0.80522  1.0000
  H   H1570     1.0  0.38983  0.53301  0.89945  1.0000
  C   C888      1.0  0.40991  0.49416  0.83122  1.0000
  C   C889      1.0  0.39435  0.48584  0.83141  1.0000
  C   C890      1.0  0.39314  0.46935  0.84276  1.0000
  C   C891      1.0  0.40750  0.46062  0.85395  1.0000
  C   C892      1.0  0.42335  0.46869  0.85354  1.0000
  C   C893      1.0  0.42457  0.48546  0.84202  1.0000
  H   H1571     1.0  0.38299  0.49229  0.82290  1.0000
  H   H1572     1.0  0.38087  0.46331  0.84283  1.0000
  H   H1573     1.0  0.43452  0.46209  0.86223  1.0000
  H   H1574     1.0  0.43675  0.49161  0.84120  1.0000
  H   H1575     1.0  0.46693  0.47298  0.76534  1.0000
  H   H1576     1.0  0.34792  0.60461  0.80177  1.0000
  H   H1577     1.0  0.48637  0.44607  0.71348  1.0000
  H   H1578     1.0  0.39922  0.63972  0.80723  1.0000
  C   C894      1.0  0.44594  0.60868  0.70174  1.0000
  C   C895      1.0  0.47299  0.49920  0.87686  1.0000
  C   C896      1.0  0.46430  0.57221  0.93989  1.0000
  H   H1579     1.0  0.36298  0.63887  0.86422  1.0000
  H   H1580     1.0  0.41639  0.51897  0.87984  1.0000
  H   H1581     1.0  0.46619  0.35379  0.56794  1.0000
  H   H1582     1.0  0.45478  0.57898  0.92720  1.0000
  H   H1583     1.0  0.40989  0.49863  0.89314  1.0000
  H   H1584     1.0  0.44951  0.55784  0.71829  1.0000
  H   H1585     1.0  0.35692  0.34653  0.86624  1.0000
  H   H1586     1.0  0.23890  0.31872  0.48537  1.0000
  H   H1587     1.0  0.45810  0.33164  0.96706  1.0000
  C   C897      1.0  0.39093  0.34529  0.92524  1.0000
  C   C898      1.0  0.37596  0.35526  0.93045  1.0000
  C   C899      1.0  0.36069  0.34748  0.93949  1.0000
  H   H1588     1.0  0.40224  0.36292  0.48911  1.0000
  H   H1589     1.0  0.37612  0.36900  0.92753  1.0000
  H   H1590     1.0  0.34928  0.35542  0.94346  1.0000
  C   C900      1.0  0.35723  0.63018  0.79826  1.0000
  C   C901      1.0  0.35912  0.61235  0.80275  1.0000
  C   C902      1.0  0.37534  0.60434  0.80833  1.0000
  C   C903      1.0  0.39001  0.61409  0.80998  1.0000
  C   C904      1.0  0.38809  0.63195  0.80577  1.0000
  C   C905      1.0  0.37194  0.63990  0.79956  1.0000
  C   C906      1.0  0.43548  0.49236  0.94618  1.0000
  H   H1591     1.0  0.37645  0.59063  0.81156  1.0000
  C   C907      1.0  0.46144  0.56078  0.70791  1.0000
  S   S200      1.0  0.47769  0.56883  0.62731  1.0000
  H   H1592     1.0  0.47702  0.59417  0.78519  1.0000
  H   H1593     1.0  0.31690  0.63543  0.84498  1.0000
  H   H1594     1.0  0.41534  0.60621  0.75382  1.0000
  H   H1595     1.0  0.47806  0.50548  0.68964  1.0000
  C   C908      1.0  0.43460  0.63243  0.73178  1.0000
  H   H1596     1.0  0.38310  0.51243  0.91269  1.0000
  H   H1597     1.0  0.42627  0.44963  0.93300  1.0000
  C   C909      1.0  0.46686  0.61379  0.75642  1.0000
  C   C910      1.0  0.44880  0.60641  0.75382  1.0000
  H   H1598     1.0  0.44514  0.41522  0.77812  1.0000
  S   S201      1.0  0.47630  0.56001  0.76099  1.0000
  C   C911      1.0  0.36870  0.32212  0.85251  1.0000
  H   H1599     1.0  0.40255  0.56502  0.72464  1.0000
  C   C912      1.0  0.48650  0.50153  0.51966  1.0000
  C   C913      1.0  0.41792  0.51670  0.92586  1.0000
  H   H1600     1.0  0.42394  0.46102  0.96566  1.0000
  H   H1601     1.0  0.47713  0.44685  0.76351  1.0000
  C   C914      1.0  0.40955  0.51252  0.89732  1.0000
  H   H1602     1.0  0.30621  0.34362  0.88560  1.0000
  C   C915      1.0  0.46670  0.43770  0.76150  1.0000
  H   H1603     1.0  0.43343  0.49302  0.78000  1.0000
  H   H1604     1.0  0.44596  0.52119  0.89350  1.0000
  H   H1605     1.0  0.42505  0.38808  0.51981  1.0000
  H   H1606     1.0  0.46032  0.35768  0.51764  1.0000
  C   C916      1.0  0.47467  0.39432  0.55539  1.0000
  H   H1607     1.0  0.42680  0.63696  0.71344  1.0000
  H   H1608     1.0  0.36279  0.33121  0.56386  1.0000
  H   H1609     1.0  0.47282  0.51110  0.91712  1.0000
  H   H1610     1.0  0.37941  0.35273  0.53787  1.0000
  H   H1611     1.0  0.44402  0.55178  0.98256  1.0000
  H   H1612     1.0  0.48335  0.43495  0.98273  1.0000
  C   C917      1.0  0.46545  0.39657  0.50633  1.0000
  C   C918      1.0  0.36435  0.34142  0.84789  1.0000
  S   S202      1.0  0.33624  0.63955  0.79177  1.0000
  H   H1613     1.0  0.39021  0.62140  0.87237  1.0000
  H   H1614     1.0  0.47946  0.43376  0.85920  1.0000
  H   H1615     1.0  0.45131  0.63285  0.68023  1.0000
  H   H1616     1.0  0.44611  0.53432  0.93887  1.0000
  H   H1617     1.0  0.48213  0.44439  0.51349  1.0000
  H   H1618     1.0  0.41112  0.61196  0.71814  1.0000
  H   H1619     1.0  0.45512  0.44949  0.72341  1.0000
  H   H1620     1.0  0.38544  0.51607  0.87538  1.0000
  H   H1621     1.0  0.48667  0.43601  0.80858  1.0000
  H   H1622     1.0  0.41555  0.47886  0.92392  1.0000
  H   H1623     1.0  0.41195  0.63420  0.75969  1.0000
  H   H1624     1.0  0.47361  0.47899  0.50815  1.0000
  H   H1625     1.0  0.42236  0.52971  0.97646  1.0000
  H   H1626     1.0  0.42349  0.58367  0.70187  1.0000
  H   H1627     1.0  0.37477  0.32147  0.87357  1.0000
  N   N52       1.0  0.43786  0.61330  0.72990  1.0000
  H   H1628     1.0  0.44987  0.44705  0.82661  1.0000
  H   H1629     1.0  0.47994  0.45817  0.80823  1.0000
  H   H1630     1.0  0.45357  0.42649  0.72555  1.0000
  H   H1631     1.0  0.47525  0.60880  0.73911  1.0000
  H   H1632     1.0  0.45869  0.42635  0.81920  1.0000
  C   C919      1.0  0.38066  0.35162  0.84552  1.0000
  C   C920      1.0  0.42517  0.63894  0.75875  1.0000
  H   H1633     1.0  0.45049  0.56186  0.66632  1.0000
  C   C921      1.0  0.43130  0.46026  0.94557  1.0000
  C   C922      1.0  0.47730  0.44557  0.81765  1.0000
  H   H1634     1.0  0.41086  0.37801  0.97709  1.0000
  S   S203      1.0  0.45052  0.41781  0.97809  1.0000
  H   H1635     1.0  0.44665  0.63945  0.73009  1.0000
  H   H1636     1.0  0.47279  0.51155  0.86509  1.0000
  H   H1637     1.0  0.43978  0.50000  0.88875  1.0000
  H   H1638     1.0  0.45092  0.32526  0.51238  1.0000
  C   C923      1.0  0.31267  0.64222  0.86443  1.0000
  H   H1639     1.0  0.47734  0.60274  0.67180  1.0000
  H   H1640     1.0  0.46633  0.52929  0.66000  1.0000
  C   C924      1.0  0.46208  0.56290  0.67843  1.0000
  H   H1641     1.0  0.47486  0.38842  0.97644  1.0000
  H   H1642     1.0  0.33082  0.33863  0.85366  1.0000
  C   C925      1.0  0.31696  0.33476  0.89190  1.0000
  H   H1643     1.0  0.48281  0.51314  0.77884  1.0000
  S   S204      1.0  0.47752  0.39592  0.84497  1.0000
  C   C926      1.0  0.45685  0.34489  0.95851  1.0000
  H   H1644     1.0  0.45806  0.51715  0.95491  1.0000
  H   H1645     1.0  0.45358  0.50214  0.77091  1.0000
  N   N53       1.0  0.45225  0.44158  0.78212  1.0000
  H   H1646     1.0  0.45104  0.59233  0.75188  1.0000
  H   H1647     1.0  0.45257  0.59584  0.70306  1.0000
  C   C927      1.0  0.43890  0.42827  0.77811  1.0000
  C   C928      1.0  0.44368  0.45894  0.77696  1.0000
  C   C929      1.0  0.45518  0.47462  0.77842  1.0000
  C   C930      1.0  0.41375  0.38483  0.50709  1.0000
  C   C931      1.0  0.42408  0.42817  0.80022  1.0000
  H   H1648     1.0  0.44502  0.45716  0.95011  1.0000
  H   H1649     1.0  0.42681  0.49327  0.96486  1.0000
  H   H1650     1.0  0.44257  0.48980  0.74528  1.0000
  H   H1651     1.0  0.46799  0.62599  0.70380  1.0000
  C   C932      1.0  0.41201  0.41364  0.79462  1.0000
  C   C933      1.0  0.42025  0.58584  0.72437  1.0000
  H   H1652     1.0  0.45873  0.47691  0.80061  1.0000
  C   C934      1.0  0.46187  0.43739  0.72991  1.0000
  H   H1653     1.0  0.46011  0.50888  0.64698  1.0000
  H   H1654     1.0  0.30489  0.63339  0.87724  1.0000
  H   H1655     1.0  0.43266  0.42986  0.75725  1.0000
  H   H1656     1.0  0.43700  0.45923  0.75637  1.0000
  H   H1657     1.0  0.43329  0.46147  0.79274  1.0000
  H   H1658     1.0  0.33189  0.32305  0.54875  1.0000
  H   H1659     1.0  0.45421  0.50387  0.49589  1.0000
  S   S205      1.0  0.46838  0.54904  0.89560  1.0000
  H   H1660     1.0  0.39275  0.58568  0.71624  1.0000
  H   H1661     1.0  0.41627  0.44031  0.79955  1.0000
  H   H1662     1.0  0.42900  0.42631  0.82188  1.0000
  H   H1663     1.0  0.35239  0.33840  0.53180  1.0000
  H   H1664     1.0  0.44191  0.60798  0.77431  1.0000
  H   H1665     1.0  0.40900  0.51277  0.94296  1.0000
  H   H1666     1.0  0.47692  0.52017  0.62932  1.0000
  H   H1667     1.0  0.46027  0.43799  0.60187  1.0000
  H   H1668     1.0  0.41396  0.35864  0.52081  1.0000
  H   H1669     1.0  0.44958  0.37030  0.97210  1.0000
  C   C935      1.0  0.41420  0.36572  0.50053  1.0000
  H   H1670     1.0  0.39121  0.33247  0.53921  1.0000
  S   S206      1.0  0.48064  0.38379  0.71207  1.0000
  C   C936      1.0  0.47116  0.51720  0.65019  1.0000
  H   H1671     1.0  0.40603  0.41522  0.77359  1.0000
  H   H1672     1.0  0.45991  0.60816  0.64814  1.0000
  H   H1673     1.0  0.40165  0.41381  0.81085  1.0000
  H   H1674     1.0  0.46282  0.45769  0.58251  1.0000
  C   C937      1.0  0.42934  0.47704  0.92892  1.0000
  H   H1675     1.0  0.41907  0.40104  0.79575  1.0000
  C   C938      1.0  0.36001  0.32959  0.94344  1.0000
  H   H1676     1.0  0.30000  0.32516  0.54935  1.0000
  C   C939      1.0  0.45874  0.43997  0.81199  1.0000
  C   C940      1.0  0.44558  0.49083  0.76799  1.0000
  C   C941      1.0  0.39470  0.63150  0.88661  1.0000
  H   H1677     1.0  0.47276  0.42494  0.76660  1.0000
  H   H1678     1.0  0.38872  0.34959  0.86445  1.0000
  C   C942      1.0  0.48078  0.44654  0.84919  1.0000
  H   H1679     1.0  0.46597  0.48962  0.86476  1.0000
  C   C943      1.0  0.46036  0.34330  0.55603  1.0000
  C   C944      1.0  0.48000  0.38778  0.74886  1.0000
  C   C945      1.0  0.39082  0.51893  0.89633  1.0000
  H   H1680     1.0  0.42949  0.57820  0.73716  1.0000
  C   C946      1.0  0.40243  0.57888  0.72969  1.0000
  C   C947      1.0  0.45861  0.62144  0.68854  1.0000
  C   C948      1.0  0.47962  0.38618  0.49836  1.0000
  H   H1681     1.0  0.35700  0.34389  0.82837  1.0000
  C   C949      1.0  0.42061  0.60510  0.73200  1.0000
  H   H1682     1.0  0.47670  0.62302  0.65365  1.0000
  C   C950      1.0  0.47286  0.55757  0.92927  1.0000
  H   H1683     1.0  0.44134  0.36050  0.53832  1.0000
  H   H1684     1.0  0.40883  0.63215  0.88403  1.0000
  C   C951      1.0  0.47885  0.49024  0.49713  1.0000
  H   H1685     1.0  0.44834  0.48879  0.95479  1.0000
  H   H1686     1.0  0.43585  0.60751  0.68545  1.0000
  C   C952      1.0  0.44987  0.35720  0.98106  1.0000
  H   H1687     1.0  0.33574  0.63571  0.88649  1.0000
  C   C953      1.0  0.44601  0.50836  0.90393  1.0000
  C   C954      1.0  0.46807  0.57812  0.96710  1.0000
  C   C955      1.0  0.47628  0.56234  0.72381  1.0000
  H   H1688     1.0  0.34704  0.31883  0.89280  1.0000
  C   C956      1.0  0.46980  0.44682  0.59304  1.0000
  C   C957      1.0  0.47798  0.39292  0.80792  1.0000
  S   S207      1.0  0.34024  0.32052  0.95506  1.0000
  H   H1689     1.0  0.46644  0.62796  0.75595  1.0000
  H   H1690     1.0  0.44822  0.34502  0.94001  1.0000
  H   H1691     1.0  0.46971  0.34889  0.95137  1.0000
  C   C958      1.0  0.37963  0.33925  0.53058  1.0000
  H   H1692     1.0  0.37724  0.36551  0.84377  1.0000
  H   H1693     1.0  0.46136  0.58945  0.97513  1.0000
  C   C959      1.0  0.36336  0.33066  0.54054  1.0000
  H   H1694     1.0  0.47258  0.39736  0.57735  1.0000
  C   C960      1.0  0.44193  0.33666  0.51366  1.0000
  H   H1695     1.0  0.40194  0.38832  0.51927  1.0000
  H   H1696     1.0  0.41769  0.53100  0.92640  1.0000
  H   H1697     1.0  0.43121  0.33246  0.52741  1.0000
  C   C961      1.0  0.48434  0.50807  0.66920  1.0000
  C   C962      1.0  0.44479  0.52181  0.94999  1.0000
  C   C963      1.0  0.45091  0.35079  0.53048  1.0000
  C   C964      1.0  0.39026  0.32741  0.92930  1.0000
  H   H1698     1.0  0.47408  0.43425  0.68886  1.0000
  H   H1699     1.0  0.43686  0.47529  0.90924  1.0000
  H   H1700     1.0  0.43209  0.63470  0.77801  1.0000
  C   C965      1.0  0.46497  0.50173  0.90607  1.0000
  H   H1701     1.0  0.32598  0.34198  0.90487  1.0000
  C   C966      1.0  0.47788  0.43507  0.71127  1.0000
  H   H1702     1.0  0.45138  0.33663  0.57027  1.0000
  C   C967      1.0  0.48514  0.54891  0.94621  1.0000
  H   H1703     1.0  0.47173  0.45591  0.85945  1.0000
  H   H1704     1.0  0.46599  0.48926  0.91732  1.0000
  C   C968      1.0  0.47538  0.60832  0.78402  1.0000
  H   H1705     1.0  0.40978  0.33355  0.49394  1.0000
  H   H1706     1.0  0.38031  0.33931  0.50722  1.0000
  H   H1707     1.0  0.47086  0.33421  0.54928  1.0000
  C   C969      1.0  0.37502  0.31964  0.93839  1.0000
  H   H1708     1.0  0.38826  0.34772  0.82660  1.0000
  C   C970      1.0  0.43599  0.52546  0.97888  1.0000
  H   H1709     1.0  0.48309  0.51996  0.72887  1.0000
  H   H1710     1.0  0.36295  0.64187  0.90124  1.0000
  C   C971      1.0  0.48149  0.43718  0.57208  1.0000
  H   H1711     1.0  0.39302  0.40529  0.97882  1.0000
  H   H1712     1.0  0.47636  0.50654  0.53430  1.0000
  H   H1713     1.0  0.31169  0.32430  0.90487  1.0000
  H   H1714     1.0  0.47319  0.43236  0.55536  1.0000
  C   C972      1.0  0.32611  0.32760  0.86573  1.0000
  H   H1715     1.0  0.47736  0.45176  0.61070  1.0000
  C   C973      1.0  0.38616  0.64886  0.87922  1.0000
  H   H1716     1.0  0.48515  0.42305  0.71688  1.0000
  C   C974      1.0  0.36631  0.64816  0.88092  1.0000
  H   H1717     1.0  0.34081  0.32329  0.81669  1.0000
  H   H1718     1.0  0.31639  0.32146  0.85263  1.0000
  H   H1719     1.0  0.44070  0.36863  0.48684  1.0000
  H   H1720     1.0  0.41373  0.39252  0.48739  1.0000
  H   H1721     1.0  0.48559  0.43974  0.93146  1.0000
  H   H1722     1.0  0.48656  0.49459  0.87894  1.0000
  H   H1723     1.0  0.42612  0.62194  0.48557  1.0000
  Fe  Fe105     1.0  0.32370  0.78962  0.01786  1.0000
  S   S208      1.0  0.33102  0.76242  0.03076  1.0000
  S   S209      1.0  0.33998  0.81387  0.01542  1.0000
  Fe  Fe106     1.0  0.28519  0.78071  0.01087  1.0000
  S   S210      1.0  0.29022  0.75335  0.02369  1.0000
  C   C975      1.0  0.40025  0.89774  0.47753  1.0000
  Fe  Fe107     1.0  0.30696  0.76322  0.05786  1.0000
  S   S211      1.0  0.30140  0.75931  0.10505  1.0000
  H   H1724     1.0  0.33431  0.77810  0.08905  1.0000
  S   S212      1.0  0.32376  0.73952  0.46566  1.0000
  S   S213      1.0  0.30062  0.79066  0.04639  1.0000
  C   C976      1.0  0.46193  0.88661  0.20740  1.0000
  Fe  Fe108     1.0  0.31857  0.69826  0.24392  1.0000
  S   S214      1.0  0.31645  0.66986  0.25043  1.0000
  S   S215      1.0  0.32626  0.70470  0.19841  1.0000
  Fe  Fe109     1.0  0.30984  0.70508  0.30678  1.0000
  S   S216      1.0  0.30684  0.67704  0.31640  1.0000
  S   S217      1.0  0.30312  0.72698  0.33750  1.0000
  Fe  Fe110     1.0  0.33117  0.67248  0.29050  1.0000
  H   H1725     1.0  0.25610  0.72567  0.09689  1.0000
  Fe  Fe111     1.0  0.29243  0.67688  0.27511  1.0000
  C   C977      1.0  0.41817  0.86994  0.47789  1.0000
  S   S218      1.0  0.33472  0.70081  0.28276  1.0000
  S   S219      1.0  0.29399  0.70495  0.26697  1.0000
  Fe  Fe112     1.0  0.41834  0.87480  0.07187  1.0000
  S   S220      1.0  0.44625  0.87233  0.05853  1.0000
  S   S221      1.0  0.40367  0.84950  0.07404  1.0000
  Fe  Fe113     1.0  0.42147  0.91390  0.08166  1.0000
  S   S222      1.0  0.44903  0.91367  0.06796  1.0000
  S   S223      1.0  0.40683  0.93849  0.09473  1.0000
  Fe  Fe114     1.0  0.44128  0.89632  0.03293  1.0000
  H   H1726     1.0  0.35492  0.85481  0.13322  1.0000
  Fe  Fe115     1.0  0.45158  0.88984  0.09507  1.0000
  S   S224      1.0  0.47513  0.88707  0.12362  1.0000
  S   S225      1.0  0.41319  0.89817  0.04491  1.0000
  S   S226      1.0  0.42420  0.89071  0.11016  1.0000
  C   C978      1.0  0.41674  0.95807  0.10209  1.0000
  C   C979      1.0  0.43450  0.95964  0.09989  1.0000
  H   H1727     1.0  0.33036  0.83973  0.09647  1.0000
  H   H1728     1.0  0.44256  0.94867  0.09408  1.0000
  N   N54       1.0  0.47122  0.94560  0.20637  1.0000
  C   C980      1.0  0.47581  0.88478  0.47055  1.0000
  H   H1729     1.0  0.31420  0.83057  0.05421  1.0000
  C   C981      1.0  0.47575  0.88686  0.16117  1.0000
  C   C982      1.0  0.46084  0.88682  0.17775  1.0000
  H   H1730     1.0  0.31404  0.66730  0.18293  1.0000
  H   H1731     1.0  0.44559  0.94089  0.00033  1.0000
  H   H1732     1.0  0.25257  0.69805  0.29774  1.0000
  C   C983      1.0  0.46312  0.90435  0.43644  1.0000
  C   C984      1.0  0.46372  0.89785  0.46412  1.0000
  C   C985      1.0  0.40734  0.86711  0.99128  1.0000
  H   H1733     1.0  0.46287  0.95455  0.00874  1.0000
  H   H1734     1.0  0.30115  0.81251  0.14118  1.0000
  C   C986      1.0  0.47469  0.89817  0.41554  1.0000
  C   C987      1.0  0.36581  0.84532  0.13510  1.0000
  C   C988      1.0  0.43795  0.82107  0.01893  1.0000
  H   H1735     1.0  0.25549  0.74339  0.23198  1.0000
  H   H1736     1.0  0.44846  0.88670  0.16771  1.0000
  C   C989      1.0  0.44150  0.82145  0.05050  1.0000
  C   C990      1.0  0.35780  0.82345  0.03199  1.0000
  C   C991      1.0  0.36030  0.84109  0.02794  1.0000
  C   C992      1.0  0.37414  0.84931  0.04055  1.0000
  C   C993      1.0  0.38585  0.83998  0.05736  1.0000
  C   C994      1.0  0.38352  0.82227  0.06102  1.0000
  C   C995      1.0  0.36965  0.81407  0.04847  1.0000
  H   H1737     1.0  0.25034  0.75647  0.02825  1.0000
  H   H1738     1.0  0.37562  0.86291  0.03750  1.0000
  H   H1739     1.0  0.39255  0.81483  0.07372  1.0000
  H   H1740     1.0  0.36821  0.80047  0.05127  1.0000
  S   S227      1.0  0.35674  0.65750  0.30009  1.0000
  C   C996      1.0  0.46818  0.93215  0.25629  1.0000
  H   H1741     1.0  0.45029  0.88651  0.21993  1.0000
  H   H1742     1.0  0.41624  0.88878  0.44373  1.0000
  C   C997      1.0  0.31659  0.73527  0.43094  1.0000
  C   C998      1.0  0.32449  0.72167  0.41578  1.0000
  C   C999      1.0  0.32011  0.71854  0.38753  1.0000
  C   C1000     1.0  0.30790  0.72915  0.37392  1.0000
  C   C1001     1.0  0.29978  0.74258  0.38926  1.0000
  C   C1002     1.0  0.30396  0.74553  0.41764  1.0000
  H   H1743     1.0  0.33422  0.71359  0.42583  1.0000
  H   H1744     1.0  0.32648  0.70818  0.37608  1.0000
  H   H1745     1.0  0.29027  0.75082  0.37902  1.0000
  H   H1746     1.0  0.29760  0.75592  0.42903  1.0000
  C   C1003     1.0  0.31909  0.72008  0.17292  1.0000
  C   C1004     1.0  0.30775  0.73376  0.17957  1.0000
  C   C1005     1.0  0.30249  0.74560  0.15849  1.0000
  C   C1006     1.0  0.30850  0.74394  0.13056  1.0000
  C   C1007     1.0  0.31982  0.73026  0.12391  1.0000
  C   C1008     1.0  0.32508  0.71843  0.14499  1.0000
  H   H1747     1.0  0.30316  0.73529  0.20098  1.0000
  H   H1748     1.0  0.29370  0.75610  0.16386  1.0000
  H   H1749     1.0  0.32457  0.72881  0.10257  1.0000
  H   H1750     1.0  0.33390  0.70793  0.13963  1.0000
  H   H1751     1.0  0.31294  0.83381  0.11865  1.0000
  N   N55       1.0  0.34986  0.78062  0.41965  1.0000
  C   C1009     1.0  0.33119  0.78433  0.41290  1.0000
  C   C1010     1.0  0.35561  0.76304  0.40908  1.0000
  C   C1011     1.0  0.35139  0.78039  0.45137  1.0000
  C   C1012     1.0  0.36129  0.79423  0.40825  1.0000
  C   C1013     1.0  0.36056  0.79757  0.37616  1.0000
  C   C1014     1.0  0.32387  0.80252  0.42026  1.0000
  C   C1015     1.0  0.36956  0.77588  0.46309  1.0000
  C   C1016     1.0  0.34793  0.75690  0.38100  1.0000
  C   C1017     1.0  0.35720  0.74056  0.37051  1.0000
  C   C1018     1.0  0.36984  0.81384  0.36821  1.0000
  C   C1019     1.0  0.30488  0.80441  0.41265  1.0000
  H   H1752     1.0  0.45237  0.94418  0.28936  1.0000
  H   H1753     1.0  0.32314  0.77479  0.42381  1.0000
  H   H1754     1.0  0.32859  0.78274  0.39021  1.0000
  H   H1755     1.0  0.36984  0.76212  0.40691  1.0000
  H   H1756     1.0  0.35226  0.75295  0.42477  1.0000
  H   H1757     1.0  0.34233  0.77115  0.46072  1.0000
  H   H1758     1.0  0.34758  0.79304  0.46048  1.0000
  H   H1759     1.0  0.35860  0.80654  0.41941  1.0000
  H   H1760     1.0  0.37496  0.79085  0.41274  1.0000
  H   H1761     1.0  0.34722  0.79911  0.36848  1.0000
  H   H1762     1.0  0.36720  0.78681  0.36489  1.0000
  H   H1763     1.0  0.32495  0.80529  0.44297  1.0000
  H   H1764     1.0  0.33070  0.81248  0.40831  1.0000
  H   H1765     1.0  0.37838  0.78636  0.45841  1.0000
  H   H1766     1.0  0.37510  0.76383  0.45408  1.0000
  H   H1767     1.0  0.33427  0.75396  0.38428  1.0000
  H   H1768     1.0  0.34849  0.76660  0.36403  1.0000
  H   H1769     1.0  0.35701  0.73036  0.38690  1.0000
  H   H1770     1.0  0.35060  0.73584  0.35159  1.0000
  H   H1771     1.0  0.37070  0.74309  0.36473  1.0000
  H   H1772     1.0  0.36954  0.81570  0.34501  1.0000
  H   H1773     1.0  0.36344  0.82521  0.37821  1.0000
  H   H1774     1.0  0.38346  0.81283  0.37487  1.0000
  H   H1775     1.0  0.29976  0.81731  0.41884  1.0000
  H   H1776     1.0  0.30315  0.80292  0.38963  1.0000
  H   H1777     1.0  0.29733  0.79466  0.42391  1.0000
  C   C1020     1.0  0.44188  0.97546  0.10514  1.0000
  H   H1778     1.0  0.27541  0.66295  0.19211  1.0000
  C   C1021     1.0  0.45435  0.95055  0.99158  1.0000
  H   H1779     1.0  0.39247  0.90666  0.46406  1.0000
  H   H1780     1.0  0.24756  0.77028  0.05848  1.0000
  C   C1022     1.0  0.36097  0.82806  0.12318  1.0000
  H   H1781     1.0  0.43384  0.80796  0.01426  1.0000
  H   H1782     1.0  0.48072  0.92500  0.25543  1.0000
  H   H1783     1.0  0.33598  0.81073  0.08029  1.0000
  H   H1784     1.0  0.35948  0.79784  0.10086  1.0000
  H   H1785     1.0  0.25863  0.74979  0.06192  1.0000
  C   C1023     1.0  0.46473  0.93679  0.28705  1.0000
  H   H1786     1.0  0.42753  0.84688  0.02036  1.0000
  H   H1787     1.0  0.28945  0.80744  0.18865  1.0000
  C   C1024     1.0  0.28371  0.68471  0.16585  1.0000
  C   C1025     1.0  0.46826  0.94848  0.23745  1.0000
  H   H1788     1.0  0.25394  0.77242  0.46451  1.0000
  H   H1789     1.0  0.46396  0.92487  0.29979  1.0000
  H   H1790     1.0  0.25193  0.67845  0.18768  1.0000
  H   H1791     1.0  0.36645  0.66389  0.38990  1.0000
  H   H1792     1.0  0.41180  0.83098  0.02166  1.0000
  C   C1026     1.0  0.45602  0.93406  0.16239  1.0000
  H   H1793     1.0  0.27931  0.72509  0.09505  1.0000
  C   C1027     1.0  0.32759  0.81181  0.09936  1.0000
  S   S228      1.0  0.26802  0.66244  0.26649  1.0000
  H   H1794     1.0  0.37257  0.81938  0.12412  1.0000
  H   H1795     1.0  0.25632  0.72168  0.24511  1.0000
  H   H1796     1.0  0.33681  0.83071  0.14586  1.0000
  H   H1797     1.0  0.47689  0.94945  0.35105  1.0000
  H   H1798     1.0  0.47031  0.92873  0.36341  1.0000
  H   H1799     1.0  0.46892  0.93959  0.41251  1.0000
  H   H1800     1.0  0.35132  0.84852  0.01513  1.0000
  H   H1801     1.0  0.41518  0.96976  0.04320  1.0000
  H   H1802     1.0  0.36955  0.84395  0.15752  1.0000
  H   H1803     1.0  0.26730  0.71186  0.07206  1.0000
  N   N56       1.0  0.33715  0.80588  0.12546  1.0000
  S   S229      1.0  0.47840  0.88634  0.25849  1.0000
  H   H1804     1.0  0.28850  0.67766  0.21031  1.0000
  H   H1805     1.0  0.24425  0.69146  0.24793  1.0000
  H   H1806     1.0  0.36424  0.77139  0.07340  1.0000
  C   C1028     1.0  0.24785  0.75677  0.05127  1.0000
  H   H1807     1.0  0.29583  0.69177  0.16345  1.0000
  C   C1029     1.0  0.24359  0.70406  0.31336  1.0000
  H   H1808     1.0  0.42962  0.81904  0.06277  1.0000
  N   N57       1.0  0.42416  0.85360  0.46348  1.0000
  H   H1809     1.0  0.33265  0.79188  0.16409  1.0000
  C   C1030     1.0  0.24634  0.66417  0.25474  1.0000
  C   C1031     1.0  0.45590  0.93688  0.19469  1.0000
  C   C1032     1.0  0.28651  0.67133  0.18986  1.0000
  H   H1810     1.0  0.35380  0.75236  0.08494  1.0000
  H   H1811     1.0  0.29636  0.82535  0.07694  1.0000
  H   H1812     1.0  0.25671  0.69525  0.11280  1.0000
  C   C1033     1.0  0.40650  0.97252  0.10980  1.0000
  S   S230      1.0  0.25822  0.79294  0.00710  1.0000
  H   H1813     1.0  0.41773  0.86968  0.41007  1.0000
  H   H1814     1.0  0.44573  0.84619  0.43643  1.0000
  H   H1815     1.0  0.29456  0.78758  0.17093  1.0000
  C   C1034     1.0  0.47368  0.96274  0.19231  1.0000
  C   C1035     1.0  0.46958  0.94268  0.36765  1.0000
  H   H1816     1.0  0.31491  0.82053  0.16830  1.0000
  H   H1817     1.0  0.43526  0.82910  0.47722  1.0000
  H   H1818     1.0  0.44635  0.83405  0.05666  1.0000
  H   H1819     1.0  0.45480  0.92392  0.20421  1.0000
  H   H1820     1.0  0.31695  0.80309  0.09523  1.0000
  C   C1036     1.0  0.25246  0.68710  0.16902  1.0000
  H   H1821     1.0  0.42467  0.84833  0.40101  1.0000
  H   H1822     1.0  0.45570  0.95533  0.24106  1.0000
  H   H1823     1.0  0.45808  0.92343  0.24977  1.0000
  H   H1824     1.0  0.44457  0.86829  0.44509  1.0000
  H   H1825     1.0  0.40489  0.86568  0.01421  1.0000
  H   H1826     1.0  0.43547  0.91579  0.16435  1.0000
  H   H1827     1.0  0.45408  0.85923  0.38907  1.0000
  C   C1037     1.0  0.40771  0.88302  0.45974  1.0000
  C   C1038     1.0  0.32519  0.79749  0.14613  1.0000
  H   H1828     1.0  0.37688  0.85025  0.12302  1.0000
  H   H1829     1.0  0.47884  0.96107  0.17054  1.0000
  C   C1039     1.0  0.26250  0.73080  0.23049  1.0000
  H   H1830     1.0  0.45184  0.97715  0.21195  1.0000
  C   C1040     1.0  0.34425  0.77558  0.10525  1.0000
  H   H1831     1.0  0.45135  0.81140  0.05599  1.0000
  C   C1041     1.0  0.30227  0.65969  0.18373  1.0000
  H   H1832     1.0  0.31880  0.78662  0.13613  1.0000
  H   H1833     1.0  0.27987  0.69455  0.11035  1.0000
  H   H1834     1.0  0.45015  0.82336  0.00757  1.0000
  H   H1835     1.0  0.37225  0.82455  0.47837  1.0000
  H   H1836     1.0  0.48355  0.93460  0.45132  1.0000
  C   C1042     1.0  0.34602  0.82017  0.14003  1.0000
  H   H1837     1.0  0.43960  0.92452  0.12995  1.0000
  C   C1043     1.0  0.35080  0.79257  0.11718  1.0000
  Fe  Fe116     1.0  0.31354  0.75463  0.99523  1.0000
  H   H1838     1.0  0.44378  0.94396  0.20067  1.0000
  C   C1044     1.0  0.42891  0.86059  0.40987  1.0000
  H   H1839     1.0  0.25262  0.67838  0.15060  1.0000
  C   C1045     1.0  0.31027  0.80886  0.15818  1.0000
  H   H1840     1.0  0.38694  0.81678  0.45154  1.0000
  H   H1841     1.0  0.45842  0.94597  0.15044  1.0000
  C   C1046     1.0  0.30013  0.79908  0.18036  1.0000
  C   C1047     1.0  0.24115  0.77718  0.46994  1.0000
  H   H1842     1.0  0.30850  0.79504  0.19817  1.0000
  C   C1048     1.0  0.24116  0.78431  0.98802  1.0000
  H   H1843     1.0  0.47408  0.90327  0.39435  1.0000
  H   H1844     1.0  0.44581  0.88069  0.39634  1.0000
  H   H1845     1.0  0.42042  0.87201  0.98856  1.0000
  C   C1049     1.0  0.47792  0.88642  0.22096  1.0000
  H   H1846     1.0  0.47848  0.88154  0.99311  1.0000
  H   H1847     1.0  0.43701  0.86869  0.36811  1.0000
  H   H1848     1.0  0.36913  0.76197  0.10754  1.0000
  C   C1050     1.0  0.45751  0.97490  0.19078  1.0000
  H   H1849     1.0  0.40215  0.85078  0.43629  1.0000
  H   H1850     1.0  0.45885  0.97117  0.46011  1.0000
  C   C1051     1.0  0.44231  0.86770  0.38969  1.0000
  C   C1052     1.0  0.39578  0.83852  0.47530  1.0000
  H   H1851     1.0  0.24664  0.71778  0.31523  1.0000
  C   C1053     1.0  0.43882  0.92758  0.15269  1.0000
  H   H1852     1.0  0.44758  0.96953  0.17716  1.0000
  H   H1853     1.0  0.28247  0.67715  0.14631  1.0000
  H   H1854     1.0  0.39274  0.97143  0.11159  1.0000
  H   H1855     1.0  0.26917  0.73364  0.18705  1.0000
  H   H1856     1.0  0.46609  0.92429  0.15647  1.0000
  H   H1857     1.0  0.39682  0.87707  0.44929  1.0000
  C   C1054     1.0  0.40932  0.84364  0.45291  1.0000
  H   H1858     1.0  0.35144  0.81550  0.16044  1.0000
  H   H1859     1.0  0.46081  0.84758  0.47599  1.0000
  C   C1055     1.0  0.26208  0.72440  0.20022  1.0000
  H   H1860     1.0  0.35761  0.82996  0.10076  1.0000
  H   H1861     1.0  0.30307  0.84711  0.07409  1.0000
  H   H1862     1.0  0.45367  0.91430  0.43114  1.0000
  H   H1863     1.0  0.35909  0.78914  0.13552  1.0000
  H   H1864     1.0  0.26577  0.69801  0.21484  1.0000
  H   H1865     1.0  0.42846  0.93754  0.15584  1.0000
  C   C1056     1.0  0.43654  0.85729  0.43961  1.0000
  N   N58       1.0  0.26861  0.69720  0.16944  1.0000
  C   C1057     1.0  0.26940  0.71003  0.14557  1.0000
  C   C1058     1.0  0.27054  0.70615  0.19735  1.0000
  C   C1059     1.0  0.30766  0.83350  0.07456  1.0000
  H   H1866     1.0  0.33869  0.76774  0.12241  1.0000
  H   H1867     1.0  0.41432  0.83167  0.44258  1.0000
  C   C1060     1.0  0.26837  0.70278  0.11538  1.0000
  C   C1061     1.0  0.35883  0.76473  0.09200  1.0000
  H   H1868     1.0  0.45565  0.97643  0.10355  1.0000
  C   C1062     1.0  0.26772  0.71727  0.09358  1.0000
  C   C1063     1.0  0.31999  0.83050  0.09905  1.0000
  H   H1869     1.0  0.28158  0.71701  0.14679  1.0000
  H   H1870     1.0  0.25906  0.72006  0.14739  1.0000
  H   H1871     1.0  0.28439  0.70778  0.20197  1.0000
  H   H1872     1.0  0.24577  0.69754  0.33394  1.0000
  C   C1064     1.0  0.42380  0.83464  0.01071  1.0000
  H   H1873     1.0  0.37447  0.83655  0.44616  1.0000
  H   H1874     1.0  0.27594  0.73255  0.23701  1.0000
  C   C1065     1.0  0.47672  0.94641  0.39673  1.0000
  C   C1066     1.0  0.38152  0.82849  0.46189  1.0000
  H   H1875     1.0  0.47482  0.96036  0.40018  1.0000
  H   H1876     1.0  0.39575  0.89283  0.99106  1.0000
  H   H1877     1.0  0.45593  0.94716  0.36659  1.0000
  H   H1878     1.0  0.24859  0.72497  0.19336  1.0000
  H   H1879     1.0  0.30086  0.65295  0.16345  1.0000
  S   S231      1.0  0.44596  0.90131  0.98579  1.0000
  C   C1067     1.0  0.45885  0.97208  0.48342  1.0000
  C   C1068     1.0  0.40692  0.98089  0.03636  1.0000
  H   H1880     1.0  0.47531  0.94440  0.29534  1.0000
  H   H1881     1.0  0.47797  0.95710  0.24607  1.0000
  H   H1882     1.0  0.39646  0.97605  0.02324  1.0000
  C   C1069     1.0  0.23766  0.67959  0.24690  1.0000
  H   H1883     1.0  0.48364  0.96985  0.20352  1.0000
  H   H1884     1.0  0.48488  0.92107  0.20866  1.0000
  H   H1885     1.0  0.39360  0.84397  0.98543  1.0000
  Fe  Fe117     1.0  0.32172  0.79373  0.52280  1.0000
  S   S232      1.0  0.33020  0.76663  0.53322  1.0000
  S   S233      1.0  0.33823  0.81784  0.52093  1.0000
  Fe  Fe118     1.0  0.28350  0.78295  0.51579  1.0000
  S   S234      1.0  0.29000  0.75534  0.52594  1.0000
  C   C1070     1.0  0.47729  0.88524  0.97121  1.0000
  Fe  Fe119     1.0  0.30647  0.76519  0.56064  1.0000
  S   S235      1.0  0.30247  0.76024  0.60788  1.0000
  H   H1886     1.0  0.45357  0.96875  0.66981  1.0000
  S   S236      1.0  0.31838  0.73115  0.96693  1.0000
  S   S237      1.0  0.29884  0.79269  0.55173  1.0000
  H   H1887     1.0  0.48015  0.95554  0.62814  1.0000
  Fe  Fe120     1.0  0.32008  0.69525  0.73827  1.0000
  S   S238      1.0  0.30641  0.67063  0.74498  1.0000
  S   S239      1.0  0.32840  0.70131  0.69307  1.0000
  Fe  Fe121     1.0  0.31847  0.70359  0.80193  1.0000
  S   S240      1.0  0.30477  0.67957  0.81209  1.0000
  S   S241      1.0  0.32243  0.72554  0.83262  1.0000
  Fe  Fe122     1.0  0.32403  0.66645  0.78236  1.0000
  H   H1888     1.0  0.47131  0.93136  0.91052  1.0000
  Fe  Fe123     1.0  0.28867  0.68582  0.77377  1.0000
  H   H1889     1.0  0.24883  0.70148  0.87035  1.0000
  S   S242      1.0  0.33859  0.69037  0.77414  1.0000
  S   S243      1.0  0.30163  0.71054  0.76514  1.0000
  Fe  Fe124     1.0  0.42184  0.87515  0.57115  1.0000
  S   S244      1.0  0.44978  0.87393  0.55751  1.0000
  S   S245      1.0  0.40798  0.84944  0.56690  1.0000
  Fe  Fe125     1.0  0.42459  0.91359  0.58748  1.0000
  S   S246      1.0  0.45187  0.91435  0.57280  1.0000
  S   S247      1.0  0.41369  0.93598  0.61373  1.0000
  Fe  Fe126     1.0  0.44383  0.89900  0.53558  1.0000
  H   H1890     1.0  0.26745  0.68478  0.70153  1.0000
  Fe  Fe127     1.0  0.45530  0.88933  0.59633  1.0000
  H   H1891     1.0  0.46074  0.82340  0.50988  1.0000
  S   S248      1.0  0.41581  0.90005  0.54846  1.0000
  S   S249      1.0  0.42810  0.88871  0.61174  1.0000
  C   C1071     1.0  0.41668  0.95828  0.60859  1.0000
  C   C1072     1.0  0.29118  0.66622  0.67263  1.0000
  C   C1073     1.0  0.42038  0.96529  0.58214  1.0000
  H   H1892     1.0  0.41065  0.96425  0.65182  1.0000
  H   H1893     1.0  0.42205  0.95693  0.56420  1.0000
  C   C1074     1.0  0.46761  0.87533  0.70647  1.0000
  C   C1075     1.0  0.46643  0.87746  0.67703  1.0000
  H   H1894     1.0  0.43058  0.86751  0.94385  1.0000
  C   C1076     1.0  0.46597  0.93467  0.66947  1.0000
  H   H1895     1.0  0.45746  0.86910  0.71782  1.0000
  H   H1896     1.0  0.45550  0.87280  0.66593  1.0000
  H   H1897     1.0  0.26564  0.67610  0.88947  1.0000
  H   H1898     1.0  0.29721  0.82251  0.59245  1.0000
  C   C1077     1.0  0.27081  0.74972  0.91636  1.0000
  S   S250      1.0  0.25956  0.69099  0.77565  1.0000
  H   H1899     1.0  0.36530  0.78573  0.63138  1.0000
  H   H1900     1.0  0.36012  0.71761  0.82756  1.0000
  H   H1901     1.0  0.25683  0.66091  0.73904  1.0000
  H   H1902     1.0  0.38232  0.77199  0.50318  1.0000
  H   H1903     1.0  0.45569  0.93836  0.95135  1.0000
  H   H1904     1.0  0.46188  0.85907  0.93568  1.0000
  S   S251      1.0  0.48241  0.87823  0.75848  1.0000
  H   H1905     1.0  0.46966  0.94642  0.59843  1.0000
  C   C1078     1.0  0.35761  0.82628  0.53449  1.0000
  C   C1079     1.0  0.36005  0.84405  0.53260  1.0000
  C   C1080     1.0  0.37522  0.85139  0.54241  1.0000
  C   C1081     1.0  0.38840  0.84103  0.55405  1.0000
  C   C1082     1.0  0.38606  0.82321  0.55562  1.0000
  C   C1083     1.0  0.37082  0.81589  0.54605  1.0000
  H   H1906     1.0  0.35006  0.85228  0.52357  1.0000
  H   H1907     1.0  0.37670  0.86508  0.54094  1.0000
  H   H1908     1.0  0.39612  0.81499  0.56446  1.0000
  H   H1909     1.0  0.36937  0.80221  0.54743  1.0000
  H   H1910     1.0  0.47188  0.93117  0.97588  1.0000
  H   H1911     1.0  0.26954  0.71828  0.57766  1.0000
  H   H1912     1.0  0.29369  0.74463  0.79115  1.0000
  C   C1084     1.0  0.24446  0.66761  0.74009  1.0000
  C   C1085     1.0  0.31840  0.73003  0.92947  1.0000
  C   C1086     1.0  0.31994  0.74456  0.91239  1.0000
  C   C1087     1.0  0.32101  0.74292  0.88284  1.0000
  C   C1088     1.0  0.32030  0.72682  0.86992  1.0000
  C   C1089     1.0  0.31832  0.71233  0.88695  1.0000
  C   C1090     1.0  0.31751  0.71393  0.91652  1.0000
  H   H1913     1.0  0.32069  0.75703  0.92197  1.0000
  H   H1914     1.0  0.32253  0.75424  0.86993  1.0000
  H   H1915     1.0  0.31764  0.69989  0.87738  1.0000
  H   H1916     1.0  0.31626  0.70262  0.92953  1.0000
  C   C1091     1.0  0.32076  0.71765  0.66962  1.0000
  C   C1092     1.0  0.30973  0.73108  0.67850  1.0000
  C   C1093     1.0  0.30423  0.74392  0.65923  1.0000
  C   C1094     1.0  0.30970  0.74353  0.63092  1.0000
  C   C1095     1.0  0.32070  0.73008  0.62202  1.0000
  C   C1096     1.0  0.32619  0.71724  0.64129  1.0000
  H   H1917     1.0  0.30567  0.73168  0.70030  1.0000
  H   H1918     1.0  0.29569  0.75424  0.66634  1.0000
  H   H1919     1.0  0.32503  0.72959  0.60034  1.0000
  H   H1920     1.0  0.33478  0.70692  0.63423  1.0000
  H   H1921     1.0  0.37255  0.75906  0.60019  1.0000
  H   H1922     1.0  0.31746  0.82980  0.63014  1.0000
  H   H1923     1.0  0.39119  0.65854  0.89354  1.0000
  H   H1924     1.0  0.41660  0.66274  0.77841  1.0000
  H   H1925     1.0  0.42239  0.82131  0.92349  1.0000
  H   H1926     1.0  0.35532  0.75007  0.58081  1.0000
  C   C1097     1.0  0.45062  0.96628  0.69231  1.0000
  H   H1927     1.0  0.34401  0.76423  0.62301  1.0000
  C   C1098     1.0  0.36771  0.68078  0.92052  1.0000
  H   H1928     1.0  0.27638  0.70522  0.89309  1.0000
  C   C1099     1.0  0.34772  0.77253  0.60505  1.0000
  N   N59       1.0  0.45185  0.93273  0.69105  1.0000
  H   H1929     1.0  0.38130  0.84708  0.61836  1.0000
  H   H1930     1.0  0.47656  0.87974  0.49177  1.0000
  C   C1100     1.0  0.31177  0.79362  0.69245  1.0000
  H   H1931     1.0  0.37749  0.83977  0.65386  1.0000
  C   C1101     1.0  0.32261  0.82729  0.60877  1.0000
  H   H1932     1.0  0.30184  0.80150  0.70381  1.0000
  H   H1933     1.0  0.32202  0.78974  0.70754  1.0000
  C   C1102     1.0  0.33034  0.80876  0.60557  1.0000
  S   S252      1.0  0.30564  0.78633  0.48557  1.0000
  C   C1103     1.0  0.25952  0.70544  0.85642  1.0000
  C   C1104     1.0  0.43938  0.98141  0.70275  1.0000
  H   H1934     1.0  0.24434  0.68758  0.64606  1.0000
  H   H1935     1.0  0.36006  0.82726  0.60020  1.0000
  H   H1936     1.0  0.47463  0.94499  0.67521  1.0000
  C   C1105     1.0  0.42067  0.98323  0.57852  1.0000
  C   C1106     1.0  0.47455  0.89473  0.91422  1.0000
  H   H1937     1.0  0.42702  0.98217  0.69132  1.0000
  C   C1107     1.0  0.35227  0.67327  0.90527  1.0000
  C   C1108     1.0  0.27812  0.67913  0.66013  1.0000
  N   N60       1.0  0.25762  0.72428  0.84923  1.0000
  H   H1938     1.0  0.39232  0.79912  0.94125  1.0000
  C   C1109     1.0  0.45147  0.85479  0.92192  1.0000
  H   H1939     1.0  0.24546  0.75166  0.59159  1.0000
  H   H1940     1.0  0.25000  0.72784  0.89285  1.0000
  C   C1110     1.0  0.37156  0.84172  0.63286  1.0000
  H   H1941     1.0  0.33626  0.77524  0.59194  1.0000
  H   H1942     1.0  0.31952  0.79993  0.60343  1.0000
  H   H1943     1.0  0.28562  0.76636  0.79572  1.0000
  H   H1944     1.0  0.35990  0.81116  0.65972  1.0000
  H   H1945     1.0  0.26136  0.76068  0.91518  1.0000
  H   H1946     1.0  0.36996  0.69874  0.81189  1.0000
  H   H1947     1.0  0.24227  0.74146  0.54407  1.0000
  H   H1948     1.0  0.36465  0.76955  0.56844  1.0000
  H   H1949     1.0  0.30823  0.80770  0.65415  1.0000
  H   H1950     1.0  0.39666  0.88286  0.95714  1.0000
  C   C1111     1.0  0.43670  0.84315  0.96559  1.0000
  H   H1951     1.0  0.36197  0.79518  0.59759  1.0000
  C   C1112     1.0  0.46280  0.89478  0.96233  1.0000
  H   H1952     1.0  0.32456  0.81560  0.67711  1.0000
  H   H1953     1.0  0.28314  0.75454  0.92407  1.0000
  H   H1954     1.0  0.43033  0.95002  0.68099  1.0000
  C   C1113     1.0  0.46486  0.94264  0.96732  1.0000
  C   C1114     1.0  0.46153  0.89949  0.93375  1.0000
  H   H1955     1.0  0.46303  0.95277  0.90868  1.0000
  H   H1956     1.0  0.24779  0.71346  0.61367  1.0000
  H   H1957     1.0  0.24679  0.70710  0.71581  1.0000
  H   H1958     1.0  0.36061  0.85116  0.63453  1.0000
  H   H1959     1.0  0.31267  0.82896  0.56605  1.0000
  H   H1960     1.0  0.40159  0.83025  0.49200  1.0000
  H   H1961     1.0  0.27364  0.71983  0.81238  1.0000
  H   H1962     1.0  0.37920  0.70802  0.84287  1.0000
  C   C1115     1.0  0.26018  0.73662  0.73689  1.0000
  H   H1963     1.0  0.29559  0.65698  0.65622  1.0000
  C   C1116     1.0  0.26135  0.71105  0.61989  1.0000
  C   C1117     1.0  0.30808  0.83095  0.58801  1.0000
  H   H1964     1.0  0.45095  0.86162  0.50138  1.0000
  C   C1118     1.0  0.48096  0.92840  0.75781  1.0000
  C   C1119     1.0  0.45961  0.92614  0.71822  1.0000
  C   C1120     1.0  0.44018  0.91920  0.68039  1.0000
  H   H1965     1.0  0.36682  0.67000  0.83637  1.0000
  C   C1121     1.0  0.35253  0.81628  0.64131  1.0000
  C   C1122     1.0  0.44130  0.94911  0.69580  1.0000
  C   C1123     1.0  0.42613  0.91320  0.70113  1.0000
  H   H1966     1.0  0.47560  0.98192  0.53248  1.0000
  H   H1967     1.0  0.26201  0.77168  0.56366  1.0000
  H   H1968     1.0  0.34189  0.78714  0.66666  1.0000
  C   C1124     1.0  0.31912  0.80399  0.66805  1.0000
  C   C1125     1.0  0.41318  0.90228  0.68619  1.0000
  C   C1126     1.0  0.27605  0.69946  0.87188  1.0000
  H   H1969     1.0  0.26445  0.69731  0.61650  1.0000
  H   H1970     1.0  0.44948  0.92417  0.73441  1.0000
  C   C1127     1.0  0.43457  0.85415  0.93836  1.0000
  H   H1971     1.0  0.44782  0.90762  0.67362  1.0000
  H   H1972     1.0  0.43334  0.92388  0.66123  1.0000
  N   N61       1.0  0.34240  0.80227  0.62840  1.0000
  H   H1973     1.0  0.43523  0.94893  0.71710  1.0000
  H   H1974     1.0  0.27083  0.73517  0.60317  1.0000
  H   H1975     1.0  0.32540  0.78250  0.64250  1.0000
  H   H1976     1.0  0.24799  0.74666  0.87228  1.0000
  H   H1977     1.0  0.26473  0.75675  0.83170  1.0000
  H   H1978     1.0  0.41905  0.92430  0.71072  1.0000
  H   H1979     1.0  0.43196  0.90512  0.71811  1.0000
  H   H1980     1.0  0.27870  0.75167  0.87336  1.0000
  C   C1128     1.0  0.25614  0.77606  0.58383  1.0000
  H   H1981     1.0  0.26604  0.77465  0.60042  1.0000
  H   H1982     1.0  0.35431  0.68336  0.96098  1.0000
  H   H1983     1.0  0.32324  0.65337  0.90114  1.0000
  C   C1129     1.0  0.27268  0.72117  0.59982  1.0000
  H   H1984     1.0  0.33254  0.83679  0.60445  1.0000
  C   C1130     1.0  0.35517  0.78939  0.61580  1.0000
  H   H1985     1.0  0.36202  0.76191  0.50062  1.0000
  C   C1131     1.0  0.25644  0.73502  0.87565  1.0000
  H   H1986     1.0  0.40333  0.89806  0.70148  1.0000
  H   H1987     1.0  0.40663  0.90976  0.66916  1.0000
  H   H1988     1.0  0.41974  0.89073  0.67698  1.0000
  N   N62       1.0  0.25751  0.70478  0.67377  1.0000
  H   H1989     1.0  0.28642  0.71756  0.60325  1.0000
  C   C1132     1.0  0.27161  0.69211  0.68258  1.0000
  H   H1990     1.0  0.40061  0.82887  0.93113  1.0000
  C   C1133     1.0  0.26384  0.71660  0.65087  1.0000
  H   H1991     1.0  0.48516  0.91998  0.49976  1.0000
  C   C1134     1.0  0.48174  0.88119  0.72135  1.0000
  C   C1135     1.0  0.26710  0.72515  0.71317  1.0000
  H   H1992     1.0  0.47013  0.96772  0.95007  1.0000
  H   H1993     1.0  0.47438  0.92283  0.66890  1.0000
  Fe  Fe128     1.0  0.31297  0.75912  0.49740  1.0000
  H   H1994     1.0  0.45031  0.90677  0.92663  1.0000
  H   H1995     1.0  0.44934  0.94793  0.63803  1.0000
  C   C1136     1.0  0.27035  0.74729  0.81662  1.0000
  H   H1996     1.0  0.28328  0.69885  0.68891  1.0000
  H   H1997     1.0  0.25866  0.69769  0.83688  1.0000
  H   H1998     1.0  0.46285  0.96629  0.70385  1.0000
  H   H1999     1.0  0.28359  0.73146  0.88938  1.0000
  S   S253      1.0  0.25583  0.79380  0.51490  1.0000
  H   H2000     1.0  0.27773  0.71886  0.65389  1.0000
  H   H2001     1.0  0.43679  0.98016  0.72568  1.0000
  H   H2002     1.0  0.38107  0.87626  0.98327  1.0000
  H   H2003     1.0  0.30571  0.78197  0.68449  1.0000
  H   H2004     1.0  0.28872  0.67612  0.88718  1.0000
  H   H2005     1.0  0.27363  0.73332  0.69754  1.0000
  H   H2006     1.0  0.27662  0.71608  0.72270  1.0000
  H   H2007     1.0  0.25390  0.72880  0.75340  1.0000
  H   H2008     1.0  0.26166  0.74694  0.79827  1.0000
  C   C1137     1.0  0.33269  0.79317  0.65137  1.0000
  H   H2009     1.0  0.46617  0.92510  0.86068  1.0000
  H   H2010     1.0  0.47330  0.89828  0.89228  1.0000
  C   C1138     1.0  0.36562  0.82477  0.62126  1.0000
  H   H2011     1.0  0.45025  0.83702  0.53598  1.0000
  H   H2012     1.0  0.34221  0.68364  0.90293  1.0000
  H   H2013     1.0  0.29634  0.75532  0.82435  1.0000
  H   H2014     1.0  0.33683  0.80849  0.58457  1.0000
  H   H2015     1.0  0.34397  0.82656  0.65013  1.0000
  H   H2016     1.0  0.33052  0.67229  0.86211  1.0000
  C   C1139     1.0  0.36490  0.67655  0.85694  1.0000
  C   C1140     1.0  0.45989  0.93805  0.63888  1.0000
  H   H2017     1.0  0.40252  0.85225  0.95425  1.0000
  H   H2018     1.0  0.37633  0.67025  0.92839  1.0000
  C   C1141     1.0  0.47759  0.95563  0.95488  1.0000
  C   C1142     1.0  0.35583  0.69416  0.85094  1.0000
  H   H2019     1.0  0.45515  0.84197  0.91341  1.0000
  H   H2020     1.0  0.30335  0.84447  0.59003  1.0000
  C   C1143     1.0  0.36906  0.77358  0.49501  1.0000
  C   C1144     1.0  0.24087  0.76521  0.59134  1.0000
  C   C1145     1.0  0.36703  0.70524  0.83217  1.0000
  H   H2021     1.0  0.25081  0.74642  0.72869  1.0000
  C   C1146     1.0  0.33895  0.66062  0.86452  1.0000
  H   H2022     1.0  0.37797  0.67932  0.86419  1.0000
  H   H2023     1.0  0.46594  0.91333  0.71470  1.0000
  C   C1147     1.0  0.24116  0.72681  0.83284  1.0000
  C   C1148     1.0  0.28757  0.75374  0.80633  1.0000
  H   H2024     1.0  0.47201  0.94031  0.83389  1.0000
  C   C1149     1.0  0.42362  0.65849  0.75911  1.0000
  C   C1150     1.0  0.36167  0.69131  0.94600  1.0000
  H   H2025     1.0  0.37505  0.68938  0.90670  1.0000
  C   C1151     1.0  0.27220  0.72913  0.83002  1.0000
  H   H2026     1.0  0.34358  0.69257  0.83980  1.0000
  H   H2027     1.0  0.35323  0.70134  0.87065  1.0000
  C   C1152     1.0  0.45892  0.83680  0.51728  1.0000
  C   C1153     1.0  0.46761  0.93893  0.85607  1.0000
  H   H2028     1.0  0.45508  0.92608  0.62995  1.0000
  H   H2029     1.0  0.28535  0.65895  0.69025  1.0000
  C   C1154     1.0  0.41412  0.96942  0.63152  1.0000
  H   H2030     1.0  0.40121  0.80141  0.90638  1.0000
  H   H2031     1.0  0.28481  0.68591  0.64289  1.0000
  C   C1155     1.0  0.27351  0.74168  0.88740  1.0000
  C   C1156     1.0  0.36094  0.76223  0.58755  1.0000
  H   H2032     1.0  0.37718  0.81619  0.61855  1.0000
  C   C1157     1.0  0.45153  0.84827  0.49382  1.0000
  H   H2033     1.0  0.45008  0.86397  0.90406  1.0000
  H   H2034     1.0  0.24046  0.71020  0.55464  1.0000
  H   H2035     1.0  0.42482  0.84934  0.92400  1.0000
  H   H2036     1.0  0.48640  0.98503  0.60974  1.0000
  S   S254      1.0  0.47901  0.88771  0.62471  1.0000
  C   C1158     1.0  0.25252  0.71534  0.69929  1.0000
  C   C1159     1.0  0.47458  0.94373  0.61993  1.0000
  H   H2037     1.0  0.35343  0.70249  0.93925  1.0000
  C   C1160     1.0  0.47266  0.93761  0.73261  1.0000
  H   H2038     1.0  0.36272  0.78491  0.50521  1.0000
  H   H2039     1.0  0.28466  0.72811  0.84102  1.0000
  H   H2040     1.0  0.46600  0.94936  0.74077  1.0000
  H   H2041     1.0  0.44550  0.83198  0.96079  1.0000
  N   N63       1.0  0.35595  0.66484  0.87729  1.0000
  H   H2042     1.0  0.25627  0.76367  0.96974  1.0000
  H   H2043     1.0  0.47156  0.84149  0.52371  1.0000
  C   C1161     1.0  0.24242  0.68240  0.75639  1.0000
  C   C1162     1.0  0.27666  0.68006  0.87627  1.0000
  H   H2044     1.0  0.34666  0.66401  0.92032  1.0000
  H   H2045     1.0  0.37293  0.69620  0.95712  1.0000
  H   H2046     1.0  0.26625  0.74010  0.93177  1.0000
  H   H2047     1.0  0.28765  0.70272  0.85970  1.0000
  C   C1163     1.0  0.47514  0.94478  0.90696  1.0000
  H   H2048     1.0  0.25747  0.72955  0.65254  1.0000
  C   C1164     1.0  0.48076  0.94648  0.87566  1.0000
  H   H2049     1.0  0.45495  0.94576  0.85845  1.0000
  H   H2050     1.0  0.41064  0.86708  0.49728  1.0000
  H   H2051     1.0  0.25217  0.78982  0.58192  1.0000
  C   C1165     1.0  0.24367  0.76987  0.97109  1.0000
  H   H2052     1.0  0.26756  0.67173  0.65146  1.0000
  H   H2053     1.0  0.34106  0.65560  0.84288  1.0000
  H   H2054     1.0  0.44404  0.85116  0.98028  1.0000
  C   C1166     1.0  0.47948  0.88539  0.66200  1.0000
  H   H2055     1.0  0.44546  0.97070  0.49106  1.0000
  H   H2056     1.0  0.44644  0.96176  0.98412  1.0000
  H   H2057     1.0  0.27098  0.74325  0.74660  1.0000
  H   H2058     1.0  0.27631  0.67336  0.85575  1.0000
  H   H2059     1.0  0.30255  0.67286  0.68040  1.0000
  H   H2060     1.0  0.30445  0.65354  0.85860  1.0000
  H   H2061     1.0  0.41407  0.79145  0.93369  1.0000
  C   C1167     1.0  0.41083  0.81928  0.93672  1.0000
  H   H2062     1.0  0.24273  0.71474  0.51757  1.0000
  C   C1168     1.0  0.40423  0.80171  0.92916  1.0000
  H   H2063     1.0  0.47109  0.92453  0.77336  1.0000
  H   H2064     1.0  0.42577  0.84164  0.50482  1.0000
  H   H2065     1.0  0.37088  0.65353  0.79561  1.0000
  H   H2066     1.0  0.39187  0.89286  0.49459  1.0000
  S   S255      1.0  0.44945  0.90689  0.48986  1.0000
  H   H2067     1.0  0.42628  0.81030  0.97066  1.0000
  H   H2068     1.0  0.40456  0.81505  0.98074  1.0000
  H   H2069     1.0  0.48180  0.96020  0.86973  1.0000
  H   H2070     1.0  0.41637  0.66338  0.74052  1.0000
  H   H2071     1.0  0.43652  0.66405  0.75916  1.0000
  C   C1169     1.0  0.41557  0.81995  0.96824  1.0000
  H   H2072     1.0  0.48473  0.93339  0.61859  1.0000
  C   C1170     1.0  0.24194  0.69507  0.66547  1.0000
  C   C1171     1.0  0.39438  0.88054  0.97992  1.0000
  N   N64       1.0  0.42052  0.83707  0.97961  1.0000
  H   H2073     1.0  0.41072  0.90504  0.48685  1.0000
  H   H2074     1.0  0.46706  0.96140  0.49204  1.0000
  C   C1172     1.0  0.40547  0.84962  0.97663  1.0000
  S   S256      1.0  0.30764  0.78173  0.98071  1.0000
  H   H2075     1.0  0.24230  0.72013  0.81215  1.0000
  H   H2076     1.0  0.24245  0.72522  0.69385  1.0000
  C   C1173     1.0  0.23859  0.78752  0.49360  1.0000
  H   H2077     1.0  0.42929  0.87692  0.48568  1.0000
  H   H2078     1.0  0.48317  0.94116  0.71813  1.0000
  H   H2079     1.0  0.23875  0.74061  0.82781  1.0000
  H   H2080     1.0  0.38968  0.85004  0.48521  1.0000
  H   H2081     1.0  0.23906  0.68527  0.68187  1.0000
  H   H2082     1.0  0.48628  0.95858  0.97247  1.0000
  H   H2083     1.0  0.39024  0.65209  0.85742  1.0000
  C   C1174     1.0  0.43350  0.84248  0.48504  1.0000
  Fe  Fe129     1.0  0.64293  0.20328  0.41280  1.0000
  S   S257      1.0  0.65399  0.17748  0.40119  1.0000
  S   S258      1.0  0.64302  0.22601  0.38188  1.0000
  H   H2084     1.0  0.53563  0.08085  0.04778  1.0000
  H   H2085     1.0  0.65104  0.10291  0.46944  1.0000
  S   S259      1.0  0.62150  0.20345  0.02101  1.0000
  Fe  Fe130     1.0  0.67076  0.17975  0.43926  1.0000
  S   S260      1.0  0.69969  0.17727  0.43029  1.0000
  Fe  Fe131     1.0  0.63375  0.16624  0.42930  1.0000
  S   S261      1.0  0.62097  0.14163  0.41384  1.0000
  S   S262      1.0  0.66028  0.20599  0.45022  1.0000
  S   S263      1.0  0.62157  0.19222  0.43909  1.0000
  Fe  Fe132     1.0  0.65312  0.25872  0.15499  1.0000
  S   S264      1.0  0.66005  0.28583  0.16278  1.0000
  S   S265      1.0  0.65791  0.25171  0.10874  1.0000
  Fe  Fe133     1.0  0.64563  0.25379  0.21787  1.0000
  S   S266      1.0  0.65173  0.28092  0.22909  1.0000
  S   S267      1.0  0.63757  0.23235  0.24773  1.0000
  Fe  Fe134     1.0  0.63653  0.28854  0.19017  1.0000
  H   H2086     1.0  0.56334  0.12587  0.35361  1.0000
  Fe  Fe135     1.0  0.67470  0.27640  0.20048  1.0000
  S   S268      1.0  0.70099  0.28836  0.20340  1.0000
  S   S269      1.0  0.62883  0.26167  0.18076  1.0000
  S   S270      1.0  0.66944  0.24898  0.19106  1.0000
  Fe  Fe136     1.0  0.53431  0.07854  0.40503  1.0000
  S   S271      1.0  0.50601  0.08542  0.40199  1.0000
  S   S272      1.0  0.54966  0.10211  0.41877  1.0000
  Fe  Fe137     1.0  0.52712  0.04105  0.38837  1.0000
  H   H2087     1.0  0.59272  0.31314  0.12085  1.0000
  S   S273      1.0  0.54004  0.01434  0.38320  1.0000
  Fe  Fe138     1.0  0.50591  0.07037  0.36174  1.0000
  C   C1175     1.0  0.71903  0.25938  0.14352  1.0000
  Fe  Fe139     1.0  0.50101  0.06089  0.42484  1.0000
  C   C1176     1.0  0.58779  0.14288  0.32701  1.0000
  S   S274      1.0  0.53439  0.06460  0.36341  1.0000
  S   S275      1.0  0.52914  0.05450  0.43037  1.0000
  H   H2088     1.0  0.61200  0.25985  0.07419  1.0000
  H   H2089     1.0  0.51486  0.12885  0.25349  1.0000
  H   H2090     1.0  0.53019  0.11342  0.23834  1.0000
  H   H2091     1.0  0.58143  0.15560  0.33102  1.0000
  H   H2092     1.0  0.69979  0.24204  0.00612  1.0000
  H   H2093     1.0  0.59234  0.13729  0.34732  1.0000
  H   H2094     1.0  0.48745  0.99537  0.42912  1.0000
  H   H2095     1.0  0.59913  0.14474  0.31317  1.0000
  C   C1177     1.0  0.51709  0.99708  0.34972  1.0000
  C   C1178     1.0  0.53248  0.99633  0.36467  1.0000
  H   H2096     1.0  0.50962  0.00900  0.34867  1.0000
  H   H2097     1.0  0.56779  0.06468  0.33189  1.0000
  H   H2098     1.0  0.55872  0.31638  0.17951  1.0000
  H   H2099     1.0  0.57839  0.10095  0.34700  1.0000
  H   H2100     1.0  0.56446  0.09766  0.29864  1.0000
  C   C1179     1.0  0.60080  0.13118  0.41439  1.0000
  C   C1180     1.0  0.60029  0.11399  0.40565  1.0000
  C   C1181     1.0  0.58489  0.10492  0.40672  1.0000
  C   C1182     1.0  0.56961  0.11289  0.41648  1.0000
  C   C1183     1.0  0.57012  0.13011  0.42511  1.0000
  C   C1184     1.0  0.58550  0.13920  0.42393  1.0000
  H   H2101     1.0  0.61198  0.10754  0.39831  1.0000
  H   H2102     1.0  0.58493  0.09165  0.40042  1.0000
  H   H2103     1.0  0.55845  0.13651  0.43265  1.0000
  H   H2104     1.0  0.58548  0.15244  0.43027  1.0000
  C   C1185     1.0  0.64141  0.22735  0.34453  1.0000
  C   C1186     1.0  0.64644  0.24241  0.33075  1.0000
  C   C1187     1.0  0.64551  0.24412  0.30120  1.0000
  C   C1188     1.0  0.63932  0.23083  0.28502  1.0000
  C   C1189     1.0  0.63434  0.21575  0.29878  1.0000
  C   C1190     1.0  0.63542  0.21397  0.32831  1.0000
  H   H2105     1.0  0.65104  0.25285  0.34307  1.0000
  H   H2106     1.0  0.64936  0.25579  0.29099  1.0000
  H   H2107     1.0  0.62948  0.20540  0.28651  1.0000
  H   H2108     1.0  0.63136  0.20238  0.33857  1.0000
  C   C1191     1.0  0.64703  0.23870  0.08466  1.0000
  C   C1192     1.0  0.63314  0.22890  0.09270  1.0000
  C   C1193     1.0  0.62538  0.21830  0.07293  1.0000
  C   C1194     1.0  0.63147  0.21726  0.04499  1.0000
  C   C1195     1.0  0.64519  0.22727  0.03688  1.0000
  C   C1196     1.0  0.65287  0.23795  0.05658  1.0000
  H   H2109     1.0  0.62858  0.22922  0.11425  1.0000
  H   H2110     1.0  0.61473  0.21064  0.07940  1.0000
  H   H2111     1.0  0.64976  0.22685  0.01534  1.0000
  H   H2112     1.0  0.66345  0.24565  0.05002  1.0000
  H   H2113     1.0  0.70372  0.29904  0.27604  1.0000
  C   C1197     1.0  0.71918  0.26798  0.24183  1.0000
  C   C1198     1.0  0.71949  0.28144  0.22235  1.0000
  H   H2114     1.0  0.66289  0.14759  0.02570  1.0000
  H   H2115     1.0  0.55256  0.14125  0.33220  1.0000
  H   H2116     1.0  0.70744  0.26135  0.24531  1.0000
  H   H2117     1.0  0.59548  0.23734  0.15624  1.0000
  H   H2118     1.0  0.71763  0.16561  0.04745  1.0000
  C   C1199     1.0  0.71739  0.17545  0.45369  1.0000
  H   H2119     1.0  0.71136  0.20109  0.07414  1.0000
  C   C1200     1.0  0.67820  0.31145  0.27780  1.0000
  C   C1201     1.0  0.68077  0.17350  0.05127  1.0000
  C   C1202     1.0  0.67548  0.19019  0.10722  1.0000
  C   C1203     1.0  0.68371  0.16538  0.02181  1.0000
  H   H2120     1.0  0.62330  0.14273  0.47626  1.0000
  C   C1204     1.0  0.66215  0.19939  0.12606  1.0000
  H   H2121     1.0  0.68539  0.16393  0.06723  1.0000
  H   H2122     1.0  0.66652  0.17448  0.05386  1.0000
  H   H2123     1.0  0.66439  0.20254  0.07027  1.0000
  H   H2124     1.0  0.66504  0.17720  0.29931  1.0000
  H   H2125     1.0  0.67128  0.17692  0.10436  1.0000
  H   H2126     1.0  0.73349  0.25321  0.27278  1.0000
  H   H2127     1.0  0.69738  0.16453  0.01577  1.0000
  H   H2128     1.0  0.53694  0.11672  0.07349  1.0000
  H   H2129     1.0  0.71039  0.21747  0.03415  1.0000
  S   S276      1.0  0.49869  0.04617  0.38431  1.0000
  H   H2130     1.0  0.64923  0.19896  0.11653  1.0000
  H   H2131     1.0  0.58492  0.07021  0.35486  1.0000
  H   H2132     1.0  0.66544  0.21296  0.12921  1.0000
  H   H2133     1.0  0.68378  0.13872  0.03578  1.0000
  H   H2134     1.0  0.68847  0.19462  0.28396  1.0000
  C   C1205     1.0  0.65741  0.16040  0.33233  1.0000
  H   H2135     1.0  0.71912  0.18477  0.02628  1.0000
  C   C1206     1.0  0.53918  0.09444  0.04605  1.0000
  H   H2136     1.0  0.49917  0.11572  0.36253  1.0000
  H   H2137     1.0  0.69346  0.26871  0.13207  1.0000
  C   C1207     1.0  0.61763  0.28885  0.10411  1.0000
  H   H2138     1.0  0.70741  0.28526  0.14296  1.0000
  H   H2139     1.0  0.57757  0.27187  0.10631  1.0000
  H   H2140     1.0  0.53264  0.29590  0.24645  1.0000
  H   H2141     1.0  0.50869  0.10726  0.24668  1.0000
  N   N65       1.0  0.68898  0.19850  0.32908  1.0000
  C   C1208     1.0  0.68888  0.21357  0.34880  1.0000
  H   H2142     1.0  0.73507  0.18520  0.42289  1.0000
  C   C1209     1.0  0.67549  0.18648  0.33944  1.0000
  C   C1210     1.0  0.70593  0.18856  0.32914  1.0000
  C   C1211     1.0  0.72206  0.19860  0.32163  1.0000
  C   C1212     1.0  0.69276  0.20939  0.38007  1.0000
  C   C1213     1.0  0.67071  0.17194  0.31902  1.0000
  S   S277      1.0  0.49246  0.08448  0.32500  1.0000
  C   C1214     1.0  0.69275  0.22565  0.39775  1.0000
  H   H2143     1.0  0.51351  0.11106  0.29700  1.0000
  H   H2144     1.0  0.67613  0.22043  0.34817  1.0000
  H   H2145     1.0  0.69812  0.22321  0.34201  1.0000
  C   C1215     1.0  0.61405  0.27814  0.04147  1.0000
  H   H2146     1.0  0.71432  0.25630  0.16504  1.0000
  H   H2147     1.0  0.66341  0.19381  0.34480  1.0000
  H   H2148     1.0  0.67973  0.18001  0.35925  1.0000
  H   H2149     1.0  0.70807  0.18222  0.34998  1.0000
  H   H2150     1.0  0.70574  0.17784  0.31393  1.0000
  H   H2151     1.0  0.72290  0.21033  0.33438  1.0000
  H   H2152     1.0  0.72202  0.20199  0.29893  1.0000
  H   H2153     1.0  0.68282  0.20121  0.38923  1.0000
  H   H2154     1.0  0.70552  0.20281  0.38232  1.0000
  H   H2155     1.0  0.68209  0.16372  0.31347  1.0000
  C   C1216     1.0  0.58972  0.29843  0.08163  1.0000
  H   H2156     1.0  0.58932  0.28199  0.13306  1.0000
  C   C1217     1.0  0.50152  0.99400  0.42559  1.0000
  H   H2157     1.0  0.58730  0.30162  0.18538  1.0000
  C   C1218     1.0  0.48997  0.05999  0.28292  1.0000
  H   H2158     1.0  0.68000  0.23245  0.39694  1.0000
  H   H2159     1.0  0.69541  0.22214  0.42002  1.0000
  H   H2160     1.0  0.70275  0.23435  0.39021  1.0000
  H   H2161     1.0  0.67688  0.17320  0.00559  1.0000
  H   H2162     1.0  0.53105  0.11711  0.02233  1.0000
  H   H2163     1.0  0.66266  0.15392  0.35144  1.0000
  C   C1219     1.0  0.61375  0.26549  0.01708  1.0000
  H   H2164     1.0  0.66504  0.30729  0.28267  1.0000
  C   C1220     1.0  0.67684  0.14734  0.02071  1.0000
  H   H2165     1.0  0.72079  0.24257  0.32100  1.0000
  C   C1221     1.0  0.69307  0.22978  0.00495  1.0000
  C   C1222     1.0  0.58642  0.31525  0.18124  1.0000
  H   H2166     1.0  0.64557  0.16798  0.33807  1.0000
  H   H2167     1.0  0.55331  0.09522  0.04459  1.0000
  H   H2168     1.0  0.67875  0.14212  0.99917  1.0000
  H   H2169     1.0  0.65209  0.29652  0.09958  1.0000
  H   H2170     1.0  0.66168  0.19296  0.14695  1.0000
  H   H2171     1.0  0.51308  0.12214  0.39074  1.0000
  C   C1223     1.0  0.54579  0.06467  0.99589  1.0000
  C   C1224     1.0  0.51940  0.11521  0.25357  1.0000
  H   H2172     1.0  0.64676  0.12391  0.45464  1.0000
  C   C1225     1.0  0.50743  0.12598  0.37016  1.0000
  C   C1226     1.0  0.64342  0.30790  0.10328  1.0000
  H   H2173     1.0  0.68286  0.23247  0.30086  1.0000
  H   H2174     1.0  0.67507  0.30909  0.23331  1.0000
  H   H2175     1.0  0.51628  0.10060  0.02365  1.0000
  N   N66       1.0  0.60092  0.28344  0.09151  1.0000
  H   H2176     1.0  0.59676  0.24666  0.10667  1.0000
  H   H2177     1.0  0.69590  0.21584  0.24582  1.0000
  H   H2178     1.0  0.69125  0.22715  0.04951  1.0000
  C   C1227     1.0  0.58268  0.31048  0.10528  1.0000
  H   H2179     1.0  0.49926  0.13776  0.37331  1.0000
  H   H2180     1.0  0.61911  0.25274  0.02364  1.0000
  H   H2181     1.0  0.71017  0.27562  0.10865  1.0000
  H   H2182     1.0  0.69422  0.19513  0.01217  1.0000
  H   H2183     1.0  0.73240  0.23586  0.36962  1.0000
  C   C1228     1.0  0.59084  0.27404  0.11375  1.0000
  H   H2184     1.0  0.50010  0.10601  0.98806  1.0000
  H   H2185     1.0  0.55139  0.06711  0.01667  1.0000
  C   C1229     1.0  0.53867  0.30484  0.23137  1.0000
  H   H2186     1.0  0.70403  0.22383  0.29368  1.0000
  H   H2187     1.0  0.65393  0.15040  0.31713  1.0000
  H   H2188     1.0  0.60867  0.12668  0.46935  1.0000
  C   C1230     1.0  0.69029  0.22213  0.28968  1.0000
  S   S278      1.0  0.65170  0.16611  0.46658  1.0000
  H   H2189     1.0  0.64236  0.31046  0.12618  1.0000
  C   C1231     1.0  0.58047  0.11880  0.98627  1.0000
  C   C1232     1.0  0.67752  0.19977  0.07866  1.0000
  C   C1233     1.0  0.57724  0.07456  0.33639  1.0000
  C   C1234     1.0  0.60415  0.27127  0.06729  1.0000
  H   H2190     1.0  0.72812  0.26412  0.32439  1.0000
  C   C1235     1.0  0.56822  0.09180  0.34286  1.0000
  H   H2191     1.0  0.58260  0.11871  0.30867  1.0000
  H   H2192     1.0  0.60043  0.26406  0.00959  1.0000
  N   N67       1.0  0.53602  0.09705  0.99171  1.0000
  H   H2193     1.0  0.49483  0.04205  0.02095  1.0000
  H   H2194     1.0  0.51530  0.13395  0.32909  1.0000
  H   H2195     1.0  0.67420  0.20377  0.02356  1.0000
  C   C1236     1.0  0.68780  0.20167  0.03020  1.0000
  C   C1237     1.0  0.55928  0.12847  0.33148  1.0000
  H   H2196     1.0  0.58602  0.07576  0.31801  1.0000
  C   C1238     1.0  0.68731  0.22466  0.25816  1.0000
  H   H2197     1.0  0.57839  0.29379  0.07017  1.0000
  C   C1239     1.0  0.52495  0.10962  0.28308  1.0000
  C   C1240     1.0  0.55652  0.09786  0.31821  1.0000
  C   C1241     1.0  0.57544  0.13094  0.31283  1.0000
  H   H2198     1.0  0.55000  0.12007  0.27726  1.0000
  H   H2199     1.0  0.53884  0.29892  0.21019  1.0000
  H   H2200     1.0  0.63165  0.10718  0.44981  1.0000
  H   H2201     1.0  0.60410  0.16358  0.46673  1.0000
  H   H2202     1.0  0.49664  0.05113  0.29701  1.0000
  H   H2203     1.0  0.58642  0.11258  0.00505  1.0000
  H   H2204     1.0  0.73603  0.23885  0.18159  1.0000
  H   H2205     1.0  0.59084  0.25900  0.16742  1.0000
  H   H2206     1.0  0.53974  0.09647  0.09157  1.0000
  H   H2207     1.0  0.56061  0.09034  0.36243  1.0000
  H   H2208     1.0  0.71802  0.24785  0.13035  1.0000
  S   S279      1.0  0.62242  0.31466  0.18261  1.0000
  H   H2209     1.0  0.57296  0.17243  0.46809  1.0000
  H   H2210     1.0  0.67378  0.22228  0.25282  1.0000
  N   N68       1.0  0.54726  0.11504  0.32182  1.0000
  H   H2211     1.0  0.54712  0.08766  0.31524  1.0000
  H   H2212     1.0  0.57171  0.13673  0.29227  1.0000
  H   H2213     1.0  0.58675  0.19032  0.47143  1.0000
  H   H2214     1.0  0.69790  0.22269  0.98619  1.0000
  H   H2215     1.0  0.52508  0.10235  0.33885  1.0000
  H   H2216     1.0  0.62694  0.30452  0.06820  1.0000
  Fe  Fe140     1.0  0.64024  0.19257  0.47544  1.0000
  H   H2217     1.0  0.66992  0.20561  0.29782  1.0000
  H   H2218     1.0  0.68650  0.28561  0.26551  1.0000
  H   H2219     1.0  0.73520  0.30056  0.20326  1.0000
  H   H2220     1.0  0.57196  0.30441  0.11671  1.0000
  C   C1242     1.0  0.53981  0.12050  0.29383  1.0000
  H   H2221     1.0  0.53904  0.10983  0.36441  1.0000
  C   C1243     1.0  0.64078  0.11271  0.46478  1.0000
  N   N69       1.0  0.68850  0.19070  0.05655  1.0000
  C   C1244     1.0  0.70683  0.27313  0.13104  1.0000
  H   H2222     1.0  0.53515  0.13413  0.29436  1.0000
  H   H2223     1.0  0.59173  0.26635  0.05990  1.0000
  H   H2224     1.0  0.68778  0.18972  0.11880  1.0000
  C   C1245     1.0  0.73484  0.29006  0.21819  1.0000
  C   C1246     1.0  0.58237  0.17848  0.48193  1.0000
  C   C1247     1.0  0.53333  0.11326  0.34377  1.0000
  H   H2225     1.0  0.52905  0.14004  0.35729  1.0000
  H   H2226     1.0  0.50157  0.02138  0.47273  1.0000
  C   C1248     1.0  0.52159  0.12947  0.34875  1.0000
  H   H2227     1.0  0.52878  0.09582  0.28220  1.0000
  C   C1249     1.0  0.62566  0.30513  0.09133  1.0000
  C   C1250     1.0  0.71983  0.17956  0.04790  1.0000
  H   H2228     1.0  0.61607  0.29145  0.12706  1.0000
  H   H2229     1.0  0.68266  0.21238  0.08406  1.0000
  C   C1251     1.0  0.53339  0.10308  0.07347  1.0000
  H   H2230     1.0  0.59649  0.30635  0.06594  1.0000
  H   H2231     1.0  0.67916  0.23275  0.00230  1.0000
  C   C1252     1.0  0.56091  0.11825  0.98805  1.0000
  C   C1253     1.0  0.53013  0.10299  0.02049  1.0000
  C   C1254     1.0  0.58954  0.24989  0.14980  1.0000
  C   C1255     1.0  0.59852  0.25637  0.12327  1.0000
  C   C1256     1.0  0.73395  0.26347  0.25746  1.0000
  H   H2232     1.0  0.61242  0.25709  0.12746  1.0000
  H   H2233     1.0  0.68994  0.23803  0.25200  1.0000
  H   H2234     1.0  0.51927  0.10234  0.07635  1.0000
  H   H2235     1.0  0.70664  0.18058  0.08719  1.0000
  C   C1257     1.0  0.68416  0.20441  0.29970  1.0000
  C   C1258     1.0  0.69628  0.21930  0.03180  1.0000
  C   C1259     1.0  0.72379  0.25270  0.33620  1.0000
  H   H2236     1.0  0.71191  0.25639  0.34808  1.0000
  H   H2237     1.0  0.60853  0.29051  0.03367  1.0000
  H   H2238     1.0  0.68948  0.29033  0.30213  1.0000
  H   H2239     1.0  0.55214  0.30679  0.23766  1.0000
  H   H2240     1.0  0.57571  0.24816  0.14576  1.0000
  C   C1260     1.0  0.70650  0.18850  0.06769  1.0000
  H   H2241     1.0  0.62744  0.27813  0.10293  1.0000
  C   C1261     1.0  0.69024  0.29566  0.28045  1.0000
  H   H2242     1.0  0.62772  0.27958  0.04701  1.0000
  H   H2243     1.0  0.51960  0.07551  0.99816  1.0000
  H   H2244     1.0  0.56292  0.09196  0.00173  1.0000
  H   H2245     1.0  0.61765  0.31674  0.09638  1.0000
  H   H2246     1.0  0.52785  0.04622  0.01239  1.0000
  H   H2247     1.0  0.49238  0.00125  0.07841  1.0000
  H   H2248     1.0  0.49050  0.02185  0.06117  1.0000
  C   C1262     1.0  0.55493  0.09956  0.98669  1.0000
  C   C1263     1.0  0.53856  0.04676  0.99689  1.0000
  H   H2249     1.0  0.50528  0.00386  0.40998  1.0000
  H   H2250     1.0  0.50834  0.99637  0.44549  1.0000
  C   C1264     1.0  0.71588  0.16862  0.48087  1.0000
  H   H2251     1.0  0.55679  0.12451  0.00797  1.0000
  H   H2252     1.0  0.62164  0.27023  0.99928  1.0000
  C   C1265     1.0  0.73368  0.18010  0.44396  1.0000
  H   H2253     1.0  0.54877  0.03727  0.00321  1.0000
  C   C1266     1.0  0.53188  0.07847  0.98731  1.0000
  C   C1267     1.0  0.48732  0.05377  0.01752  1.0000
  H   H2254     1.0  0.48790  0.04149  0.24969  1.0000
  H   H2255     1.0  0.71236  0.22134  0.46895  1.0000
  H   H2256     1.0  0.69959  0.20405  0.48127  1.0000
  H   H2257     1.0  0.58441  0.13231  0.98524  1.0000
  H   H2258     1.0  0.73623  0.22107  0.08468  1.0000
  H   H2259     1.0  0.69091  0.22580  0.48218  1.0000
  Fe  Fe141     1.0  0.63296  0.20368  0.91326  1.0000
  S   S280      1.0  0.64940  0.18015  0.90437  1.0000
  S   S281      1.0  0.62397  0.22388  0.88099  1.0000
  H   H2260     1.0  0.52512  0.11712  0.80210  1.0000
  C   C1268     1.0  0.52636  0.10786  0.97015  1.0000
  S   S282      1.0  0.63160  0.19703  0.52123  1.0000
  Fe  Fe142     1.0  0.66410  0.18689  0.94338  1.0000
  C   C1269     1.0  0.67604  0.24344  0.83811  1.0000
  Fe  Fe143     1.0  0.63098  0.16660  0.93369  1.0000
  S   S283      1.0  0.62139  0.13964  0.92344  1.0000
  S   S284      1.0  0.64862  0.21144  0.95024  1.0000
  S   S285      1.0  0.61395  0.19002  0.94080  1.0000
  Fe  Fe144     1.0  0.64926  0.25935  0.65626  1.0000
  S   S286      1.0  0.64905  0.28781  0.66485  1.0000
  S   S287      1.0  0.65720  0.25086  0.61140  1.0000
  Fe  Fe145     1.0  0.64203  0.25118  0.71927  1.0000
  S   S288      1.0  0.64075  0.27898  0.73126  1.0000
  S   S289      1.0  0.64254  0.22827  0.74994  1.0000
  Fe  Fe146     1.0  0.62539  0.28378  0.69141  1.0000
  C   C1270     1.0  0.67511  0.22423  0.88175  1.0000
  Fe  Fe147     1.0  0.66442  0.28089  0.70373  1.0000
  S   S290      1.0  0.68738  0.29552  0.71956  1.0000
  S   S291      1.0  0.62503  0.25537  0.68125  1.0000
  S   S292      1.0  0.66629  0.25301  0.69333  1.0000
  Fe  Fe148     1.0  0.53557  0.07930  0.88945  1.0000
  S   S293      1.0  0.50694  0.08327  0.89585  1.0000
  S   S294      1.0  0.54963  0.10454  0.89735  1.0000
  Fe  Fe149     1.0  0.53044  0.04084  0.87469  1.0000
  S   S295      1.0  0.50185  0.04296  0.88023  1.0000
  S   S296      1.0  0.54437  0.01508  0.86578  1.0000
  Fe  Fe150     1.0  0.50383  0.06786  0.85628  1.0000
  H   H2261     1.0  0.66752  0.29626  0.77894  1.0000
  Fe  Fe151     1.0  0.50748  0.05816  0.91918  1.0000
  H   H2262     1.0  0.69458  0.22391  0.72162  1.0000
  S   S297      1.0  0.53235  0.06509  0.84854  1.0000
  S   S298      1.0  0.53618  0.05477  0.91482  1.0000
  H   H2263     1.0  0.51794  0.07238  0.68537  1.0000
  C   C1271     1.0  0.50919  0.06057  0.72510  1.0000
  H   H2264     1.0  0.64799  0.28759  0.79311  1.0000
  C   C1272     1.0  0.69367  0.22086  0.74444  1.0000
  H   H2265     1.0  0.58809  0.21483  0.89981  1.0000
  H   H2266     1.0  0.71236  0.18333  0.88848  1.0000
  H   H2267     1.0  0.66225  0.24180  0.83327  1.0000
  H   H2268     1.0  0.51585  0.09423  0.73538  1.0000
  H   H2269     1.0  0.52961  0.07602  0.96462  1.0000
  C   C1273     1.0  0.68772  0.23369  0.79274  1.0000
  H   H2270     1.0  0.50976  0.00781  0.84639  1.0000
  H   H2271     1.0  0.53923  0.04619  0.70424  1.0000
  H   H2272     1.0  0.68329  0.28539  0.82149  1.0000
  H   H2273     1.0  0.50437  0.10946  0.79329  1.0000
  H   H2274     1.0  0.49887  0.13093  0.95595  1.0000
  C   C1274     1.0  0.60119  0.13022  0.91656  1.0000
  C   C1275     1.0  0.60092  0.11261  0.91028  1.0000
  C   C1276     1.0  0.58538  0.10450  0.90469  1.0000
  C   C1277     1.0  0.56975  0.11390  0.90500  1.0000
  C   C1278     1.0  0.57001  0.13154  0.91117  1.0000
  C   C1279     1.0  0.58554  0.13962  0.91707  1.0000
  H   H2275     1.0  0.61288  0.10514  0.90983  1.0000
  H   H2276     1.0  0.58553  0.09098  0.89994  1.0000
  H   H2277     1.0  0.55807  0.13902  0.91150  1.0000
  H   H2278     1.0  0.58541  0.15311  0.92201  1.0000
  C   C1280     1.0  0.62997  0.22519  0.84490  1.0000
  C   C1281     1.0  0.62480  0.23976  0.82914  1.0000
  C   C1282     1.0  0.62887  0.24113  0.80023  1.0000
  C   C1283     1.0  0.63791  0.22775  0.78663  1.0000
  C   C1284     1.0  0.64314  0.21320  0.80244  1.0000
  C   C1285     1.0  0.63939  0.21200  0.83147  1.0000
  H   H2279     1.0  0.61750  0.25005  0.83931  1.0000
  H   H2280     1.0  0.62470  0.25237  0.78835  1.0000
  H   H2281     1.0  0.65014  0.20278  0.79211  1.0000
  H   H2282     1.0  0.64359  0.20078  0.84335  1.0000
  C   C1286     1.0  0.64829  0.23691  0.58625  1.0000
  C   C1287     1.0  0.63715  0.22399  0.59388  1.0000
  C   C1288     1.0  0.63195  0.21211  0.57363  1.0000
  C   C1289     1.0  0.63784  0.21291  0.54554  1.0000
  C   C1290     1.0  0.64867  0.22605  0.53779  1.0000
  C   C1291     1.0  0.65380  0.23796  0.55799  1.0000
  H   H2283     1.0  0.63279  0.22297  0.61548  1.0000
  H   H2284     1.0  0.62341  0.20215  0.57987  1.0000
  H   H2285     1.0  0.65308  0.22704  0.51622  1.0000
  H   H2286     1.0  0.66208  0.24812  0.55163  1.0000
  C   C1292     1.0  0.68270  0.22643  0.85224  1.0000
  C   C1293     1.0  0.59841  0.12224  0.52562  1.0000
  C   C1294     1.0  0.70857  0.28715  0.72557  1.0000
  C   C1295     1.0  0.72111  0.29798  0.73583  1.0000
  C   C1296     1.0  0.72120  0.17200  0.88541  1.0000
  H   H2287     1.0  0.66091  0.22476  0.88109  1.0000
  C   C1297     1.0  0.71409  0.16619  0.96398  1.0000
  C   C1298     1.0  0.68955  0.23729  0.76076  1.0000
  C   C1299     1.0  0.67498  0.26305  0.79783  1.0000
  H   H2288     1.0  0.70410  0.15770  0.95806  1.0000
  H   H2289     1.0  0.50996  0.03546  0.49862  1.0000
  N   N70       1.0  0.52221  0.06752  0.74497  1.0000
  H   H2290     1.0  0.57708  0.12551  0.84803  1.0000
  C   C1300     1.0  0.52353  0.05646  0.77126  1.0000
  C   C1301     1.0  0.51582  0.08524  0.75362  1.0000
  H   H2291     1.0  0.65838  0.30443  0.81133  1.0000
  H   H2292     1.0  0.62883  0.15111  0.58730  1.0000
  H   H2293     1.0  0.55194  0.04379  0.73586  1.0000
  C   C1302     1.0  0.52606  0.09395  0.77715  1.0000
  C   C1303     1.0  0.52107  0.03694  0.76800  1.0000
  C   C1304     1.0  0.52541  0.02729  0.79521  1.0000
  C   C1305     1.0  0.63154  0.11805  0.49200  1.0000
  H   H2294     1.0  0.52319  0.01344  0.79249  1.0000
  C   C1306     1.0  0.57627  0.19721  0.87098  1.0000
  C   C1307     1.0  0.49872  0.01263  0.51640  1.0000
  C   C1308     1.0  0.73007  0.15940  0.97347  1.0000
  H   H2295     1.0  0.53602  0.05822  0.78185  1.0000
  H   H2296     1.0  0.51354  0.06059  0.78696  1.0000
  C   C1309     1.0  0.72459  0.19469  0.96870  1.0000
  H   H2297     1.0  0.59083  0.08782  0.53431  1.0000
  H   H2298     1.0  0.69546  0.19966  0.53206  1.0000
  C   C1310     1.0  0.73062  0.16595  0.49764  1.0000
  C   C1311     1.0  0.71138  0.18391  0.96112  1.0000
  H   H2299     1.0  0.71809  0.23526  0.61188  1.0000
  H   H2300     1.0  0.71588  0.18099  0.58260  1.0000
  H   H2301     1.0  0.70373  0.26155  0.71249  1.0000
  H   H2302     1.0  0.53935  0.09636  0.77009  1.0000
  H   H2303     1.0  0.52665  0.08602  0.79654  1.0000
  H   H2304     1.0  0.50746  0.03454  0.76314  1.0000
  H   H2305     1.0  0.52907  0.03125  0.75094  1.0000
  H   H2306     1.0  0.60831  0.11438  0.53711  1.0000
  H   H2307     1.0  0.53909  0.02872  0.80079  1.0000
  H   H2308     1.0  0.51717  0.03213  0.81283  1.0000
  C   C1312     1.0  0.72299  0.18871  0.56701  1.0000
  H   H2309     1.0  0.59790  0.21088  0.82472  1.0000
  C   C1313     1.0  0.71316  0.26998  0.72065  1.0000
  H   H2310     1.0  0.57369  0.08714  0.50920  1.0000
  H   H2311     1.0  0.53894  0.07921  0.71437  1.0000
  N   N71       1.0  0.60636  0.13731  0.51113  1.0000
  C   C1314     1.0  0.70995  0.21977  0.51448  1.0000
  C   C1315     1.0  0.53460  0.99606  0.85457  1.0000
  C   C1316     1.0  0.56415  0.05664  0.70180  1.0000
  H   H2312     1.0  0.60382  0.19578  0.86437  1.0000
  N   N72       1.0  0.70235  0.21550  0.56751  1.0000
  H   H2313     1.0  0.59707  0.10397  0.49029  1.0000
  C   C1317     1.0  0.68917  0.20789  0.58714  1.0000
  C   C1318     1.0  0.70260  0.23453  0.57315  1.0000
  H   H2314     1.0  0.67738  0.17942  0.61788  1.0000
  H   H2315     1.0  0.56704  0.31093  0.66308  1.0000
  C   C1319     1.0  0.53955  0.06920  0.73115  1.0000
  C   C1320     1.0  0.70532  0.23983  0.60425  1.0000
  C   C1321     1.0  0.67981  0.19189  0.57690  1.0000
  C   C1322     1.0  0.66903  0.18422  0.60051  1.0000
  H   H2316     1.0  0.61496  0.16966  0.59383  1.0000
  H   H2317     1.0  0.69176  0.26464  0.60008  1.0000
  C   C1323     1.0  0.70440  0.25931  0.60722  1.0000
  H   H2318     1.0  0.68451  0.21979  0.53350  1.0000
  H   H2319     1.0  0.72233  0.21232  0.51544  1.0000
  H   H2320     1.0  0.69498  0.20480  0.60797  1.0000
  H   H2321     1.0  0.67858  0.21747  0.59168  1.0000
  H   H2322     1.0  0.69034  0.24090  0.56616  1.0000
  H   H2323     1.0  0.50486  0.11738  0.92647  1.0000
  H   H2324     1.0  0.57399  0.20721  0.85462  1.0000
  H   H2325     1.0  0.50731  0.31589  0.68506  1.0000
  H   H2326     1.0  0.69682  0.22580  0.85432  1.0000
  H   H2327     1.0  0.48834  0.99949  0.56404  1.0000
  C   C1324     1.0  0.69726  0.21330  0.53716  1.0000
  C   C1325     1.0  0.51754  0.99608  0.84575  1.0000
  H   H2328     1.0  0.71772  0.31132  0.73962  1.0000
  H   H2329     1.0  0.69535  0.23467  0.61844  1.0000
  H   H2330     1.0  0.67092  0.19558  0.55954  1.0000
  H   H2331     1.0  0.68883  0.18174  0.56902  1.0000
  C   C1326     1.0  0.49310  0.06947  0.53767  1.0000
  H   H2332     1.0  0.65961  0.19394  0.60888  1.0000
  H   H2333     1.0  0.66185  0.17335  0.59221  1.0000
  H   H2334     1.0  0.56095  0.06516  0.68362  1.0000
  H   H2335     1.0  0.68330  0.21163  0.74758  1.0000
  H   H2336     1.0  0.52970  0.99183  0.94217  1.0000
  H   H2337     1.0  0.55643  0.06449  0.98015  1.0000
  H   H2338     1.0  0.70585  0.26276  0.62968  1.0000
  H   H2339     1.0  0.71471  0.26523  0.59466  1.0000
  N   N73       1.0  0.59335  0.17588  0.83867  1.0000
  C   C1327     1.0  0.58175  0.16109  0.84370  1.0000
  C   C1328     1.0  0.58694  0.18603  0.81353  1.0000
  C   C1329     1.0  0.61157  0.16968  0.83280  1.0000
  C   C1330     1.0  0.61951  0.15704  0.85476  1.0000
  C   C1331     1.0  0.58176  0.14727  0.82041  1.0000
  C   C1332     1.0  0.59691  0.20236  0.80632  1.0000
  C   C1333     1.0  0.63789  0.15162  0.84663  1.0000
  C   C1334     1.0  0.57113  0.13210  0.82955  1.0000
  C   C1335     1.0  0.58821  0.21275  0.78277  1.0000
  H   H2340     1.0  0.58484  0.15461  0.86403  1.0000
  H   H2341     1.0  0.59574  0.17851  0.88377  1.0000
  H   H2342     1.0  0.58771  0.17801  0.79429  1.0000
  H   H2343     1.0  0.61275  0.16375  0.81162  1.0000
  H   H2344     1.0  0.62017  0.18072  0.83191  1.0000
  H   H2345     1.0  0.61212  0.14523  0.85673  1.0000
  H   H2346     1.0  0.61987  0.16318  0.87567  1.0000
  H   H2347     1.0  0.57608  0.15265  0.80079  1.0000
  H   H2348     1.0  0.59488  0.14214  0.81558  1.0000
  H   H2349     1.0  0.61006  0.19878  0.79887  1.0000
  H   H2350     1.0  0.56508  0.18889  0.87168  1.0000
  H   H2351     1.0  0.63814  0.14464  0.82634  1.0000
  H   H2352     1.0  0.64603  0.16296  0.84479  1.0000
  H   H2353     1.0  0.64337  0.14297  0.86318  1.0000
  H   H2354     1.0  0.55780  0.13637  0.83515  1.0000
  H   H2355     1.0  0.57063  0.12272  0.81217  1.0000
  H   H2356     1.0  0.58733  0.20494  0.76344  1.0000
  H   H2357     1.0  0.57517  0.21735  0.78942  1.0000
  C   C1336     1.0  0.71452  0.26307  0.79865  1.0000
  H   H2358     1.0  0.72266  0.20840  0.96660  1.0000
  H   H2359     1.0  0.57443  0.30427  0.76990  1.0000
  H   H2360     1.0  0.68107  0.26741  0.77794  1.0000
  H   H2361     1.0  0.70768  0.27306  0.78595  1.0000
  H   H2362     1.0  0.52759  0.12173  0.97452  1.0000
  H   H2363     1.0  0.67733  0.24288  0.75237  1.0000
  H   H2364     1.0  0.69970  0.24633  0.75620  1.0000
  H   H2365     1.0  0.70610  0.21492  0.75130  1.0000
  C   C1337     1.0  0.58065  0.09562  0.52350  1.0000
  C   C1338     1.0  0.51762  0.11121  0.78520  1.0000
  H   H2366     1.0  0.51232  0.99675  0.91841  1.0000
  C   C1339     1.0  0.72005  0.20798  0.57323  1.0000
  H   H2367     1.0  0.71243  0.23354  0.51698  1.0000
  C   C1340     1.0  0.61789  0.14593  0.53163  1.0000
  H   H2368     1.0  0.56820  0.16580  0.84611  1.0000
  H   H2369     1.0  0.57813  0.19681  0.91673  1.0000
  H   H2370     1.0  0.67621  0.22570  0.79436  1.0000
  H   H2371     1.0  0.59592  0.22407  0.77768  1.0000
  N   N74       1.0  0.68566  0.24900  0.81198  1.0000
  H   H2372     1.0  0.71063  0.24445  0.83075  1.0000
  H   H2373     1.0  0.49956  0.99867  0.51234  1.0000
  H   H2374     1.0  0.71573  0.16368  0.86918  1.0000
  H   H2375     1.0  0.71986  0.25288  0.78463  1.0000
  H   H2376     1.0  0.69880  0.22528  0.79943  1.0000
  C   C1341     1.0  0.57701  0.20630  0.89927  1.0000
  H   H2377     1.0  0.66371  0.27646  0.83472  1.0000
  H   H2378     1.0  0.57136  0.10091  0.53932  1.0000
  H   H2379     1.0  0.57602  0.18217  0.50212  1.0000
  H   H2380     1.0  0.58306  0.15259  0.51882  1.0000
  H   H2381     1.0  0.57308  0.18964  0.81608  1.0000
  S   S299      1.0  0.69249  0.19337  0.94613  1.0000
  H   H2382     1.0  0.60129  0.16706  0.54817  1.0000
  C   C1342     1.0  0.50688  0.10481  0.96757  1.0000
  H   H2383     1.0  0.63105  0.17040  0.56651  1.0000
  H   H2384     1.0  0.70103  0.26461  0.83860  1.0000
  C   C1343     1.0  0.54796  0.05268  0.71863  1.0000
  H   H2385     1.0  0.58917  0.12678  0.54214  1.0000
  H   H2386     1.0  0.72335  0.20947  0.59575  1.0000
  C   C1344     1.0  0.67120  0.27940  0.81544  1.0000
  H   H2387     1.0  0.67936  0.21160  0.89062  1.0000
  H   H2388     1.0  0.67613  0.25355  0.85448  1.0000
  C   C1345     1.0  0.61699  0.13163  0.48605  1.0000
  H   H2389     1.0  0.72537  0.28226  0.82578  1.0000
  H   H2390     1.0  0.64127  0.12330  0.50614  1.0000
  H   H2391     1.0  0.62692  0.13631  0.54137  1.0000
  H   H2392     1.0  0.50552  0.01498  0.53638  1.0000
  C   C1346     1.0  0.60873  0.15568  0.55615  1.0000
  H   H2393     1.0  0.49112  0.06955  0.65909  1.0000
  C   C1347     1.0  0.50589  0.07093  0.69756  1.0000
  H   H2394     1.0  0.55868  0.09457  0.96545  1.0000
  C   C1348     1.0  0.72980  0.27140  0.81230  1.0000
  C   C1349     1.0  0.70282  0.25514  0.82133  1.0000
  S   S300      1.0  0.49734  0.04997  0.96244  1.0000
  C   C1350     1.0  0.62173  0.16205  0.57719  1.0000
  H   H2395     1.0  0.51714  0.12005  0.76679  1.0000
  H   H2396     1.0  0.71754  0.28978  0.65576  1.0000
  H   H2397     1.0  0.54893  0.07385  0.74655  1.0000
  H   H2398     1.0  0.62628  0.15511  0.52052  1.0000
  H   H2399     1.0  0.59985  0.14736  0.56775  1.0000
  H   H2400     1.0  0.67944  0.23439  0.89598  1.0000
  H   H2401     1.0  0.56508  0.21424  0.90259  1.0000
  H   H2402     1.0  0.67899  0.21528  0.83958  1.0000
  H   H2403     1.0  0.66243  0.25798  0.79133  1.0000
  H   H2404     1.0  0.62651  0.10633  0.50184  1.0000
  S   S301      1.0  0.59904  0.29844  0.68682  1.0000
  H   H2405     1.0  0.51268  0.04728  0.71867  1.0000
  H   H2406     1.0  0.50472  0.07210  0.54886  1.0000
  C   C1351     1.0  0.59316  0.18670  0.86488  1.0000
  H   H2407     1.0  0.58537  0.11218  0.96707  1.0000
  H   H2408     1.0  0.50011  0.08380  0.70215  1.0000
  H   H2409     1.0  0.57360  0.06289  0.71534  1.0000
  H   H2410     1.0  0.57784  0.11697  0.49532  1.0000
  H   H2411     1.0  0.57016  0.04455  0.69361  1.0000
  H   H2412     1.0  0.49847  0.04901  0.67264  1.0000
  H   H2413     1.0  0.50484  0.09186  0.95914  1.0000
  H   H2414     1.0  0.71886  0.18548  0.54554  1.0000
  H   H2415     1.0  0.49665  0.05960  0.73622  1.0000
  S   S302      1.0  0.64728  0.17142  0.97198  1.0000
  H   H2416     1.0  0.71292  0.24059  0.56077  1.0000
  C   C1352     1.0  0.49836  0.11777  0.94737  1.0000
  C   C1353     1.0  0.66063  0.29269  0.79860  1.0000
  H   H2417     1.0  0.50225  0.08486  0.76093  1.0000
  H   H2418     1.0  0.72944  0.15993  0.51808  1.0000
  Fe  Fe152     1.0  0.63137  0.19583  0.97711  1.0000
  C   C1354     1.0  0.49375  0.06728  0.50821  1.0000
  H   H2419     1.0  0.53205  0.10570  0.94885  1.0000
  C   C1355     1.0  0.58849  0.11005  0.50637  1.0000
  H   H2420     1.0  0.50580  0.06814  0.49693  1.0000
  C   C1356     1.0  0.59210  0.14939  0.50121  1.0000
  C   C1357     1.0  0.72987  0.26361  0.72671  1.0000
  C   C1358     1.0  0.49332  0.06193  0.67865  1.0000
  H   H2421     1.0  0.73507  0.30323  0.64643  1.0000
  H   H2422     1.0  0.73297  0.25014  0.72394  1.0000
  H   H2423     1.0  0.73623  0.26426  0.65641  1.0000
  H   H2424     1.0  0.53384  0.04314  0.97587  1.0000
  H   H2425     1.0  0.73221  0.14567  0.97500  1.0000
  H   H2426     1.0  0.73425  0.29321  0.68069  1.0000
  H   H2427     1.0  0.58858  0.31510  0.74583  1.0000
  H   H2428     1.0  0.60686  0.17311  0.50053  1.0000
  C   C1359     1.0  0.59778  0.16629  0.48729  1.0000
  H   H2429     1.0  0.70350  0.16473  0.48851  1.0000
  H   H2430     1.0  0.72207  0.16461  0.90542  1.0000
  H   H2431     1.0  0.55570  0.12589  0.97007  1.0000
  C   C1360     1.0  0.58198  0.31591  0.76664  1.0000
  C   C1361     1.0  0.52107  0.98631  0.92642  1.0000
  C   C1362     1.0  0.50845  0.02184  0.49305  1.0000
  C   C1363     1.0  0.73155  0.29147  0.65807  1.0000
  H   H2432     1.0  0.72986  0.21518  0.56133  1.0000
  H   H2433     1.0  0.59191  0.31625  0.78320  1.0000
  H   H2434     1.0  0.52144  0.01577  0.49023  1.0000
  H   H2435     1.0  0.58420  0.14312  0.48519  1.0000
  C   C1364     1.0  0.70272  0.21760  0.48497  1.0000
  H   H2436     1.0  0.52870  0.65070  0.07817  1.0000
  Fe  Fe153     1.0  0.52285  0.53537  0.07427  1.0000
  S   S303      1.0  0.49829  0.54994  0.08530  1.0000
  S   S304      1.0  0.51915  0.50642  0.07142  1.0000
  Fe  Fe154     1.0  0.54275  0.56929  0.06585  1.0000
  S   S305      1.0  0.51908  0.58527  0.07639  1.0000
  S   S306      1.0  0.56979  0.58056  0.06085  1.0000
  Fe  Fe155     1.0  0.51461  0.56649  0.11167  1.0000
  S   S307      1.0  0.51183  0.57476  0.15761  1.0000
  Fe  Fe156     1.0  0.50501  0.56705  0.04872  1.0000
  C   C1365     1.0  0.49183  0.39391  0.29183  1.0000
  S   S308      1.0  0.53889  0.55106  0.10259  1.0000
  S   S309      1.0  0.52888  0.55186  0.03624  1.0000
  Fe  Fe157     1.0  0.52763  0.41653  0.14978  1.0000
  S   S310      1.0  0.49954  0.41445  0.14095  1.0000
  S   S311      1.0  0.53980  0.44275  0.15100  1.0000
  Fe  Fe158     1.0  0.53370  0.37736  0.15910  1.0000
  S   S312      1.0  0.50567  0.37334  0.15086  1.0000
  S   S313      1.0  0.54764  0.35130  0.16906  1.0000
  Fe  Fe159     1.0  0.50785  0.39176  0.11455  1.0000
  H   H2437     1.0  0.51559  0.31938  0.22235  1.0000
  Fe  Fe160     1.0  0.49981  0.39624  0.17821  1.0000
  C   C1366     1.0  0.49743  0.48218  0.19727  1.0000
  S   S314      1.0  0.53619  0.39476  0.12120  1.0000
  S   S315      1.0  0.52751  0.39944  0.18869  1.0000
  H   H2438     1.0  0.51347  0.43135  0.47895  1.0000
  H   H2439     1.0  0.52112  0.61219  0.43472  1.0000
  C   C1367     1.0  0.48830  0.43017  0.46141  1.0000
  H   H2440     1.0  0.52818  0.44677  0.01160  1.0000
  C   C1368     1.0  0.60144  0.32447  0.17898  1.0000
  C   C1369     1.0  0.53084  0.36047  0.24457  1.0000
  C   C1370     1.0  0.52445  0.48948  0.09537  1.0000
  C   C1371     1.0  0.51535  0.47431  0.09393  1.0000
  C   C1372     1.0  0.51976  0.46002  0.11098  1.0000
  C   C1373     1.0  0.53346  0.46067  0.12968  1.0000
  C   C1374     1.0  0.54231  0.47601  0.13169  1.0000
  C   C1375     1.0  0.53781  0.49037  0.11471  1.0000
  H   H2441     1.0  0.50481  0.47360  0.07946  1.0000
  H   H2442     1.0  0.51268  0.44842  0.10948  1.0000
  H   H2443     1.0  0.55290  0.47667  0.14614  1.0000
  H   H2444     1.0  0.54503  0.50190  0.11594  1.0000
  H   H2445     1.0  0.68361  0.37009  0.23869  1.0000
  C   C1376     1.0  0.48773  0.51566  0.16443  1.0000
  H   H2446     1.0  0.49470  0.44696  0.30997  1.0000
  H   H2447     1.0  0.51138  0.58473  0.41466  1.0000
  H   H2448     1.0  0.52686  0.63500  0.05083  1.0000
  H   H2449     1.0  0.50397  0.48430  0.41237  1.0000
  H   H2450     1.0  0.59869  0.61989  0.44864  1.0000
  C   C1377     1.0  0.59610  0.63198  0.04078  1.0000
  C   C1378     1.0  0.60478  0.61851  0.05492  1.0000
  C   C1379     1.0  0.59650  0.60302  0.06082  1.0000
  C   C1380     1.0  0.57935  0.60068  0.05299  1.0000
  C   C1381     1.0  0.57066  0.61416  0.03885  1.0000
  C   C1382     1.0  0.57898  0.62963  0.03281  1.0000
  H   H2451     1.0  0.61796  0.61994  0.06109  1.0000
  H   H2452     1.0  0.60350  0.59273  0.07151  1.0000
  H   H2453     1.0  0.55763  0.61255  0.03205  1.0000
  H   H2454     1.0  0.63757  0.60559  0.98771  1.0000
  C   C1383     1.0  0.59989  0.34222  0.17355  1.0000
  C   C1384     1.0  0.58365  0.35067  0.17045  1.0000
  C   C1385     1.0  0.56863  0.34147  0.17267  1.0000
  H   H2455     1.0  0.52143  0.34635  0.34975  1.0000
  H   H2456     1.0  0.61136  0.34953  0.17169  1.0000
  H   H2457     1.0  0.58276  0.36430  0.16627  1.0000
  H   H2458     1.0  0.55210  0.36215  0.27501  1.0000
  C   C1386     1.0  0.49863  0.35282  0.21892  1.0000
  C   C1387     1.0  0.50691  0.62121  0.17081  1.0000
  H   H2459     1.0  0.64910  0.31919  0.09295  1.0000
  H   H2460     1.0  0.66105  0.37199  0.24560  1.0000
  H   H2461     1.0  0.53795  0.60415  0.16847  1.0000
  H   H2462     1.0  0.56298  0.61805  0.17917  1.0000
  H   H2463     1.0  0.50164  0.44036  0.05875  1.0000
  H   H2464     1.0  0.58617  0.33468  0.08315  1.0000
  H   H2465     1.0  0.50815  0.51575  0.22798  1.0000
  H   H2466     1.0  0.55765  0.63830  0.16456  1.0000
  H   H2467     1.0  0.68778  0.34613  0.26997  1.0000
  N   N75       1.0  0.51989  0.34827  0.26102  1.0000
  C   C1388     1.0  0.53053  0.60360  0.42366  1.0000
  C   C1389     1.0  0.52541  0.42590  0.05566  1.0000
  C   C1390     1.0  0.64981  0.33157  0.24764  1.0000
  H   H2468     1.0  0.56844  0.56888  0.45695  1.0000
  H   H2469     1.0  0.50820  0.36550  0.34339  1.0000
  C   C1391     1.0  0.54088  0.59189  0.44443  1.0000
  H   H2470     1.0  0.49313  0.35016  0.30534  1.0000
  C   C1392     1.0  0.50901  0.47917  0.00331  1.0000
  H   H2471     1.0  0.49848  0.54808  0.98604  1.0000
  H   H2472     1.0  0.57335  0.60426  0.11345  1.0000
  C   C1393     1.0  0.52049  0.59291  0.40311  1.0000
  C   C1394     1.0  0.49621  0.57434  0.20969  1.0000
  C   C1395     1.0  0.51047  0.43578  0.04170  1.0000
  H   H2473     1.0  0.53283  0.43446  0.06916  1.0000
  C   C1396     1.0  0.53510  0.63934  0.06815  1.0000
  C   C1397     1.0  0.55935  0.37466  0.23693  1.0000
  H   H2474     1.0  0.58355  0.63608  0.13183  1.0000
  H   H2475     1.0  0.58367  0.58346  0.47040  1.0000
  S   S316      1.0  0.49964  0.38330  0.07080  1.0000
  N   N76       1.0  0.50385  0.46073  0.00569  1.0000
  N   N77       1.0  0.55280  0.61724  0.13683  1.0000
  H   H2476     1.0  0.57227  0.60328  0.44003  1.0000
  H   H2477     1.0  0.58123  0.56326  0.15199  1.0000
  H   H2478     1.0  0.52546  0.37380  0.24684  1.0000
  H   H2479     1.0  0.51902  0.32146  0.27249  1.0000
  N   N78       1.0  0.55013  0.60089  0.46750  1.0000
  H   H2480     1.0  0.68553  0.34532  0.21114  1.0000
  C   C1398     1.0  0.51723  0.52424  0.17051  1.0000
  H   H2481     1.0  0.49376  0.37536  0.01318  1.0000
  H   H2482     1.0  0.56286  0.63175  0.10178  1.0000
  H   H2483     1.0  0.50352  0.39477  0.30373  1.0000
  C   C1399     1.0  0.53316  0.52692  0.18927  1.0000
  H   H2484     1.0  0.55327  0.59485  0.11037  1.0000
  H   H2485     1.0  0.48809  0.50730  0.43887  1.0000
  C   C1400     1.0  0.49444  0.57093  0.18084  1.0000
  H   H2486     1.0  0.57024  0.33554  0.11079  1.0000
  C   C1401     1.0  0.54673  0.53698  0.17356  1.0000
  N   N79       1.0  0.66844  0.33561  0.24297  1.0000
  C   C1402     1.0  0.50886  0.35131  0.34175  1.0000
  H   H2487     1.0  0.51456  0.49091  0.16437  1.0000
  H   H2488     1.0  0.53521  0.33032  0.21518  1.0000
  H   H2489     1.0  0.51204  0.53720  0.16434  1.0000
  H   H2490     1.0  0.52223  0.51825  0.15075  1.0000
  H   H2491     1.0  0.49043  0.34848  0.44265  1.0000
  H   H2492     1.0  0.52130  0.49442  0.19894  1.0000
  H   H2493     1.0  0.57143  0.56655  0.11820  1.0000
  H   H2494     1.0  0.49412  0.49577  0.13300  1.0000
  C   C1403     1.0  0.67411  0.34872  0.26405  1.0000
  C   C1404     1.0  0.53585  0.61251  0.14965  1.0000
  H   H2495     1.0  0.53935  0.51454  0.19573  1.0000
  H   H2496     1.0  0.52960  0.53424  0.20850  1.0000
  H   H2497     1.0  0.58948  0.61579  0.14771  1.0000
  C   C1405     1.0  0.56163  0.60115  0.12572  1.0000
  H   H2498     1.0  0.54276  0.61339  0.07831  1.0000
  H   H2499     1.0  0.66696  0.32735  0.14427  1.0000
  C   C1406     1.0  0.57573  0.32756  0.09342  1.0000
  H   H2500     1.0  0.53051  0.35796  0.22169  1.0000
  H   H2501     1.0  0.55813  0.37344  0.21379  1.0000
  H   H2502     1.0  0.57321  0.37394  0.24212  1.0000
  H   H2503     1.0  0.54756  0.64309  0.05899  1.0000
  C   C1407     1.0  0.56640  0.58721  0.14809  1.0000
  H   H2504     1.0  0.54145  0.54984  0.16738  1.0000
  H   H2505     1.0  0.55792  0.53873  0.18739  1.0000
  H   H2506     1.0  0.55124  0.52998  0.15446  1.0000
  C   C1408     1.0  0.55015  0.36030  0.25221  1.0000
  C   C1409     1.0  0.50984  0.49544  0.18528  1.0000
  H   H2507     1.0  0.52863  0.60452  0.13487  1.0000
  H   H2508     1.0  0.55462  0.58122  0.15621  1.0000
  H   H2509     1.0  0.50436  0.39788  0.25152  1.0000
  C   C1410     1.0  0.58244  0.62819  0.15122  1.0000
  H   H2510     1.0  0.48708  0.51466  0.26797  1.0000
  H   H2511     1.0  0.67676  0.39313  0.27224  1.0000
  H   H2512     1.0  0.48686  0.58537  0.48275  1.0000
  H   H2513     1.0  0.59009  0.57828  0.12727  1.0000
  C   C1411     1.0  0.52768  0.48203  0.99309  1.0000
  H   H2514     1.0  0.55652  0.34796  0.24584  1.0000
  H   H2515     1.0  0.50813  0.57918  0.21726  1.0000
  C   C1412     1.0  0.56336  0.62547  0.15911  1.0000
  C   C1413     1.0  0.67189  0.34167  0.21328  1.0000
  H   H2516     1.0  0.60521  0.63908  0.16859  1.0000
  H   H2517     1.0  0.66408  0.35345  0.20834  1.0000
  C   C1414     1.0  0.53770  0.62486  0.08966  1.0000
  C   C1415     1.0  0.61816  0.34033  0.24692  1.0000
  H   H2518     1.0  0.52090  0.63667  0.14186  1.0000
  C   C1416     1.0  0.57800  0.57299  0.13556  1.0000
  H   H2519     1.0  0.68189  0.32073  0.29401  1.0000
  C   C1417     1.0  0.55042  0.62985  0.11282  1.0000
  H   H2520     1.0  0.59129  0.62977  0.19453  1.0000
  H   H2521     1.0  0.57331  0.59251  0.16611  1.0000
  C   C1418     1.0  0.50077  0.43789  0.48201  1.0000
  H   H2522     1.0  0.49417  0.42604  0.32614  1.0000
  H   H2523     1.0  0.50685  0.34452  0.20525  1.0000
  H   H2524     1.0  0.52934  0.58463  0.39026  1.0000
  C   C1419     1.0  0.52392  0.62766  0.15941  1.0000
  H   H2525     1.0  0.55391  0.38737  0.24342  1.0000
  H   H2526     1.0  0.50914  0.61235  0.18890  1.0000
  H   H2527     1.0  0.52488  0.62208  0.09839  1.0000
  H   H2528     1.0  0.63153  0.62553  0.00450  1.0000
  H   H2529     1.0  0.63649  0.34704  0.21512  1.0000
  C   C1420     1.0  0.51681  0.45124  0.02424  1.0000
  H   H2530     1.0  0.50033  0.51700  0.12283  1.0000
  H   H2531     1.0  0.50023  0.53514  0.21208  1.0000
  H   H2532     1.0  0.50005  0.61436  0.15413  1.0000
  H   H2533     1.0  0.54633  0.64273  0.12081  1.0000
  H   H2534     1.0  0.65654  0.34607  0.15948  1.0000
  C   C1421     1.0  0.52709  0.33011  0.25981  1.0000
  C   C1422     1.0  0.63626  0.34538  0.23835  1.0000
  H   H2535     1.0  0.49271  0.43240  0.43945  1.0000
  H   H2536     1.0  0.52199  0.46003  0.04020  1.0000
  H   H2537     1.0  0.50737  0.48565  0.02407  1.0000
  H   H2538     1.0  0.63844  0.35773  0.24856  1.0000
  H   H2539     1.0  0.53927  0.61163  0.41112  1.0000
  H   H2540     1.0  0.59844  0.63565  0.47610  1.0000
  N   N80       1.0  0.50315  0.51378  0.18335  1.0000
  H   H2541     1.0  0.58514  0.63919  0.44566  1.0000
  H   H2542     1.0  0.48948  0.48587  0.48299  1.0000
  C   C1423     1.0  0.62759  0.61607  0.98869  1.0000
  H   H2543     1.0  0.51805  0.36794  0.29295  1.0000
  C   C1424     1.0  0.59038  0.62926  0.46040  1.0000
  H   H2544     1.0  0.64729  0.32896  0.27032  1.0000
  C   C1425     1.0  0.57238  0.57586  0.47591  1.0000
  H   H2545     1.0  0.53409  0.41998  0.03951  1.0000
  H   H2546     1.0  0.52999  0.63484  0.17649  1.0000
  H   H2547     1.0  0.60859  0.34974  0.23811  1.0000
  H   H2548     1.0  0.48776  0.41614  0.46487  1.0000
  C   C1426     1.0  0.53811  0.61281  0.48374  1.0000
  H   H2549     1.0  0.61531  0.61052  0.99560  1.0000
  H   H2550     1.0  0.50354  0.42668  0.02871  1.0000
  H   H2551     1.0  0.52037  0.41552  0.06911  1.0000
  H   H2552     1.0  0.61532  0.32747  0.23878  1.0000
  H   H2553     1.0  0.55016  0.58424  0.43132  1.0000
  C   C1427     1.0  0.48758  0.56050  0.46362  1.0000
  H   H2554     1.0  0.50157  0.36632  0.21390  1.0000
  H   H2555     1.0  0.66665  0.37841  0.29595  1.0000
  C   C1428     1.0  0.67682  0.37960  0.27960  1.0000
  C   C1429     1.0  0.57589  0.62024  0.47560  1.0000
  C   C1430     1.0  0.50483  0.46394  0.19345  1.0000
  H   H2556     1.0  0.68952  0.37636  0.28905  1.0000
  H   H2557     1.0  0.51294  0.60149  0.38873  1.0000
  C   C1431     1.0  0.50155  0.34939  0.25077  1.0000
  H   H2558     1.0  0.55843  0.62166  0.44098  1.0000
  C   C1432     1.0  0.67349  0.36787  0.25478  1.0000
  H   H2559     1.0  0.65682  0.32184  0.19308  1.0000
  H   H2560     1.0  0.53206  0.58234  0.45352  1.0000
  C   C1433     1.0  0.66800  0.33724  0.16075  1.0000
  C   C1434     1.0  0.49235  0.39573  0.26226  1.0000
  H   H2561     1.0  0.66673  0.34762  0.28412  1.0000
  C   C1435     1.0  0.57019  0.32370  0.17803  1.0000
  H   H2562     1.0  0.67978  0.34445  0.15653  1.0000
  H   H2563     1.0  0.49685  0.45470  0.20499  1.0000
  C   C1436     1.0  0.52856  0.32197  0.23031  1.0000
  C   C1437     1.0  0.49038  0.50959  0.13368  1.0000
  H   H2564     1.0  0.50053  0.48646  0.98846  1.0000
  C   C1438     1.0  0.56410  0.61129  0.45450  1.0000
  H   H2565     1.0  0.56542  0.32547  0.07797  1.0000
  H   H2566     1.0  0.57212  0.63980  0.02161  1.0000
  C   C1439     1.0  0.49883  0.52097  0.21217  1.0000
  H   H2567     1.0  0.49474  0.33763  0.25693  1.0000
  H   H2568     1.0  0.50189  0.45160  0.47609  1.0000
  H   H2569     1.0  0.52943  0.50743  0.01157  1.0000
  H   H2570     1.0  0.61675  0.34017  0.27020  1.0000
  H   H2571     1.0  0.53265  0.35072  0.30117  1.0000
  H   H2572     1.0  0.51812  0.46264  0.20167  1.0000
  C   C1440     1.0  0.50633  0.34584  0.31129  1.0000
  H   H2573     1.0  0.50500  0.46046  0.17082  1.0000
  C   C1441     1.0  0.66886  0.32858  0.18965  1.0000
  H   H2574     1.0  0.53994  0.32914  0.26981  1.0000
  H   H2575     1.0  0.69283  0.32140  0.24240  1.0000
  C   C1442     1.0  0.51997  0.35378  0.29150  1.0000
  H   H2576     1.0  0.49431  0.36017  0.26120  1.0000
  C   C1443     1.0  0.59159  0.63738  0.17472  1.0000
  H   H2577     1.0  0.50711  0.33166  0.31080  1.0000
  H   H2578     1.0  0.53718  0.47624  0.00795  1.0000
  H   H2579     1.0  0.50251  0.50421  0.39298  1.0000
  H   H2580     1.0  0.49565  0.48420  0.22022  1.0000
  H   H2581     1.0  0.53454  0.62437  0.47097  1.0000
  H   H2582     1.0  0.48893  0.48703  0.38364  1.0000
  C   C1444     1.0  0.53112  0.50114  0.99079  1.0000
  H   H2583     1.0  0.49852  0.34617  0.35526  1.0000
  H   H2584     1.0  0.58549  0.65025  0.17842  1.0000
  C   C1445     1.0  0.49501  0.49349  0.40154  1.0000
  H   H2585     1.0  0.49861  0.63220  0.17799  1.0000
  H   H2586     1.0  0.51363  0.59998  0.47761  1.0000
  C   C1446     1.0  0.67908  0.31931  0.24770  1.0000
  H   H2587     1.0  0.72853  0.64813  0.39541  1.0000
  S   S317      1.0  0.60614  0.65170  0.03194  1.0000
  H   H2588     1.0  0.71882  0.65055  0.42968  1.0000
  H   H2589     1.0  0.64667  0.31951  0.23681  1.0000
  H   H2590     1.0  0.67961  0.31888  0.18897  1.0000
  H   H2591     1.0  0.52025  0.32119  0.73062  1.0000
  Fe  Fe161     1.0  0.53000  0.54087  0.58142  1.0000
  S   S318      1.0  0.50192  0.54116  0.57260  1.0000
  S   S319      1.0  0.54427  0.51609  0.59494  1.0000
  Fe  Fe162     1.0  0.53302  0.57951  0.56739  1.0000
  S   S320      1.0  0.50442  0.58197  0.55864  1.0000
  S   S321      1.0  0.54750  0.60478  0.56077  1.0000
  Fe  Fe163     1.0  0.50076  0.56558  0.59744  1.0000
  C   C1447     1.0  0.54967  0.54354  0.66753  1.0000
  Fe  Fe164     1.0  0.50791  0.55741  0.53462  1.0000
  H   H2592     1.0  0.48750  0.42606  0.58341  1.0000
  S   S322      1.0  0.52882  0.56477  0.60811  1.0000
  S   S323      1.0  0.53647  0.55544  0.54162  1.0000
  Fe  Fe165     1.0  0.51713  0.41973  0.64580  1.0000
  C   C1448     1.0  0.49425  0.43638  0.51290  1.0000
  S   S324      1.0  0.50979  0.44825  0.64039  1.0000
  Fe  Fe166     1.0  0.53826  0.38597  0.65889  1.0000
  S   S325      1.0  0.51523  0.36994  0.65376  1.0000
  S   S326      1.0  0.56470  0.37444  0.67237  1.0000
  Fe  Fe167     1.0  0.50931  0.38642  0.61555  1.0000
  H   H2593     1.0  0.54230  0.48846  0.70721  1.0000
  Fe  Fe168     1.0  0.50101  0.39034  0.67911  1.0000
  N   N81       1.0  0.54261  0.34608  0.74647  1.0000
  S   S327      1.0  0.53324  0.40152  0.61904  1.0000
  S   S328      1.0  0.52417  0.40586  0.68623  1.0000
  H   H2594     1.0  0.53882  0.45889  0.72401  1.0000
  H   H2595     1.0  0.48778  0.49561  0.65926  1.0000
  H   H2596     1.0  0.55340  0.33996  0.65650  1.0000
  C   C1449     1.0  0.58825  0.63920  0.89042  1.0000
  C   C1450     1.0  0.49528  0.51606  0.76877  1.0000
  H   H2597     1.0  0.50502  0.39827  0.75143  1.0000
  C   C1451     1.0  0.53449  0.49690  0.60582  1.0000
  C   C1452     1.0  0.51666  0.49558  0.60699  1.0000
  C   C1453     1.0  0.50940  0.48035  0.61673  1.0000
  C   C1454     1.0  0.51983  0.46622  0.62534  1.0000
  C   C1455     1.0  0.53765  0.46735  0.62350  1.0000
  C   C1456     1.0  0.54491  0.48265  0.61392  1.0000
  H   H2598     1.0  0.50846  0.50636  0.60069  1.0000
  H   H2599     1.0  0.49560  0.47957  0.61783  1.0000
  H   H2600     1.0  0.54585  0.45664  0.63017  1.0000
  H   H2601     1.0  0.55872  0.48352  0.61304  1.0000
  H   H2602     1.0  0.56029  0.36437  0.73006  1.0000
  H   H2603     1.0  0.51729  0.45196  0.96806  1.0000
  H   H2604     1.0  0.52187  0.41094  0.50947  1.0000
  H   H2605     1.0  0.55037  0.48109  0.55018  1.0000
  H   H2606     1.0  0.55888  0.39596  0.76457  1.0000
  C   C1457     1.0  0.59047  0.31981  0.68061  1.0000
  H   H2607     1.0  0.49618  0.53207  0.67809  1.0000
  C   C1458     1.0  0.60013  0.62954  0.54234  1.0000
  C   C1459     1.0  0.58481  0.63946  0.54382  1.0000
  C   C1460     1.0  0.56900  0.63170  0.54977  1.0000
  C   C1461     1.0  0.56810  0.61387  0.55431  1.0000
  C   C1462     1.0  0.58341  0.60395  0.55280  1.0000
  C   C1463     1.0  0.59921  0.61171  0.54686  1.0000
  C   C1464     1.0  0.49252  0.56742  0.68031  1.0000
  H   H2608     1.0  0.55735  0.63961  0.55086  1.0000
  H   H2609     1.0  0.58311  0.59029  0.55640  1.0000
  H   H2610     1.0  0.61088  0.60381  0.54588  1.0000
  C   C1465     1.0  0.59906  0.33447  0.68842  1.0000
  C   C1466     1.0  0.59108  0.35096  0.68533  1.0000
  C   C1467     1.0  0.57448  0.35322  0.67403  1.0000
  C   C1468     1.0  0.56605  0.33859  0.66557  1.0000
  H   H2611     1.0  0.61174  0.33308  0.69736  1.0000
  H   H2612     1.0  0.59784  0.36208  0.69189  1.0000
  H   H2613     1.0  0.50334  0.56696  0.72197  1.0000
  H   H2614     1.0  0.50972  0.46653  0.51761  1.0000
  C   C1469     1.0  0.54963  0.39550  0.74698  1.0000
  C   C1470     1.0  0.53020  0.46278  0.54751  1.0000
  H   H2615     1.0  0.52128  0.35470  0.71991  1.0000
  H   H2616     1.0  0.50450  0.57018  0.66989  1.0000
  H   H2617     1.0  0.56187  0.59345  0.50713  1.0000
  H   H2618     1.0  0.54825  0.40932  0.55725  1.0000
  C   C1471     1.0  0.52944  0.46483  0.70910  1.0000
  H   H2619     1.0  0.53337  0.46107  0.68741  1.0000
  H   H2620     1.0  0.53211  0.37985  0.76919  1.0000
  H   H2621     1.0  0.54030  0.34989  0.70152  1.0000
  H   H2622     1.0  0.56847  0.63010  0.48776  1.0000
  C   C1472     1.0  0.53184  0.53856  0.67758  1.0000
  C   C1473     1.0  0.52915  0.48432  0.71205  1.0000
  H   H2623     1.0  0.59581  0.62348  0.92515  1.0000
  H   H2624     1.0  0.53224  0.39371  0.55055  1.0000
  H   H2625     1.0  0.49786  0.52969  0.77287  1.0000
  H   H2626     1.0  0.53005  0.47643  0.97200  1.0000
  C   C1474     1.0  0.54030  0.40358  0.54075  1.0000
  H   H2627     1.0  0.51108  0.36244  0.76259  1.0000
  H   H2628     1.0  0.52258  0.54291  0.66124  1.0000
  H   H2629     1.0  0.58228  0.56883  0.51740  1.0000
  H   H2630     1.0  0.54453  0.50288  0.98356  1.0000
  H   H2631     1.0  0.55900  0.36377  0.76740  1.0000
  H   H2632     1.0  0.51799  0.33354  0.66907  1.0000
  C   C1475     1.0  0.51775  0.45553  0.52571  1.0000
  H   H2633     1.0  0.53390  0.48694  0.52531  1.0000
  C   C1476     1.0  0.61191  0.63946  0.96059  1.0000
  H   H2634     1.0  0.50542  0.33684  0.81087  1.0000
  C   C1477     1.0  0.51270  0.34944  0.77161  1.0000
  H   H2635     1.0  0.53786  0.34877  0.79117  1.0000
  H   H2636     1.0  0.50370  0.45170  0.57830  1.0000
  C   C1478     1.0  0.48879  0.38387  0.54748  1.0000
  H   H2637     1.0  0.52892  0.54576  0.69715  1.0000
  H   H2638     1.0  0.51089  0.35909  0.81452  1.0000
  H   H2639     1.0  0.61308  0.62776  0.90199  1.0000
  C   C1479     1.0  0.54173  0.47601  0.53401  1.0000
  H   H2640     1.0  0.52357  0.42956  0.56641  1.0000
  C   C1480     1.0  0.57388  0.32208  0.66923  1.0000
  H   H2641     1.0  0.56378  0.33332  0.72427  1.0000
  C   C1481     1.0  0.52582  0.32761  0.71195  1.0000
  H   H2642     1.0  0.51909  0.48871  0.67028  1.0000
  C   C1482     1.0  0.53182  0.34301  0.77251  1.0000
  H   H2643     1.0  0.54984  0.55762  0.66424  1.0000
  H   H2644     1.0  0.50131  0.33746  0.69538  1.0000
  H   H2645     1.0  0.58190  0.61100  0.49066  1.0000
  C   C1483     1.0  0.58599  0.62481  0.86931  1.0000
  C   C1484     1.0  0.49452  0.51271  0.73714  1.0000
  H   H2646     1.0  0.50352  0.40233  0.80334  1.0000
  C   C1485     1.0  0.57823  0.56251  0.49779  1.0000
  H   H2647     1.0  0.52443  0.59419  0.50968  1.0000
  H   H2648     1.0  0.49186  0.53758  0.93822  1.0000
  H   H2649     1.0  0.53526  0.51261  0.66248  1.0000
  H   H2650     1.0  0.58201  0.61296  0.88026  1.0000
  C   C1486     1.0  0.53242  0.34549  0.71961  1.0000
  C   C1487     1.0  0.55116  0.36307  0.74807  1.0000
  H   H2651     1.0  0.63345  0.64574  0.91559  1.0000
  C   C1488     1.0  0.55741  0.58747  0.48752  1.0000
  C   C1489     1.0  0.62562  0.62454  0.95976  1.0000
  H   H2652     1.0  0.57882  0.34313  0.76565  1.0000
  H   H2653     1.0  0.53150  0.32907  0.77751  1.0000
  H   H2654     1.0  0.52598  0.48736  0.73430  1.0000
  H   H2655     1.0  0.52213  0.51610  0.73559  1.0000
  H   H2656     1.0  0.55678  0.39593  0.72665  1.0000
  C   C1490     1.0  0.55671  0.33229  0.74463  1.0000
  H   H2657     1.0  0.50202  0.37162  0.51263  1.0000
  H   H2658     1.0  0.49297  0.51252  0.50976  1.0000
  C   C1491     1.0  0.53123  0.51892  0.68263  1.0000
  C   C1492     1.0  0.50453  0.34975  0.80094  1.0000
  H   H2659     1.0  0.54901  0.39717  0.52515  1.0000
  H   H2660     1.0  0.54978  0.47012  0.51701  1.0000
  C   C1493     1.0  0.53925  0.37930  0.74891  1.0000
  H   H2661     1.0  0.50552  0.50785  0.77861  1.0000
  H   H2662     1.0  0.54467  0.61785  0.50248  1.0000
  H   H2663     1.0  0.49076  0.35380  0.79933  1.0000
  H   H2664     1.0  0.57559  0.64184  0.90072  1.0000
  H   H2665     1.0  0.54720  0.57882  0.49462  1.0000
  C   C1494     1.0  0.51023  0.61823  0.51064  1.0000
  C   C1495     1.0  0.51646  0.42621  0.54711  1.0000
  H   H2666     1.0  0.56772  0.55375  0.50285  1.0000
  H   H2667     1.0  0.48930  0.41760  0.94091  1.0000
  H   H2668     1.0  0.53860  0.45251  0.55681  1.0000
  C   C1496     1.0  0.51225  0.32879  0.68899  1.0000
  H   H2669     1.0  0.52577  0.45122  0.50758  1.0000
  H   H2670     1.0  0.52296  0.46944  0.56452  1.0000
  H   H2671     1.0  0.50939  0.53312  0.72176  1.0000
  H   H2672     1.0  0.50726  0.43044  0.93154  1.0000
  H   H2673     1.0  0.50517  0.34085  0.75838  1.0000
  H   H2674     1.0  0.62221  0.61445  0.94473  1.0000
  H   H2675     1.0  0.49820  0.61238  0.51792  1.0000
  H   H2676     1.0  0.61697  0.64899  0.97533  1.0000
  H   H2677     1.0  0.50773  0.41606  0.55421  1.0000
  C   C1497     1.0  0.51579  0.49294  0.69199  1.0000
  N   N82       1.0  0.50627  0.44157  0.53604  1.0000
  H   H2678     1.0  0.63834  0.62937  0.95362  1.0000
  C   C1498     1.0  0.51083  0.51892  0.72197  1.0000
  H   H2679     1.0  0.55300  0.53722  0.64722  1.0000
  C   C1499     1.0  0.49552  0.44886  0.56004  1.0000
  N   N83       1.0  0.60762  0.64781  0.93261  1.0000
  C   C1500     1.0  0.50055  0.51881  0.67242  1.0000
  C   C1501     1.0  0.49458  0.43059  0.94236  1.0000
  H   H2680     1.0  0.56421  0.33260  0.78932  1.0000
  H   H2681     1.0  0.53009  0.37970  0.73125  1.0000
  H   H2682     1.0  0.50483  0.42546  0.98322  1.0000
  H   H2683     1.0  0.59162  0.65080  0.87848  1.0000
  H   H2684     1.0  0.55952  0.53984  0.68338  1.0000
  H   H2685     1.0  0.60006  0.63466  0.97082  1.0000
  C   C1502     1.0  0.52913  0.41736  0.52611  1.0000
  H   H2686     1.0  0.51707  0.62289  0.52936  1.0000
  C   C1503     1.0  0.49369  0.39480  0.76307  1.0000
  S   S329      1.0  0.62066  0.63849  0.53471  1.0000
  H   H2687     1.0  0.51660  0.45975  0.71377  1.0000
  H   H2688     1.0  0.54154  0.51568  0.69797  1.0000
  H   H2689     1.0  0.53793  0.42651  0.51634  1.0000
  N   N84       1.0  0.51423  0.51227  0.69264  1.0000
  C   C1504     1.0  0.60183  0.63398  0.91295  1.0000
  H   H2690     1.0  0.54084  0.40698  0.74815  1.0000
  S   S330      1.0  0.50336  0.37514  0.57260  1.0000
  H   H2691     1.0  0.49271  0.49884  0.73452  1.0000
  H   H2692     1.0  0.49617  0.49405  0.53212  1.0000
  C   C1505     1.0  0.49631  0.43539  0.97331  1.0000
  H   H2693     1.0  0.49721  0.46220  0.96152  1.0000
  S   S331      1.0  0.49300  0.40514  0.64028  1.0000
  H   H2694     1.0  0.50342  0.48703  0.69695  1.0000
  H   H2695     1.0  0.50598  0.51979  0.65069  1.0000
  H   H2696     1.0  0.57589  0.62870  0.85396  1.0000
  H   H2697     1.0  0.49023  0.42299  0.51636  1.0000
  C   C1506     1.0  0.52141  0.60490  0.49494  1.0000
  C   C1507     1.0  0.48896  0.55484  0.97334  1.0000
  C   C1508     1.0  0.49113  0.37973  0.51890  1.0000
  H   H2698     1.0  0.50680  0.62925  0.49665  1.0000
  S   S332      1.0  0.49735  0.54904  0.49213  1.0000
  C   C1509     1.0  0.49275  0.39715  0.79248  1.0000
  H   H2699     1.0  0.48920  0.46129  0.55359  1.0000
  H   H2700     1.0  0.59814  0.62207  0.85753  1.0000
  H   H2701     1.0  0.65694  0.65038  0.64447  1.0000
  C   C1510     1.0  0.57036  0.33209  0.76818  1.0000
  C   C1511     1.0  0.49180  0.56564  0.70984  1.0000
  C   C1512     1.0  0.50396  0.45327  0.97644  1.0000
  H   H2702     1.0  0.52232  0.50758  0.97545  1.0000
  H   H2703     1.0  0.49409  0.45063  0.85257  1.0000
  H   H2704     1.0  0.58932  0.55476  0.48939  1.0000
  H   H2705     1.0  0.48828  0.61381  0.78523  1.0000
  H   H2706     1.0  0.53660  0.31931  0.70378  1.0000
  H   H2707     1.0  0.55118  0.31936  0.74483  1.0000
  Fe  Fe169     1.0  0.66874  0.78191  0.25689  1.0000
  S   S333      1.0  0.66963  0.75383  0.26674  1.0000
  S   S334      1.0  0.69354  0.79579  0.24781  1.0000
  Fe  Fe170     1.0  0.62953  0.78609  0.26978  1.0000
  S   S335      1.0  0.62844  0.75777  0.27924  1.0000
  S   S336      1.0  0.60279  0.79922  0.27795  1.0000
  Fe  Fe171     1.0  0.65253  0.76045  0.30393  1.0000
  S   S337      1.0  0.65838  0.75361  0.34995  1.0000
  Fe  Fe172     1.0  0.64540  0.75367  0.24102  1.0000
  S   S338      1.0  0.64132  0.73153  0.21089  1.0000
  S   S339      1.0  0.65318  0.78880  0.29577  1.0000
  S   S340      1.0  0.64510  0.78163  0.22955  1.0000
  Fe  Fe173     1.0  0.66523  0.68403  0.02222  1.0000
  S   S341      1.0  0.65604  0.71097  0.01203  1.0000
  H   H2708     1.0  0.64643  0.68139  0.39269  1.0000
  Fe  Fe174     1.0  0.62796  0.67116  0.02784  1.0000
  S   S342      1.0  0.61724  0.69780  0.01839  1.0000
  H   H2709     1.0  0.58684  0.83547  0.38695  1.0000
  S   S343      1.0  0.62521  0.70151  0.43733  1.0000
  Fe  Fe175     1.0  0.63716  0.70751  0.04764  1.0000
  S   S344      1.0  0.63256  0.73041  0.07709  1.0000
  H   H2710     1.0  0.70055  0.76453  0.21522  1.0000
  S   S345      1.0  0.64694  0.68104  0.05930  1.0000
  Fe  Fe176     1.0  0.53795  0.88456  0.30800  1.0000
  S   S346      1.0  0.51416  0.86955  0.31548  1.0000
  S   S347      1.0  0.56523  0.87317  0.29796  1.0000
  Fe  Fe177     1.0  0.51821  0.91948  0.31905  1.0000
  N   N85       1.0  0.50463  0.94392  0.42626  1.0000
  S   S348      1.0  0.51265  0.94862  0.31965  1.0000
  Fe  Fe178     1.0  0.50903  0.88711  0.35259  1.0000
  S   S349      1.0  0.50219  0.87728  0.39686  1.0000
  Fe  Fe179     1.0  0.50064  0.89005  0.28897  1.0000
  H   H2711     1.0  0.71857  0.67684  0.38140  1.0000
  S   S350      1.0  0.53357  0.90114  0.34667  1.0000
  S   S351      1.0  0.52452  0.90436  0.27962  1.0000
  C   C1513     1.0  0.52078  0.96667  0.33727  1.0000
  H   H2712     1.0  0.50737  0.95297  0.20519  1.0000
  H   H2713     1.0  0.67868  0.71831  0.43311  1.0000
  C   C1514     1.0  0.53615  0.96589  0.35225  1.0000
  H   H2714     1.0  0.52082  0.92605  0.18555  1.0000
  H   H2715     1.0  0.54365  0.95398  0.35317  1.0000
  H   H2716     1.0  0.60904  0.75999  0.45332  1.0000
  H   H2717     1.0  0.60538  0.74714  0.20559  1.0000
  H   H2718     1.0  0.63189  0.83852  0.18919  1.0000
  H   H2719     1.0  0.55668  0.92602  0.42718  1.0000
  C   C1515     1.0  0.48698  0.88531  0.42207  1.0000
  H   H2720     1.0  0.59960  0.75535  0.24008  1.0000
  C   C1516     1.0  0.72528  0.76613  0.30000  1.0000
  C   C1517     1.0  0.59271  0.81999  0.28327  1.0000
  C   C1518     1.0  0.57478  0.82130  0.28747  1.0000
  C   C1519     1.0  0.56615  0.83732  0.29208  1.0000
  C   C1520     1.0  0.57531  0.85241  0.29235  1.0000
  C   C1521     1.0  0.59324  0.85109  0.28792  1.0000
  C   C1522     1.0  0.60187  0.83506  0.28347  1.0000
  H   H2721     1.0  0.56746  0.80981  0.28734  1.0000
  H   H2722     1.0  0.55240  0.83801  0.29537  1.0000
  H   H2723     1.0  0.60052  0.86261  0.28803  1.0000
  H   H2724     1.0  0.61563  0.83441  0.28027  1.0000
  C   C1523     1.0  0.63885  0.73169  0.17368  1.0000
  C   C1524     1.0  0.63811  0.71597  0.15957  1.0000
  C   C1525     1.0  0.63612  0.71536  0.13012  1.0000
  C   C1526     1.0  0.63471  0.73051  0.11438  1.0000
  C   C1527     1.0  0.63516  0.74628  0.12853  1.0000
  C   C1528     1.0  0.63740  0.74689  0.15796  1.0000
  H   H2725     1.0  0.63910  0.70414  0.17152  1.0000
  H   H2726     1.0  0.63552  0.70316  0.11965  1.0000
  H   H2727     1.0  0.63388  0.75809  0.11664  1.0000
  H   H2728     1.0  0.63791  0.75907  0.16850  1.0000
  C   C1529     1.0  0.64828  0.73950  0.37389  1.0000
  C   C1530     1.0  0.63674  0.72738  0.36514  1.0000
  C   C1531     1.0  0.62965  0.71599  0.38487  1.0000
  C   C1532     1.0  0.63421  0.71638  0.41345  1.0000
  C   C1533     1.0  0.64552  0.72869  0.42226  1.0000
  C   C1534     1.0  0.65247  0.74019  0.40259  1.0000
  H   H2729     1.0  0.63341  0.72665  0.34314  1.0000
  H   H2730     1.0  0.62077  0.70662  0.37788  1.0000
  H   H2731     1.0  0.64883  0.72939  0.44427  1.0000
  H   H2732     1.0  0.66122  0.74965  0.40968  1.0000
  C   C1535     1.0  0.70103  0.74750  0.08728  1.0000
  H   H2733     1.0  0.67758  0.66933  0.42780  1.0000
  H   H2734     1.0  0.71868  0.74748  0.03809  1.0000
  N   N86       1.0  0.69528  0.69921  0.41280  1.0000
  H   H2735     1.0  0.68626  0.69106  0.13248  1.0000
  C   C1536     1.0  0.58738  0.76918  0.20526  1.0000
  C   C1537     1.0  0.63375  0.82853  0.20573  1.0000
  C   C1538     1.0  0.71237  0.78683  0.23137  1.0000
  C   C1539     1.0  0.71230  0.77142  0.21656  1.0000
  H   H2736     1.0  0.71790  0.71597  0.99957  1.0000
  H   H2737     1.0  0.68272  0.72220  0.36772  1.0000
  C   C1540     1.0  0.52370  0.94078  0.42219  1.0000
  H   H2738     1.0  0.53098  0.94601  0.44002  1.0000
  H   H2739     1.0  0.55836  0.84721  0.20051  1.0000
  H   H2740     1.0  0.51608  0.91506  0.21820  1.0000
  C   C1541     1.0  0.52977  0.92181  0.41818  1.0000
  H   H2741     1.0  0.65869  0.77785  0.03215  1.0000
  H   H2742     1.0  0.71506  0.71277  0.45770  1.0000
  H   H2743     1.0  0.55127  0.92716  0.39018  1.0000
  C   C1542     1.0  0.71221  0.67782  0.00824  1.0000
  C   C1543     1.0  0.54201  0.98065  0.36567  1.0000
  H   H2744     1.0  0.69217  0.71894  0.03494  1.0000
  H   H2745     1.0  0.64441  0.81950  0.19942  1.0000
  H   H2746     1.0  0.69715  0.74806  0.35307  1.0000
  H   H2747     1.0  0.58600  0.83396  0.18444  1.0000
  H   H2748     1.0  0.68258  0.68573  0.37959  1.0000
  S   S352      1.0  0.64715  0.67195  0.99165  1.0000
  H   H2749     1.0  0.71863  0.70442  0.15160  1.0000
  C   C1544     1.0  0.49756  0.93204  0.44829  1.0000
  H   H2750     1.0  0.53065  0.93238  0.21793  1.0000
  N   N87       1.0  0.68947  0.73750  0.06857  1.0000
  H   H2751     1.0  0.50267  0.94183  0.23747  1.0000
  H   H2752     1.0  0.49675  0.86856  0.45489  1.0000
  C   C1545     1.0  0.67877  0.72503  0.08485  1.0000
  H   H2753     1.0  0.70442  0.75969  0.07665  1.0000
  H   H2754     1.0  0.70851  0.73042  0.43544  1.0000
  H   H2755     1.0  0.50339  0.88658  0.16218  1.0000
  C   C1546     1.0  0.71154  0.73757  0.02702  1.0000
  H   H2756     1.0  0.73362  0.71953  0.02654  1.0000
  H   H2757     1.0  0.70337  0.74386  0.01066  1.0000
  C   C1547     1.0  0.50652  0.97619  0.41454  1.0000
  H   H2758     1.0  0.50878  0.96456  0.45517  1.0000
  C   C1548     1.0  0.60084  0.75361  0.43787  1.0000
  H   H2759     1.0  0.52822  0.94795  0.40338  1.0000
  C   C1549     1.0  0.48732  0.87854  0.44961  1.0000
  H   H2760     1.0  0.71913  0.75853  0.13399  1.0000
  H   H2761     1.0  0.61298  0.77656  0.19255  1.0000
  H   H2762     1.0  0.70713  0.70211  0.37180  1.0000
  H   H2763     1.0  0.58774  0.80686  0.14479  1.0000
  C   C1550     1.0  0.66580  0.76189  0.06843  1.0000
  C   C1551     1.0  0.72371  0.71694  0.15777  1.0000
  H   H2764     1.0  0.68510  0.75769  0.03753  1.0000
  H   H2765     1.0  0.59245  0.75617  0.30390  1.0000
  H   H2766     1.0  0.71350  0.74037  0.09046  1.0000
  H   H2767     1.0  0.69335  0.74032  0.13054  1.0000
  H   H2768     1.0  0.73002  0.68652  0.03898  1.0000
  H   H2769     1.0  0.60521  0.78591  0.22383  1.0000
  H   H2770     1.0  0.71582  0.74197  0.37331  1.0000
  H   H2771     1.0  0.60731  0.82848  0.21802  1.0000
  C   C1552     1.0  0.72869  0.68132  0.01814  1.0000
  H   H2772     1.0  0.58965  0.74842  0.44927  1.0000
  H   H2773     1.0  0.68116  0.75810  0.11709  1.0000
  H   H2774     1.0  0.57701  0.78908  0.15828  1.0000
  H   H2775     1.0  0.57061  0.83859  0.22956  1.0000
  C   C1553     1.0  0.58174  0.80807  0.20230  1.0000
  H   H2776     1.0  0.52795  0.91429  0.43781  1.0000
  H   H2777     1.0  0.64403  0.76097  0.04008  1.0000
  C   C1554     1.0  0.70499  0.73698  0.36121  1.0000
  H   H2778     1.0  0.70083  0.66444  0.39328  1.0000
  H   H2779     1.0  0.64418  0.77969  0.06187  1.0000
  H   H2780     1.0  0.60375  0.77159  0.09790  1.0000
  C   C1555     1.0  0.67768  0.74932  0.05169  1.0000
  H   H2781     1.0  0.65882  0.75536  0.08542  1.0000
  H   H2782     1.0  0.71688  0.71378  0.39858  1.0000
  H   H2783     1.0  0.72338  0.75354  0.31004  1.0000
  Fe  Fe180     1.0  0.63495  0.69382  0.48119  1.0000
  H   H2784     1.0  0.57689  0.83805  0.35309  1.0000
  H   H2785     1.0  0.71785  0.72077  0.17828  1.0000
  C   C1556     1.0  0.72736  0.76510  0.20295  1.0000
  H   H2786     1.0  0.55285  0.90673  0.40791  1.0000
  C   C1557     1.0  0.72458  0.72590  0.01152  1.0000
  C   C1558     1.0  0.59492  0.78037  0.10994  1.0000
  C   C1559     1.0  0.70417  0.70986  0.39087  1.0000
  H   H2787     1.0  0.64730  0.66365  0.41699  1.0000
  H   H2788     1.0  0.69925  0.77487  0.31027  1.0000
  H   H2789     1.0  0.70267  0.67851  0.44151  1.0000
  H   H2790     1.0  0.66317  0.68704  0.43659  1.0000
  C   C1560     1.0  0.50384  0.94046  0.21431  1.0000
  C   C1561     1.0  0.58984  0.79484  0.15721  1.0000
  C   C1562     1.0  0.71235  0.67114  0.40013  1.0000
  H   H2791     1.0  0.59380  0.79279  0.09846  1.0000
  H   H2792     1.0  0.66954  0.74164  0.03777  1.0000
  H   H2793     1.0  0.67061  0.73166  0.10089  1.0000
  N   N88       1.0  0.59608  0.79892  0.18628  1.0000
  H   H2794     1.0  0.59951  0.73560  0.31784  1.0000
  S   S353      1.0  0.49360  0.90603  0.32695  1.0000
  H   H2795     1.0  0.58203  0.76569  0.18466  1.0000
  H   H2796     1.0  0.50524  0.88598  0.21446  1.0000
  H   H2797     1.0  0.71484  0.77993  0.33645  1.0000
  C   C1563     1.0  0.70592  0.76421  0.13219  1.0000
  H   H2798     1.0  0.68534  0.70127  0.45537  1.0000
  H   H2799     1.0  0.72706  0.75329  0.19129  1.0000
  H   H2800     1.0  0.71372  0.79188  0.30361  1.0000
  C   C1564     1.0  0.60131  0.78279  0.20216  1.0000
  H   H2801     1.0  0.68617  0.73968  0.47005  1.0000
  C   C1565     1.0  0.68901  0.71011  0.09949  1.0000
  H   H2802     1.0  0.69256  0.70007  0.08387  1.0000
  C   C1566     1.0  0.51873  0.92768  0.20854  1.0000
  C   C1567     1.0  0.67943  0.69214  0.39991  1.0000
  H   H2803     1.0  0.66945  0.71901  0.07066  1.0000
  H   H2804     1.0  0.71991  0.69045  0.42924  1.0000
  H   H2805     1.0  0.72177  0.76505  0.27750  1.0000
  H   H2806     1.0  0.70940  0.71822  0.05909  1.0000
  C   C1568     1.0  0.68992  0.70974  0.43809  1.0000
  C   C1569     1.0  0.51136  0.98239  0.33602  1.0000
  H   H2807     1.0  0.67477  0.71107  0.13922  1.0000
  H   H2808     1.0  0.55245  0.82729  0.21663  1.0000
  C   C1570     1.0  0.54883  0.92043  0.41043  1.0000
  H   H2809     1.0  0.72008  0.72683  0.14191  1.0000
  C   C1571     1.0  0.71257  0.77903  0.31349  1.0000
  H   H2810     1.0  0.68920  0.73418  0.39776  1.0000
  H   H2811     1.0  0.66685  0.69622  0.11362  1.0000
  H   H2812     1.0  0.70640  0.77659  0.12061  1.0000
  H   H2813     1.0  0.55396  0.97991  0.37705  1.0000
  C   C1572     1.0  0.72781  0.79557  0.23295  1.0000
  H   H2814     1.0  0.60825  0.74270  0.42828  1.0000
  H   H2815     1.0  0.56730  0.82456  0.37929  1.0000
  C   C1573     1.0  0.59476  0.75274  0.21871  1.0000
  C   C1574     1.0  0.56346  0.83517  0.21041  1.0000
  H   H2816     1.0  0.71000  0.72944  0.34299  1.0000
  C   C1575     1.0  0.70039  0.72719  0.04782  1.0000
  C   C1576     1.0  0.49175  0.88666  0.17473  1.0000
  H   H2817     1.0  0.67013  0.70273  0.39430  1.0000
  H   H2818     1.0  0.58014  0.74597  0.33136  1.0000
  C   C1577     1.0  0.61723  0.81898  0.21062  1.0000
  C   C1578     1.0  0.65240  0.77063  0.04935  1.0000
  H   H2819     1.0  0.61962  0.80964  0.22780  1.0000
  C   C1579     1.0  0.69391  0.72598  0.38022  1.0000
  C   C1580     1.0  0.57533  0.82551  0.18971  1.0000
  H   H2820     1.0  0.56800  0.82339  0.17018  1.0000
  C   C1581     1.0  0.73495  0.65566  0.48161  1.0000
  C   C1582     1.0  0.69415  0.75201  0.11730  1.0000
  H   H2821     1.0  0.60952  0.81997  0.16700  1.0000
  H   H2822     1.0  0.70091  0.76685  0.15375  1.0000
  C   C1583     1.0  0.61157  0.80990  0.18344  1.0000
  H   H2823     1.0  0.60347  0.77000  0.14929  1.0000
  H   H2824     1.0  0.62286  0.80206  0.17588  1.0000
  C   C1584     1.0  0.60198  0.78288  0.13945  1.0000
  H   H2825     1.0  0.52254  0.91570  0.40126  1.0000
  C   C1585     1.0  0.66928  0.67980  0.41892  1.0000
  H   H2826     1.0  0.58214  0.77456  0.11109  1.0000
  H   H2827     1.0  0.58542  0.80991  0.22463  1.0000
  H   H2828     1.0  0.63742  0.83486  0.22554  1.0000
  S   S354      1.0  0.69416  0.68160  0.03093  1.0000
  C   C1586     1.0  0.70392  0.72086  0.45084  1.0000
  H   H2829     1.0  0.51983  0.93184  0.47699  1.0000
  H   H2830     1.0  0.70101  0.71454  0.10874  1.0000
  H   H2831     1.0  0.67347  0.77211  0.07768  1.0000
  H   H2832     1.0  0.58462  0.74319  0.22063  1.0000
  C   C1587     1.0  0.67853  0.70166  0.12265  1.0000
  H   H2833     1.0  0.72801  0.80750  0.24433  1.0000
  C   C1588     1.0  0.70763  0.68505  0.42237  1.0000
  H   H2834     1.0  0.57025  0.80007  0.20349  1.0000
  H   H2835     1.0  0.57673  0.77399  0.21903  1.0000
  H   H2836     1.0  0.61488  0.78828  0.13718  1.0000
  N   N89       1.0  0.60574  0.78498  0.37396  1.0000
  C   C1589     1.0  0.61005  0.77432  0.39972  1.0000
  C   C1590     1.0  0.62228  0.79049  0.36051  1.0000
  C   C1591     1.0  0.59460  0.80025  0.38271  1.0000
  C   C1592     1.0  0.59608  0.77488  0.35272  1.0000
  C   C1593     1.0  0.60386  0.75685  0.34568  1.0000
  C   C1594     1.0  0.59464  0.76625  0.41511  1.0000
  C   C1595     1.0  0.59035  0.81352  0.35906  1.0000
  C   C1596     1.0  0.63280  0.80317  0.37783  1.0000
  C   C1597     1.0  0.64920  0.80787  0.36228  1.0000
  C   C1598     1.0  0.59329  0.74817  0.32331  1.0000
  C   C1599     1.0  0.50140  0.96211  0.43579  1.0000
  C   C1600     1.0  0.57969  0.82878  0.37045  1.0000
  H   H2837     1.0  0.61633  0.78218  0.41577  1.0000
  H   H2838     1.0  0.61976  0.76398  0.39446  1.0000
  H   H2839     1.0  0.63092  0.77915  0.35642  1.0000
  H   H2840     1.0  0.61992  0.79624  0.33930  1.0000
  H   H2841     1.0  0.60041  0.80699  0.40063  1.0000
  H   H2842     1.0  0.58204  0.79599  0.39093  1.0000
  H   H2843     1.0  0.58253  0.77337  0.35956  1.0000
  H   H2844     1.0  0.59518  0.78204  0.33242  1.0000
  H   H2845     1.0  0.60411  0.74833  0.36443  1.0000
  H   H2846     1.0  0.61717  0.75774  0.33767  1.0000
  H   H2847     1.0  0.58654  0.77637  0.42551  1.0000
  H   H2848     1.0  0.58646  0.75919  0.40059  1.0000
  H   H2849     1.0  0.58277  0.80761  0.34232  1.0000
  H   H2850     1.0  0.60211  0.81861  0.34934  1.0000
  H   H2851     1.0  0.62536  0.81527  0.38185  1.0000
  H   H2852     1.0  0.63671  0.79743  0.39829  1.0000
  H   H2853     1.0  0.64606  0.81438  0.34201  1.0000
  H   H2854     1.0  0.65653  0.81677  0.37528  1.0000
  H   H2855     1.0  0.65745  0.79623  0.35827  1.0000
  C   C1601     1.0  0.69694  0.73080  0.47632  1.0000
  C   C1602     1.0  0.50564  0.93312  0.47794  1.0000
  H   H2856     1.0  0.52061  0.97568  0.41130  1.0000
  C   C1603     1.0  0.72489  0.65754  0.41200  1.0000
  H   H2857     1.0  0.66066  0.66306  0.38579  1.0000
  C   C1604     1.0  0.49594  0.94065  0.39862  1.0000
  H   H2858     1.0  0.49949  0.98320  0.32440  1.0000
  C   C1605     1.0  0.49285  0.88637  0.20441  1.0000
  H   H2859     1.0  0.49670  0.92675  0.39360  1.0000
  C   C1606     1.0  0.65508  0.67149  0.40247  1.0000
  H   H2860     1.0  0.50284  0.94686  0.38088  1.0000
  H   H2861     1.0  0.73211  0.73355  0.99636  1.0000
  H   H2862     1.0  0.48954  0.93306  0.17818  1.0000
  H   H2863     1.0  0.50028  0.97474  0.39390  1.0000
  H   H2864     1.0  0.49874  0.91853  0.44110  1.0000
  H   H2865     1.0  0.48772  0.96433  0.44186  1.0000
  C   C1607     1.0  0.48700  0.93433  0.20117  1.0000
  H   H2866     1.0  0.73676  0.66345  0.41944  1.0000
  Fe  Fe181     1.0  0.66618  0.78397  0.75182  1.0000
  S   S355      1.0  0.66842  0.75575  0.76028  1.0000
  S   S356      1.0  0.68978  0.79940  0.74175  1.0000
  Fe  Fe182     1.0  0.62762  0.78667  0.76798  1.0000
  S   S357      1.0  0.62767  0.75814  0.77712  1.0000
  S   S358      1.0  0.60119  0.80046  0.77640  1.0000
  Fe  Fe183     1.0  0.65262  0.76127  0.79932  1.0000
  S   S359      1.0  0.66228  0.75153  0.84225  1.0000
  Fe  Fe184     1.0  0.64335  0.75481  0.73712  1.0000
  S   S360      1.0  0.63866  0.73180  0.70885  1.0000
  S   S361      1.0  0.65193  0.78985  0.79233  1.0000
  S   S362      1.0  0.64179  0.78299  0.72638  1.0000
  Fe  Fe185     1.0  0.66739  0.68207  0.51399  1.0000
  S   S363      1.0  0.65397  0.70763  0.50649  1.0000
  S   S364      1.0  0.69636  0.68685  0.51428  1.0000
  Fe  Fe186     1.0  0.63210  0.66500  0.52510  1.0000
  S   S365      1.0  0.61723  0.69002  0.51854  1.0000
  H   H2867     1.0  0.51707  0.85590  0.75797  1.0000
  C   C1608     1.0  0.51181  0.92746  0.91508  1.0000
  Fe  Fe187     1.0  0.63784  0.70184  0.54471  1.0000
  S   S366      1.0  0.63570  0.72477  0.57472  1.0000
  H   H2868     1.0  0.69919  0.76642  0.71637  1.0000
  S   S367      1.0  0.65191  0.67675  0.55327  1.0000
  Fe  Fe188     1.0  0.53933  0.88517  0.80946  1.0000
  S   S368      1.0  0.51700  0.86863  0.81856  1.0000
  S   S369      1.0  0.56699  0.87551  0.79907  1.0000
  Fe  Fe189     1.0  0.51714  0.91864  0.81778  1.0000
  H   H2869     1.0  0.57060  0.68606  0.95929  1.0000
  S   S370      1.0  0.51166  0.94761  0.81733  1.0000
  Fe  Fe190     1.0  0.51030  0.88699  0.85390  1.0000
  H   H2870     1.0  0.69707  0.73392  0.69218  1.0000
  Fe  Fe191     1.0  0.50197  0.88711  0.79040  1.0000
  C   C1609     1.0  0.71607  0.67869  0.49953  1.0000
  S   S371      1.0  0.53372  0.90253  0.84670  1.0000
  S   S372      1.0  0.52454  0.90287  0.77958  1.0000
  C   C1610     1.0  0.52058  0.96562  0.83371  1.0000
  H   H2871     1.0  0.52037  0.96178  0.94667  1.0000
  H   H2872     1.0  0.60741  0.97240  0.85183  1.0000
  C   C1611     1.0  0.53735  0.96534  0.84394  1.0000
  H   H2873     1.0  0.58651  0.69929  0.97456  1.0000
  H   H2874     1.0  0.54503  0.95356  0.84339  1.0000
  H   H2875     1.0  0.60970  0.67913  0.95911  1.0000
  C   C1612     1.0  0.68032  0.70277  0.59570  1.0000
  H   H2876     1.0  0.64790  0.66398  0.87953  1.0000
  H   H2877     1.0  0.50558  0.89403  0.71753  1.0000
  H   H2878     1.0  0.50469  0.84758  0.71532  1.0000
  C   C1613     1.0  0.51545  0.83878  0.72207  1.0000
  C   C1614     1.0  0.59323  0.66091  0.93766  1.0000
  C   C1615     1.0  0.59207  0.82150  0.78281  1.0000
  C   C1616     1.0  0.57431  0.82345  0.78842  1.0000
  C   C1617     1.0  0.56641  0.83976  0.79349  1.0000
  C   C1618     1.0  0.57615  0.85447  0.79284  1.0000
  C   C1619     1.0  0.59386  0.85253  0.78698  1.0000
  C   C1620     1.0  0.60179  0.83621  0.78213  1.0000
  H   H2879     1.0  0.56660  0.81222  0.78899  1.0000
  H   H2880     1.0  0.55281  0.84092  0.79807  1.0000
  H   H2881     1.0  0.60156  0.86375  0.78614  1.0000
  H   H2882     1.0  0.61540  0.83504  0.77766  1.0000
  C   C1621     1.0  0.63779  0.73032  0.67149  1.0000
  C   C1622     1.0  0.63248  0.71500  0.65944  1.0000
  C   C1623     1.0  0.63173  0.71310  0.62997  1.0000
  C   C1624     1.0  0.63662  0.72638  0.61208  1.0000
  C   C1625     1.0  0.64192  0.74171  0.62412  1.0000
  C   C1626     1.0  0.64250  0.74370  0.65362  1.0000
  H   H2883     1.0  0.62861  0.70464  0.67302  1.0000
  H   H2884     1.0  0.62688  0.70155  0.62111  1.0000
  H   H2885     1.0  0.64548  0.75218  0.61051  1.0000
  H   H2886     1.0  0.64655  0.75558  0.66251  1.0000
  C   C1627     1.0  0.65236  0.73913  0.86898  1.0000
  C   C1628     1.0  0.63681  0.73117  0.86487  1.0000
  C   C1629     1.0  0.62945  0.72155  0.88685  1.0000
  C   C1630     1.0  0.63752  0.71973  0.91315  1.0000
  C   C1631     1.0  0.65312  0.72758  0.91719  1.0000
  C   C1632     1.0  0.66047  0.73721  0.89523  1.0000
  H   H2887     1.0  0.63056  0.73229  0.84469  1.0000
  H   H2888     1.0  0.61750  0.71534  0.88338  1.0000
  H   H2889     1.0  0.65952  0.72626  0.93723  1.0000
  H   H2890     1.0  0.67254  0.74323  0.89861  1.0000
  H   H2891     1.0  0.58514  0.65315  0.54047  1.0000
  H   H2892     1.0  0.58610  0.69662  0.93702  1.0000
  H   H2893     1.0  0.73315  0.74019  0.63176  1.0000
  C   C1633     1.0  0.68466  0.72758  0.56174  1.0000
  H   H2894     1.0  0.72701  0.75449  0.69823  1.0000
  H   H2895     1.0  0.53381  0.92217  0.94226  1.0000
  C   C1634     1.0  0.65079  0.65865  0.62807  1.0000
  C   C1635     1.0  0.70960  0.79009  0.72975  1.0000
  C   C1636     1.0  0.71065  0.77372  0.71805  1.0000
  C   C1637     1.0  0.72711  0.76571  0.61551  1.0000
  H   H2896     1.0  0.68223  0.69516  0.57616  1.0000
  C   C1638     1.0  0.72462  0.79946  0.73161  1.0000
  H   H2897     1.0  0.50241  0.83789  0.79261  1.0000
  C   C1639     1.0  0.68717  0.72571  0.68324  1.0000
  N   N90       1.0  0.53124  0.84135  0.70409  1.0000
  H   H2898     1.0  0.71606  0.75824  0.82727  1.0000
  C   C1640     1.0  0.52519  0.91516  0.92830  1.0000
  H   H2899     1.0  0.69229  0.72189  0.49275  1.0000
  C   C1641     1.0  0.49472  0.88929  0.70638  1.0000
  H   H2900     1.0  0.67903  0.66934  0.60070  1.0000
  H   H2901     1.0  0.50315  0.90618  0.48885  1.0000
  C   C1642     1.0  0.57320  0.90048  0.88892  1.0000
  H   H2902     1.0  0.49894  0.84246  0.67114  1.0000
  C   C1643     1.0  0.71870  0.66158  0.49168  1.0000
  H   H2903     1.0  0.65531  0.68211  0.64924  1.0000
  N   N91       1.0  0.68654  0.69268  0.62106  1.0000
  H   H2904     1.0  0.70836  0.65280  0.49395  1.0000
  C   C1644     1.0  0.62170  0.66779  0.89551  1.0000
  N   N92       1.0  0.58856  0.92567  0.82221  1.0000
  C   C1645     1.0  0.59827  0.93960  0.83627  1.0000
  C   C1646     1.0  0.60086  0.91323  0.80729  1.0000
  C   C1647     1.0  0.57711  0.93421  0.80033  1.0000
  C   C1648     1.0  0.57729  0.91634  0.84274  1.0000
  C   C1649     1.0  0.58628  0.90776  0.86835  1.0000
  C   C1650     1.0  0.58718  0.95384  0.85108  1.0000
  C   C1651     1.0  0.56768  0.92210  0.78039  1.0000
  C   C1652     1.0  0.61874  0.90971  0.82074  1.0000
  C   C1653     1.0  0.62812  0.89433  0.80713  1.0000
  H   H2905     1.0  0.50197  0.94553  0.48792  1.0000
  H   H2906     1.0  0.69731  0.77483  0.79322  1.0000
  C   C1654     1.0  0.72559  0.66690  0.96509  1.0000
  H   H2907     1.0  0.60655  0.94600  0.82042  1.0000
  H   H2908     1.0  0.60725  0.93425  0.85227  1.0000
  H   H2909     1.0  0.59473  0.90070  0.80425  1.0000
  H   H2910     1.0  0.60382  0.91795  0.78564  1.0000
  H   H2911     1.0  0.58467  0.94299  0.78686  1.0000
  H   H2912     1.0  0.56684  0.94232  0.81051  1.0000
  H   H2913     1.0  0.56662  0.92494  0.85051  1.0000
  H   H2914     1.0  0.57084  0.90584  0.83196  1.0000
  H   H2915     1.0  0.59392  0.91692  0.88018  1.0000
  H   H2916     1.0  0.59464  0.89681  0.86125  1.0000
  H   H2917     1.0  0.57965  0.96153  0.83548  1.0000
  H   H2918     1.0  0.57824  0.94835  0.86671  1.0000
  C   C1655     1.0  0.72854  0.75749  0.78549  1.0000
  H   H2919     1.0  0.57680  0.91371  0.76828  1.0000
  H   H2920     1.0  0.62680  0.92102  0.81753  1.0000
  H   H2921     1.0  0.61796  0.90717  0.84361  1.0000
  H   H2922     1.0  0.64120  0.89266  0.81603  1.0000
  H   H2923     1.0  0.62111  0.88245  0.81143  1.0000
  H   H2924     1.0  0.62932  0.89622  0.78401  1.0000
  H   H2925     1.0  0.51217  0.86041  0.66378  1.0000
  H   H2926     1.0  0.56427  0.91079  0.89683  1.0000
  C   C1656     1.0  0.59649  0.67455  0.96034  1.0000
  H   H2927     1.0  0.61307  0.67902  0.90025  1.0000
  H   H2928     1.0  0.59015  0.97644  0.87660  1.0000
  H   H2929     1.0  0.58142  0.65434  0.94448  1.0000
  C   C1657     1.0  0.70919  0.76432  0.62841  1.0000
  H   H2930     1.0  0.68382  0.66685  0.63713  1.0000
  H   H2931     1.0  0.55898  0.91386  0.79247  1.0000
  C   C1658     1.0  0.58409  0.69005  0.95752  1.0000
  H   H2932     1.0  0.50134  0.87283  0.95868  1.0000
  C   C1659     1.0  0.72189  0.76722  0.81206  1.0000
  H   H2933     1.0  0.68975  0.74062  0.55970  1.0000
  H   H2934     1.0  0.56573  0.89048  0.87857  1.0000
  H   H2935     1.0  0.73320  0.69621  0.82201  1.0000
  H   H2936     1.0  0.57462  0.73873  0.92910  1.0000
  C   C1660     1.0  0.54550  0.82922  0.71394  1.0000
  H   H2937     1.0  0.48849  0.91684  0.75086  1.0000
  C   C1661     1.0  0.69502  0.71470  0.65962  1.0000
  H   H2938     1.0  0.70266  0.78668  0.82403  1.0000
  H   H2939     1.0  0.67660  0.73418  0.67502  1.0000
  C   C1662     1.0  0.70563  0.68860  0.61946  1.0000
  H   H2940     1.0  0.67069  0.72842  0.55749  1.0000
  H   H2941     1.0  0.66930  0.70917  0.64569  1.0000
  H   H2942     1.0  0.70958  0.68050  0.63787  1.0000
  H   H2943     1.0  0.53780  0.83846  0.65987  1.0000
  H   H2944     1.0  0.68201  0.71758  0.70038  1.0000
  H   H2945     1.0  0.49769  0.98141  0.82717  1.0000
  S   S373      1.0  0.62740  0.70774  0.94018  1.0000
  H   H2946     1.0  0.72390  0.81216  0.74058  1.0000
  H   H2947     1.0  0.50667  0.93789  0.95680  1.0000
  H   H2948     1.0  0.72752  0.71018  0.55325  1.0000
  H   H2949     1.0  0.68214  0.72973  0.60654  1.0000
  C   C1663     1.0  0.50157  0.83489  0.76990  1.0000
  H   H2950     1.0  0.52860  0.83569  0.76328  1.0000
  C   C1664     1.0  0.70800  0.78071  0.80456  1.0000
  H   H2951     1.0  0.50510  0.92016  0.51850  1.0000
  N   N93       1.0  0.59798  0.77063  0.86878  1.0000
  C   C1665     1.0  0.59811  0.76590  0.83799  1.0000
  C   C1666     1.0  0.61578  0.77512  0.87801  1.0000
  C   C1667     1.0  0.59275  0.75500  0.88532  1.0000
  C   C1668     1.0  0.58510  0.78499  0.87516  1.0000
  C   C1669     1.0  0.58761  0.80211  0.85937  1.0000
  C   C1670     1.0  0.58062  0.76101  0.82559  1.0000
  C   C1671     1.0  0.59548  0.75544  0.91771  1.0000
  C   C1672     1.0  0.62724  0.78455  0.85650  1.0000
  C   C1673     1.0  0.64308  0.79137  0.87075  1.0000
  C   C1674     1.0  0.57220  0.81450  0.86371  1.0000
  C   C1675     1.0  0.58255  0.75545  0.79493  1.0000
  C   C1676     1.0  0.58870  0.73937  0.93187  1.0000
  H   H2952     1.0  0.60752  0.75503  0.83433  1.0000
  H   H2953     1.0  0.60274  0.77643  0.82451  1.0000
  H   H2954     1.0  0.61501  0.78274  0.89774  1.0000
  H   H2955     1.0  0.62350  0.76328  0.88334  1.0000
  H   H2956     1.0  0.59989  0.74336  0.87744  1.0000
  H   H2957     1.0  0.57893  0.75262  0.88223  1.0000
  H   H2958     1.0  0.57184  0.78085  0.87122  1.0000
  H   H2959     1.0  0.58523  0.78816  0.89790  1.0000
  H   H2960     1.0  0.58920  0.80024  0.83644  1.0000
  H   H2961     1.0  0.59899  0.80844  0.86771  1.0000
  H   H2962     1.0  0.57505  0.75019  0.83725  1.0000
  H   H2963     1.0  0.57139  0.77216  0.82613  1.0000
  H   H2964     1.0  0.58872  0.76669  0.92733  1.0000
  H   H2965     1.0  0.60930  0.75587  0.92290  1.0000
  H   H2966     1.0  0.63171  0.77539  0.84000  1.0000
  H   H2967     1.0  0.62049  0.79539  0.84577  1.0000
  H   H2968     1.0  0.63928  0.80122  0.88656  1.0000
  H   H2969     1.0  0.65054  0.78078  0.88122  1.0000
  H   H2970     1.0  0.65150  0.79732  0.85478  1.0000
  H   H2971     1.0  0.56051  0.80928  0.85432  1.0000
  H   H2972     1.0  0.56991  0.81692  0.88646  1.0000
  H   H2973     1.0  0.57473  0.82691  0.85316  1.0000
  H   H2974     1.0  0.59140  0.74403  0.79316  1.0000
  H   H2975     1.0  0.56986  0.75209  0.78659  1.0000
  H   H2976     1.0  0.58754  0.76597  0.78174  1.0000
  C   C1677     1.0  0.49026  0.88035  0.95163  1.0000
  H   H2977     1.0  0.69821  0.66794  0.97352  1.0000
  H   H2978     1.0  0.57434  0.80782  0.71963  1.0000
  H   H2979     1.0  0.54656  0.94013  0.77029  1.0000
  C   C1678     1.0  0.53625  0.85987  0.70399  1.0000
  C   C1679     1.0  0.54876  0.86552  0.72711  1.0000
  H   H2980     1.0  0.54991  0.83261  0.73523  1.0000
  H   H2981     1.0  0.50516  0.96180  0.89939  1.0000
  C   C1680     1.0  0.49367  0.89120  0.67687  1.0000
  C   C1681     1.0  0.55224  0.88458  0.72406  1.0000
  C   C1682     1.0  0.57720  0.82036  0.70978  1.0000
  C   C1683     1.0  0.71074  0.67083  0.98138  1.0000
  H   H2982     1.0  0.71344  0.79093  0.79120  1.0000
  H   H2983     1.0  0.56136  0.85855  0.72541  1.0000
  H   H2984     1.0  0.54360  0.86326  0.74851  1.0000
  H   H2985     1.0  0.56484  0.84065  0.68580  1.0000
  C   C1684     1.0  0.51113  0.84641  0.66120  1.0000
  H   H2986     1.0  0.73166  0.76707  0.76898  1.0000
  H   H2987     1.0  0.56481  0.94099  0.74647  1.0000
  C   C1685     1.0  0.59840  0.96623  0.86666  1.0000
  C   C1686     1.0  0.68807  0.72052  0.59129  1.0000
  H   H2988     1.0  0.56065  0.88858  0.74135  1.0000
  H   H2989     1.0  0.55882  0.88713  0.70373  1.0000
  H   H2990     1.0  0.54007  0.89238  0.72504  1.0000
  H   H2991     1.0  0.73366  0.71432  0.76122  1.0000
  H   H2992     1.0  0.58806  0.81837  0.69475  1.0000
  H   H2993     1.0  0.72382  0.73252  0.74334  1.0000
  H   H2994     1.0  0.52417  0.82252  0.67329  1.0000
  C   C1687     1.0  0.49934  0.91897  0.49736  1.0000
  S   S374      1.0  0.50550  0.87817  0.89919  1.0000
  C   C1688     1.0  0.55675  0.93238  0.75921  1.0000
  H   H2995     1.0  0.72432  0.66095  0.94477  1.0000
  C   C1689     1.0  0.63904  0.67462  0.88640  1.0000
  H   H2996     1.0  0.66623  0.70527  0.59695  1.0000
  H   H2997     1.0  0.55047  0.92351  0.74471  1.0000
  H   H2998     1.0  0.70624  0.70736  0.66843  1.0000
  C   C1690     1.0  0.51699  0.84192  0.75404  1.0000
  C   C1691     1.0  0.72982  0.68979  0.49677  1.0000
  H   H2999     1.0  0.71317  0.70026  0.62115  1.0000
  H   H3000     1.0  0.70211  0.71997  0.59398  1.0000
  H   H3001     1.0  0.70996  0.68779  0.57359  1.0000
  C   C1692     1.0  0.51069  0.98103  0.83497  1.0000
  H   H3002     1.0  0.48887  0.97569  0.91298  1.0000
  N   N94       1.0  0.48777  0.94985  0.92918  1.0000
  H   H3003     1.0  0.58974  0.66777  0.91790  1.0000
  H   H3004     1.0  0.52126  0.84738  0.61827  1.0000
  H   H3005     1.0  0.58126  0.82927  0.72634  1.0000
  S   S375      1.0  0.64902  0.66828  0.48635  1.0000
  H   H3006     1.0  0.68000  0.69280  0.66563  1.0000
  H   H3007     1.0  0.50462  0.92005  0.89953  1.0000
  H   H3008     1.0  0.49829  0.84999  0.62120  1.0000
  H   H3009     1.0  0.48939  0.84074  0.76176  1.0000
  H   H3010     1.0  0.53304  0.90884  0.91149  1.0000
  H   H3011     1.0  0.54071  0.81601  0.71639  1.0000
  H   H3012     1.0  0.52458  0.86843  0.70544  1.0000
  H   H3013     1.0  0.72615  0.73580  0.58225  1.0000
  H   H3014     1.0  0.49144  0.92378  0.94433  1.0000
  H   H3015     1.0  0.69978  0.72345  0.64323  1.0000
  H   H3016     1.0  0.69108  0.71923  0.54574  1.0000
  H   H3017     1.0  0.60580  0.95943  0.88347  1.0000
  H   H3018     1.0  0.50386  0.89730  0.66545  1.0000
  C   C1693     1.0  0.56154  0.82793  0.69435  1.0000
  H   H3019     1.0  0.70588  0.66721  0.58894  1.0000
  C   C1694     1.0  0.49925  0.93478  0.93774  1.0000
  H   H3020     1.0  0.51889  0.93754  0.90395  1.0000
  H   H3021     1.0  0.73388  0.71086  0.70949  1.0000
  H   H3022     1.0  0.59457  0.66895  0.98160  1.0000
  H   H3023     1.0  0.73447  0.66624  0.61108  1.0000
  C   C1695     1.0  0.52675  0.83645  0.67435  1.0000
  C   C1696     1.0  0.67767  0.67576  0.62146  1.0000
  H   H3024     1.0  0.70059  0.77475  0.62004  1.0000
  H   H3025     1.0  0.71733  0.75082  0.77714  1.0000
  H   H3026     1.0  0.70965  0.76556  0.65167  1.0000
  H   H3027     1.0  0.59510  0.72769  0.92290  1.0000
  H   H3028     1.0  0.65110  0.68428  0.61231  1.0000
  C   C1697     1.0  0.48897  0.88504  0.92303  1.0000
  H   H3029     1.0  0.62987  0.66330  0.93816  1.0000
  H   H3030     1.0  0.55896  0.81943  0.67632  1.0000
  C   C1698     1.0  0.62368  0.65585  0.92145  1.0000
  H   H3031     1.0  0.54241  0.86325  0.68354  1.0000
  S   S376      1.0  0.49341  0.90386  0.82673  1.0000
  H   H3032     1.0  0.55749  0.98038  0.86112  1.0000
  C   C1699     1.0  0.49787  0.96488  0.91897  1.0000
  C   C1700     1.0  0.68189  0.70208  0.64803  1.0000
  H   H3033     1.0  0.72795  0.70305  0.50266  1.0000
  C   C1701     1.0  0.51097  0.97196  0.93992  1.0000
  H   H3034     1.0  0.63723  0.68374  0.86855  1.0000
  H   H3035     1.0  0.73149  0.77879  0.62003  1.0000
  C   C1702     1.0  0.72648  0.76700  0.70777  1.0000
  C   C1703     1.0  0.65814  0.67653  0.62824  1.0000
  H   H3036     1.0  0.57995  0.89449  0.90717  1.0000
  H   H3037     1.0  0.51889  0.90501  0.94071  1.0000
  H   H3038     1.0  0.64503  0.68151  0.90394  1.0000
  H   H3039     1.0  0.72578  0.72564  0.80300  1.0000
  C   C1704     1.0  0.54438  0.98055  0.85392  1.0000
  H   H3040     1.0  0.48982  0.93707  0.76837  1.0000
  H   H3041     1.0  0.70369  0.75189  0.62297  1.0000
  C   C1705     1.0  0.71223  0.67948  0.59228  1.0000
  H   H3042     1.0  0.72616  0.76442  0.59235  1.0000
  H   H3043     1.0  0.73230  0.77389  0.82266  1.0000
  H   H3044     1.0  0.51093  0.82554  0.71911  1.0000
  C   C1706     1.0  0.73152  0.67536  0.59360  1.0000
  H   H3045     1.0  0.50444  0.97743  0.95879  1.0000
  H   H3046     1.0  0.50132  0.82076  0.76772  1.0000
  H   H3047     1.0  0.52910  0.98122  0.90879  1.0000
  H   H3048     1.0  0.63677  0.65965  0.63249  1.0000
  H   H3049     1.0  0.50836  0.82902  0.62592  1.0000
  H   H3050     1.0  0.59147  0.73958  0.95476  1.0000
  H   H3051     1.0  0.61680  0.66075  0.87736  1.0000
  Fe  Fe192     1.0  0.63705  0.69902  0.98372  1.0000
  C   C1707     1.0  0.50976  0.84291  0.62972  1.0000
  H   H3052     1.0  0.73483  0.73673  0.83107  1.0000
  H   H3053     1.0  0.49330  0.93993  0.87148  1.0000
  H   H3054     1.0  0.70726  0.73838  0.48547  1.0000
  C   C1708     1.0  0.73619  0.72561  0.74775  1.0000
  H   H3055     1.0  0.73589  0.66935  0.57352  1.0000
  H   H3056     1.0  0.65272  0.65258  0.60715  1.0000
  Fe  Fe193     1.0  0.82613  0.17514  0.01363  1.0000
  S   S377      1.0  0.82575  0.20354  0.02331  1.0000
  S   S378      1.0  0.85292  0.16140  0.01545  1.0000
  Fe  Fe194     1.0  0.78688  0.17665  0.00273  1.0000
  S   S379      1.0  0.78438  0.20451  0.01297  1.0000
  C   C1709     1.0  0.97701  0.08737  0.19277  1.0000
  H   H3057     1.0  0.80383  0.21602  0.29568  1.0000
  S   S380      1.0  0.81751  0.22779  0.45623  1.0000
  Fe  Fe195     1.0  0.80218  0.19860  0.04918  1.0000
  S   S381      1.0  0.79525  0.20679  0.09431  1.0000
  H   H3058     1.0  0.79006  0.21247  0.15319  1.0000
  S   S382      1.0  0.80304  0.17020  0.04080  1.0000
  Fe  Fe196     1.0  0.79576  0.26990  0.26642  1.0000
  S   S383      1.0  0.80974  0.24478  0.25788  1.0000
  S   S384      1.0  0.76715  0.26648  0.27481  1.0000
  Fe  Fe197     1.0  0.82995  0.28920  0.26975  1.0000
  S   S385      1.0  0.84561  0.26504  0.26122  1.0000
  H   H3059     1.0  0.75039  0.22731  0.33070  1.0000
  Fe  Fe198     1.0  0.82601  0.25959  0.22793  1.0000
  S   S386      1.0  0.83493  0.25118  0.18384  1.0000
  Fe  Fe199     1.0  0.82772  0.25242  0.29205  1.0000
  S   S387      1.0  0.83663  0.23273  0.32518  1.0000
  S   S388      1.0  0.81113  0.28460  0.23461  1.0000
  S   S389      1.0  0.81301  0.27670  0.30226  1.0000
  Fe  Fe200     1.0  0.91963  0.08089  0.06197  1.0000
  S   S390      1.0  0.94522  0.09339  0.06484  1.0000
  S   S391      1.0  0.89182  0.09251  0.06141  1.0000
  Fe  Fe201     1.0  0.93669  0.04445  0.06805  1.0000
  S   S392      1.0  0.96317  0.05473  0.07138  1.0000
  S   S393      1.0  0.93170  0.01592  0.06150  1.0000
  Fe  Fe202     1.0  0.95126  0.07465  0.10028  1.0000
  S   S394      1.0  0.96350  0.08604  0.13949  1.0000
  Fe  Fe203     1.0  0.95550  0.07257  0.03567  1.0000
  H   H3060     1.0  0.98550  0.00681  0.38706  1.0000
  S   S395      1.0  0.92513  0.06329  0.09918  1.0000
  S   S396      1.0  0.92968  0.06120  0.03062  1.0000
  N   N95       1.0  0.75144  0.25215  0.15104  1.0000
  C   C1710     1.0  0.73769  0.24632  0.35658  1.0000
  H   H3061     1.0  0.79675  0.23077  0.35018  1.0000
  H   H3062     1.0  0.79751  0.19429  0.30094  1.0000
  C   C1711     1.0  0.90335  0.03890  0.15908  1.0000
  H   H3063     1.0  0.89435  0.05284  0.00776  1.0000
  H   H3064     1.0  0.87051  0.24906  0.30732  1.0000
  H   H3065     1.0  0.85990  0.00591  0.08869  1.0000
  H   H3066     1.0  0.87617  0.30202  0.27932  1.0000
  H   H3067     1.0  0.89167  0.25356  0.32006  1.0000
  H   H3068     1.0  0.90233  0.29934  0.24136  1.0000
  C   C1712     1.0  0.93079  0.99800  0.08487  1.0000
  C   C1713     1.0  0.93084  0.99974  0.11415  1.0000
  H   H3069     1.0  0.88238  0.06687  0.48174  1.0000
  H   H3070     1.0  0.93232  0.01224  0.12323  1.0000
  C   C1714     1.0  0.74929  0.27213  0.25339  1.0000
  H   H3071     1.0  0.76328  0.28460  0.16991  1.0000
  H   H3072     1.0  0.76139  0.29224  0.23033  1.0000
  C   C1715     1.0  0.86334  0.14207  0.02843  1.0000
  C   C1716     1.0  0.88108  0.13930  0.02343  1.0000
  C   C1717     1.0  0.89001  0.12437  0.03336  1.0000
  C   C1718     1.0  0.88134  0.11184  0.04847  1.0000
  C   C1719     1.0  0.86361  0.11466  0.05364  1.0000
  C   C1720     1.0  0.85468  0.12962  0.04378  1.0000
  H   H3073     1.0  0.76738  0.21022  0.43516  1.0000
  H   H3074     1.0  0.90360  0.12252  0.02913  1.0000
  H   H3075     1.0  0.85669  0.10514  0.06528  1.0000
  H   H3076     1.0  0.84108  0.13145  0.04787  1.0000
  C   C1721     1.0  0.76232  0.23228  0.19143  1.0000
  H   H3077     1.0  0.88458  0.26202  0.28657  1.0000
  H   H3078     1.0  0.74937  0.23068  0.05789  1.0000
  H   H3079     1.0  0.78790  0.25181  0.38057  1.0000
  H   H3080     1.0  0.76644  0.25649  0.39008  1.0000
  C   C1722     1.0  0.82313  0.22881  0.41986  1.0000
  C   C1723     1.0  0.83004  0.21467  0.40523  1.0000
  C   C1724     1.0  0.83423  0.21616  0.37636  1.0000
  C   C1725     1.0  0.83127  0.23165  0.36162  1.0000
  C   C1726     1.0  0.82423  0.24577  0.37618  1.0000
  C   C1727     1.0  0.82034  0.24437  0.40516  1.0000
  H   H3081     1.0  0.83227  0.20262  0.41619  1.0000
  H   H3082     1.0  0.83969  0.20515  0.36534  1.0000
  H   H3083     1.0  0.82179  0.25772  0.36512  1.0000
  H   H3084     1.0  0.81493  0.25536  0.41626  1.0000
  C   C1728     1.0  0.80709  0.21856  0.11895  1.0000
  C   C1729     1.0  0.82177  0.22732  0.11134  1.0000
  C   C1730     1.0  0.83019  0.23715  0.13148  1.0000
  C   C1731     1.0  0.82404  0.23837  0.15939  1.0000
  C   C1732     1.0  0.80958  0.22932  0.16709  1.0000
  C   C1733     1.0  0.80118  0.21948  0.14698  1.0000
  H   H3085     1.0  0.82644  0.22680  0.08986  1.0000
  H   H3086     1.0  0.84140  0.24406  0.12530  1.0000
  H   H3087     1.0  0.80500  0.22980  0.18861  1.0000
  C   C1734     1.0  0.75836  0.22662  0.22155  1.0000
  H   H3088     1.0  0.84377  0.26086  0.44427  1.0000
  C   C1735     1.0  0.90464  0.30733  0.38076  1.0000
  H   H3089     1.0  0.85445  0.29137  0.41386  1.0000
  C   C1736     1.0  0.88700  0.03461  0.14352  1.0000
  H   H3090     1.0  0.78613  0.24004  0.32111  1.0000
  C   C1737     1.0  0.92839  0.98534  0.13171  1.0000
  H   H3091     1.0  0.86160  0.27320  0.45579  1.0000
  C   C1738     1.0  0.78215  0.21815  0.39849  1.0000
  H   H3092     1.0  0.75884  0.23764  0.23603  1.0000
  H   H3093     1.0  0.74003  0.25165  0.09385  1.0000
  H   H3094     1.0  0.90496  0.07864  0.45153  1.0000
  C   C1739     1.0  0.77487  0.26942  0.35225  1.0000
  C   C1740     1.0  0.73835  0.18763  0.32703  1.0000
  C   C1741     1.0  0.78250  0.28460  0.36718  1.0000
  H   H3095     1.0  0.77267  0.21391  0.30848  1.0000
  H   H3096     1.0  0.75643  0.24819  0.32236  1.0000
  H   H3097     1.0  0.78252  0.26693  0.33294  1.0000
  H   H3098     1.0  0.74193  0.19509  0.05529  1.0000
  S   S397      1.0  0.76361  0.16123  0.99098  1.0000
  C   C1742     1.0  0.96865  0.05581  0.43907  1.0000
  H   H3099     1.0  0.76082  0.18094  0.45318  1.0000
  H   H3100     1.0  0.74045  0.25708  0.37068  1.0000
  H   H3101     1.0  0.80945  0.20469  0.32775  1.0000
  C   C1743     1.0  0.75392  0.23954  0.34048  1.0000
  N   N96       1.0  0.76983  0.23692  0.35792  1.0000
  C   C1744     1.0  0.78438  0.23087  0.33884  1.0000
  H   H3102     1.0  0.74713  0.25602  0.19569  1.0000
  H   H3103     1.0  0.90280  0.03167  0.01648  1.0000
  H   H3104     1.0  0.80072  0.27093  0.16707  1.0000
  H   H3105     1.0  0.95714  0.11326  0.46933  1.0000
  C   C1745     1.0  0.77285  0.27377  0.17042  1.0000
  H   H3106     1.0  0.88037  0.13365  0.46207  1.0000
  H   H3107     1.0  0.74549  0.22101  0.22295  1.0000
  H   H3108     1.0  0.73983  0.22935  0.13509  1.0000
  C   C1746     1.0  0.93427  0.09603  0.43704  1.0000
  H   H3109     1.0  0.75666  0.22933  0.39602  1.0000
  C   C1747     1.0  0.96845  0.06335  0.46587  1.0000
  C   C1748     1.0  0.73815  0.18165  0.05811  1.0000
  C   C1749     1.0  0.97878  0.05209  0.20142  1.0000
  H   H3110     1.0  0.91718  0.30267  0.38935  1.0000
  C   C1750     1.0  0.79936  0.20668  0.31156  1.0000
  H   H3111     1.0  0.90078  0.03914  0.18210  1.0000
  C   C1751     1.0  0.77483  0.25337  0.37161  1.0000
  N   N97       1.0  0.86497  0.17481  0.11262  1.0000
  C   C1752     1.0  0.86153  0.18741  0.13614  1.0000
  C   C1753     1.0  0.84951  0.16394  0.10921  1.0000
  C   C1754     1.0  0.87974  0.16291  0.12142  1.0000
  C   C1755     1.0  0.86976  0.18337  0.08514  1.0000
  C   C1756     1.0  0.86129  0.20123  0.07869  1.0000
  C   C1757     1.0  0.87728  0.19725  0.14607  1.0000
  C   C1758     1.0  0.88401  0.14767  0.10141  1.0000
  C   C1759     1.0  0.83197  0.17334  0.10407  1.0000
  C   C1760     1.0  0.81734  0.16096  0.10756  1.0000
  C   C1761     1.0  0.86698  0.20774  0.04979  1.0000
  C   C1762     1.0  0.87179  0.21288  0.16361  1.0000
  C   C1763     1.0  0.90071  0.13817  0.10971  1.0000
  H   H3112     1.0  0.85627  0.18071  0.15495  1.0000
  H   H3113     1.0  0.85141  0.19710  0.13031  1.0000
  H   H3114     1.0  0.85135  0.15512  0.09104  1.0000
  H   H3115     1.0  0.84807  0.15559  0.12817  1.0000
  H   H3116     1.0  0.87727  0.15745  0.14277  1.0000
  H   H3117     1.0  0.89175  0.17009  0.12318  1.0000
  H   H3118     1.0  0.88386  0.18513  0.08388  1.0000
  H   H3119     1.0  0.86698  0.17489  0.06713  1.0000
  H   H3120     1.0  0.86510  0.21085  0.09426  1.0000
  H   H3121     1.0  0.84715  0.20089  0.07902  1.0000
  H   H3122     1.0  0.88558  0.18876  0.15947  1.0000
  H   H3123     1.0  0.88510  0.20163  0.12795  1.0000
  H   H3124     1.0  0.88546  0.15215  0.07937  1.0000
  H   H3125     1.0  0.87374  0.13820  0.10230  1.0000
  H   H3126     1.0  0.82922  0.18393  0.11893  1.0000
  H   H3127     1.0  0.83149  0.17841  0.08223  1.0000
  H   H3128     1.0  0.80488  0.16790  0.10380  1.0000
  H   H3129     1.0  0.81881  0.15030  0.09226  1.0000
  H   H3130     1.0  0.81705  0.15562  0.12927  1.0000
  H   H3131     1.0  0.86435  0.01050  0.12415  1.0000
  H   H3132     1.0  0.88104  0.20952  0.04932  1.0000
  H   H3133     1.0  0.86035  0.22025  0.04515  1.0000
  H   H3134     1.0  0.86385  0.20904  0.18198  1.0000
  H   H3135     1.0  0.78891  0.20116  0.43318  1.0000
  H   H3136     1.0  0.86426  0.22231  0.15068  1.0000
  H   H3137     1.0  0.89984  0.13318  0.13159  1.0000
  H   H3138     1.0  0.90315  0.12713  0.09541  1.0000
  H   H3139     1.0  0.91172  0.14674  0.10785  1.0000
  N   N98       1.0  0.86034  0.28638  0.36985  1.0000
  C   C1764     1.0  0.86647  0.27113  0.35266  1.0000
  C   C1765     1.0  0.85420  0.28060  0.39864  1.0000
  C   C1766     1.0  0.84522  0.29474  0.35472  1.0000
  C   C1767     1.0  0.87624  0.31543  0.28464  1.0000
  H   H3140     1.0  0.82949  0.30445  0.39060  1.0000
  C   C1768     1.0  0.87312  0.27512  0.32260  1.0000
  H   H3141     1.0  0.76814  0.21682  0.22843  1.0000
  C   C1769     1.0  0.86353  0.26472  0.41217  1.0000
  C   C1770     1.0  0.85788  0.26221  0.44277  1.0000
  H   H3142     1.0  0.74065  0.27272  0.12505  1.0000
  C   C1771     1.0  0.88041  0.25891  0.30837  1.0000
  H   H3143     1.0  0.97620  0.10110  0.18964  1.0000
  H   H3144     1.0  0.85592  0.26196  0.35068  1.0000
  H   H3145     1.0  0.87697  0.26375  0.36329  1.0000
  H   H3146     1.0  0.74715  0.17343  0.04541  1.0000
  H   H3147     1.0  0.84052  0.27698  0.39774  1.0000
  H   H3148     1.0  0.83578  0.28494  0.34935  1.0000
  H   H3149     1.0  0.77271  0.19322  0.41035  1.0000
  H   H3150     1.0  0.92783  0.98696  0.15430  1.0000
  S   S398      1.0  0.97685  0.07480  0.00229  1.0000
  H   H3151     1.0  0.89683  0.28203  0.37177  1.0000
  H   H3152     1.0  0.90776  0.05170  0.15256  1.0000
  H   H3153     1.0  0.86256  0.28039  0.30934  1.0000
  H   H3154     1.0  0.88350  0.28442  0.32302  1.0000
  H   H3155     1.0  0.74974  0.19464  0.32004  1.0000
  H   H3156     1.0  0.89488  0.99953  0.11807  1.0000
  H   H3157     1.0  0.86030  0.25296  0.40058  1.0000
  H   H3158     1.0  0.87763  0.26570  0.41178  1.0000
  H   H3159     1.0  0.86415  0.25034  0.45143  1.0000
  H   H3160     1.0  0.90216  0.02655  0.10699  1.0000
  H   H3161     1.0  0.93948  0.12810  0.47729  1.0000
  H   H3162     1.0  0.86373  0.19855  0.03309  1.0000
  H   H3163     1.0  0.91773  0.10346  0.40174  1.0000
  H   H3164     1.0  0.93832  0.01976  0.99917  1.0000
  H   H3165     1.0  0.76998  0.26636  0.12726  1.0000
  N   N99       1.0  0.92294  0.09801  0.46284  1.0000
  C   C1772     1.0  0.97133  0.07661  0.17137  1.0000
  H   H3166     1.0  0.79612  0.28165  0.37264  1.0000
  C   C1773     1.0  0.75080  0.24255  0.09892  1.0000
  C   C1774     1.0  0.97822  0.07774  0.47017  1.0000
  H   H3167     1.0  0.96797  0.05042  0.15967  1.0000
  C   C1775     1.0  0.88456  0.99601  0.10360  1.0000
  H   H3168     1.0  0.85334  0.04013  0.07387  1.0000
  H   H3169     1.0  0.77514  0.23792  0.19152  1.0000
  H   H3170     1.0  0.87546  0.05298  0.04909  1.0000
  H   H3171     1.0  0.90375  0.31559  0.28975  1.0000
  N   N100      1.0  0.87563  0.02784  0.09371  1.0000
  C   C1776     1.0  0.89131  0.04046  0.01797  1.0000
  C   C1777     1.0  0.79046  0.28108  0.16471  1.0000
  C   C1778     1.0  0.76873  0.26009  0.14823  1.0000
  H   H3172     1.0  0.77926  0.25009  0.14865  1.0000
  C   C1779     1.0  0.74973  0.28535  0.23345  1.0000
  C   C1780     1.0  0.77739  0.20487  0.42059  1.0000
  H   H3173     1.0  0.91704  0.08094  0.41079  1.0000
  C   C1781     1.0  0.89268  0.10987  0.44688  1.0000
  H   H3174     1.0  0.96091  0.04484  0.43549  1.0000
  H   H3175     1.0  0.76035  0.21248  0.37214  1.0000
  H   H3176     1.0  0.79282  0.29139  0.18001  1.0000
  H   H3177     1.0  0.78199  0.29596  0.35299  1.0000
  H   H3178     1.0  0.85194  0.03621  0.13833  1.0000
  H   H3179     1.0  0.89297  0.04748  0.10512  1.0000
  C   C1782     1.0  0.97228  0.05889  0.17586  1.0000
  C   C1783     1.0  0.78253  0.21305  0.32519  1.0000
  C   C1784     1.0  0.76636  0.22399  0.38081  1.0000
  H   H3180     1.0  0.89744  0.04938  0.05908  1.0000
  H   H3181     1.0  0.87593  0.30610  0.35162  1.0000
  H   H3182     1.0  0.91642  0.12354  0.44740  1.0000
  H   H3183     1.0  0.97450  0.02465  0.40398  1.0000
  H   H3184     1.0  0.94630  0.07601  0.39144  1.0000
  H   H3185     1.0  0.76303  0.24847  0.09282  1.0000
  H   H3186     1.0  0.88924  0.13498  0.42677  1.0000
  C   C1785     1.0  0.74878  0.22687  0.08043  1.0000
  C   C1786     1.0  0.88641  0.04352  0.04878  1.0000
  C   C1787     1.0  0.84647  0.03813  0.11713  1.0000
  C   C1788     1.0  0.98351  0.08057  0.21831  1.0000
  H   H3187     1.0  0.76163  0.27334  0.34590  1.0000
  H   H3188     1.0  0.77893  0.20316  0.34072  1.0000
  H   H3189     1.0  0.87725  0.04479  0.14876  1.0000
  C   C1789     1.0  0.93870  0.08786  0.38596  1.0000
  H   H3190     1.0  0.93214  0.08574  0.36571  1.0000
  H   H3191     1.0  0.94433  0.08581  0.44084  1.0000
  H   H3192     1.0  0.77509  0.28777  0.38664  1.0000
  C   C1790     1.0  0.90191  0.30176  0.21832  1.0000
  H   H3193     1.0  0.82772  0.05581  0.09758  1.0000
  H   H3194     1.0  0.84934  0.30042  0.33433  1.0000
  S   S399      1.0  0.84038  0.31588  0.27899  1.0000
  H   H3195     1.0  0.97932  0.03836  0.20470  1.0000
  H   H3196     1.0  0.88489  0.10198  0.46125  1.0000
  C   C1791     1.0  0.83395  0.05363  0.11830  1.0000
  H   H3197     1.0  0.88940  0.29752  0.21042  1.0000
  H   H3198     1.0  0.89382  0.10307  0.42661  1.0000
  H   H3199     1.0  0.77309  0.26823  0.19197  1.0000
  C   C1792     1.0  0.92539  0.09205  0.40898  1.0000
  H   H3200     1.0  0.94758  0.09855  0.38305  1.0000
  H   H3201     1.0  0.94123  0.10794  0.43274  1.0000
  H   H3202     1.0  0.91234  0.29405  0.20785  1.0000
  H   H3203     1.0  0.79117  0.28664  0.14318  1.0000
  H   H3204     1.0  0.76293  0.22063  0.17823  1.0000
  H   H3205     1.0  0.78728  0.22918  0.40981  1.0000
  H   H3206     1.0  0.84077  0.06531  0.12421  1.0000
  H   H3207     1.0  0.88053  0.03490  0.00647  1.0000
  H   H3208     1.0  0.81208  0.30712  0.34588  1.0000
  H   H3209     1.0  0.90658  0.31093  0.35830  1.0000
  H   H3210     1.0  0.89020  0.99362  0.08243  1.0000
  H   H3211     1.0  0.88330  0.21922  0.17149  1.0000
  C   C1793     1.0  0.91045  0.11319  0.45991  1.0000
  C   C1794     1.0  0.74848  0.24534  0.18039  1.0000
  C   C1795     1.0  0.88245  0.12667  0.44194  1.0000
  C   C1796     1.0  0.87019  0.01026  0.10280  1.0000
  H   H3212     1.0  0.87242  0.02004  0.05051  1.0000
  H   H3213     1.0  0.93095  0.31812  0.21854  1.0000
  C   C1797     1.0  0.88204  0.02643  0.06367  1.0000
  H   H3214     1.0  0.91372  0.02912  0.15490  1.0000
  C   C1798     1.0  0.97871  0.06232  0.41692  1.0000
  H   H3215     1.0  0.79250  0.21226  0.38521  1.0000
  C   C1799     1.0  0.75095  0.23749  0.13057  1.0000
  C   C1800     1.0  0.91420  0.08137  0.46833  1.0000
  C   C1801     1.0  0.86045  0.04053  0.09412  1.0000
  H   H3216     1.0  0.82382  0.05139  0.13433  1.0000
  C   C1802     1.0  0.97948  0.01131  0.40703  1.0000
  H   H3217     1.0  0.76240  0.22870  0.13329  1.0000
  H   H3218     1.0  0.89051  0.28996  0.40616  1.0000
  H   H3219     1.0  0.75926  0.21717  0.08441  1.0000
  H   H3220     1.0  0.86498  0.05389  0.09554  1.0000
  H   H3221     1.0  0.83895  0.02673  0.11222  1.0000
  C   C1803     1.0  0.89007  0.03415  0.11132  1.0000
  C   C1804     1.0  0.82074  0.31713  0.35305  1.0000
  H   H3222     1.0  0.88800  0.14877  0.01165  1.0000
  H   H3223     1.0  0.86968  0.12395  0.43321  1.0000
  C   C1805     1.0  0.74831  0.17783  0.46105  1.0000
  C   C1806     1.0  0.87389  0.29960  0.37229  1.0000
  H   H3224     1.0  0.88284  0.02214  0.15187  1.0000
  H   H3225     1.0  0.89397  0.01823  0.06243  1.0000
  C   C1807     1.0  0.89157  0.29326  0.38350  1.0000
  C   C1808     1.0  0.83529  0.30931  0.37083  1.0000
  S   S400      1.0  0.81349  0.17690  0.47484  1.0000
  Fe  Fe204     1.0  0.80815  0.20696  0.98596  1.0000
  H   H3226     1.0  0.92380  0.07042  0.46771  1.0000
  H   H3227     1.0  0.73739  0.27574  0.16136  1.0000
  H   H3228     1.0  0.73813  0.17545  0.31511  1.0000
  H   H3229     1.0  0.97872  0.05639  0.39642  1.0000
  H   H3230     1.0  0.96849  0.00311  0.41195  1.0000
  H   H3231     1.0  0.86947  0.31006  0.38663  1.0000
  H   H3232     1.0  0.73962  0.18465  0.34985  1.0000
  H   H3233     1.0  0.90755  0.11901  0.48084  1.0000
  C   C1809     1.0  0.98450  0.06285  0.22278  1.0000
  H   H3234     1.0  0.73945  0.17778  0.08055  1.0000
  H   H3235     1.0  0.98537  0.01351  0.45084  1.0000
  C   C1810     1.0  0.73767  0.26571  0.14486  1.0000
  C   C1811     1.0  0.94660  0.11636  0.48455  1.0000
  Fe  Fe205     1.0  0.83160  0.17086  0.51126  1.0000
  S   S401      1.0  0.83556  0.19880  0.52085  1.0000
  S   S402      1.0  0.85667  0.15393  0.50968  1.0000
  C   C1812     1.0  0.95505  0.12031  0.51254  1.0000
  S   S403      1.0  0.79398  0.20530  0.51708  1.0000
  H   H3236     1.0  0.74754  0.30024  0.74874  1.0000
  H   H3237     1.0  0.81710  0.13824  0.62489  1.0000
  S   S404      1.0  0.80671  0.22945  0.95465  1.0000
  Fe  Fe206     1.0  0.81297  0.19715  0.55038  1.0000
  S   S405      1.0  0.80931  0.20310  0.59729  1.0000
  H   H3238     1.0  0.80396  0.20725  0.65632  1.0000
  S   S406      1.0  0.80987  0.16913  0.54223  1.0000
  Fe  Fe207     1.0  0.79099  0.27163  0.75566  1.0000
  S   S407      1.0  0.80663  0.24695  0.75072  1.0000
  S   S408      1.0  0.76333  0.26542  0.74376  1.0000
  Fe  Fe208     1.0  0.82374  0.29113  0.77283  1.0000
  S   S409      1.0  0.84071  0.26746  0.76789  1.0000
  C   C1813     1.0  0.77564  0.24957  0.66719  1.0000
  Fe  Fe209     1.0  0.82587  0.26265  0.72821  1.0000
  S   S410      1.0  0.83845  0.25557  0.68595  1.0000
  Fe  Fe210     1.0  0.81970  0.25374  0.79092  1.0000
  S   S411      1.0  0.82624  0.23289  0.82374  1.0000
  S   S412      1.0  0.81002  0.28729  0.73145  1.0000
  S   S413      1.0  0.80307  0.27743  0.79754  1.0000
  Fe  Fe211     1.0  0.91747  0.07366  0.57307  1.0000
  S   S414      1.0  0.94208  0.08558  0.55989  1.0000
  S   S415      1.0  0.89085  0.08771  0.57212  1.0000
  Fe  Fe212     1.0  0.93648  0.03900  0.58980  1.0000
  S   S416      1.0  0.96201  0.04917  0.57660  1.0000
  S   S417      1.0  0.94086  0.01306  0.61188  1.0000
  Fe  Fe213     1.0  0.95334  0.07312  0.59928  1.0000
  C   C1814     1.0  0.90457  0.08016  0.49694  1.0000
  Fe  Fe214     1.0  0.94848  0.06032  0.53862  1.0000
  H   H3239     1.0  0.93529  0.03147  0.72529  1.0000
  S   S418      1.0  0.92834  0.06275  0.61373  1.0000
  S   S419      1.0  0.92332  0.04866  0.55047  1.0000
  H   H3240     1.0  0.87443  0.20265  0.67497  1.0000
  C   C1815     1.0  0.86042  0.18639  0.62730  1.0000
  H   H3241     1.0  0.84511  0.13683  0.60116  1.0000
  H   H3242     1.0  0.84109  0.18477  0.66103  1.0000
  H   H3243     1.0  0.87086  0.14427  0.60923  1.0000
  C   C1816     1.0  0.83662  0.14816  0.59661  1.0000
  H   H3244     1.0  0.86153  0.17461  0.66980  1.0000
  H   H3245     1.0  0.86729  0.15176  0.64377  1.0000
  C   C1817     1.0  0.93453  0.10107  0.48751  1.0000
  H   H3246     1.0  0.94520  0.12388  0.52871  1.0000
  H   H3247     1.0  0.83859  0.16030  0.63676  1.0000
  H   H3248     1.0  0.95075  0.03907  0.94675  1.0000
  H   H3249     1.0  0.95250  0.99679  0.55048  1.0000
  H   H3250     1.0  0.77597  0.21626  0.68990  1.0000
  H   H3251     1.0  0.75447  0.21773  0.70427  1.0000
  H   H3252     1.0  0.98152  0.04744  0.87375  1.0000
  H   H3253     1.0  0.78864  0.27758  0.61631  1.0000
  H   H3254     1.0  0.81480  0.13251  0.58845  1.0000
  C   C1818     1.0  0.86587  0.13567  0.52794  1.0000
  C   C1819     1.0  0.88380  0.13261  0.52686  1.0000
  C   C1820     1.0  0.89170  0.11823  0.54046  1.0000
  C   C1821     1.0  0.88176  0.10647  0.55510  1.0000
  C   C1822     1.0  0.86386  0.10964  0.55642  1.0000
  C   C1823     1.0  0.85597  0.12405  0.54293  1.0000
  C   C1824     1.0  0.81348  0.30604  0.87098  1.0000
  H   H3255     1.0  0.90548  0.11622  0.53959  1.0000
  H   H3256     1.0  0.85596  0.10068  0.56759  1.0000
  H   H3257     1.0  0.84216  0.12592  0.54359  1.0000
  H   H3258     1.0  0.77921  0.25640  0.68665  1.0000
  H   H3259     1.0  0.83192  0.17445  0.60914  1.0000
  H   H3260     1.0  0.86698  0.16084  0.56970  1.0000
  C   C1825     1.0  0.81826  0.14295  0.60287  1.0000
  H   H3261     1.0  0.85081  0.17728  0.56925  1.0000
  C   C1826     1.0  0.81187  0.22959  0.91809  1.0000
  C   C1827     1.0  0.82260  0.21702  0.90560  1.0000
  C   C1828     1.0  0.82697  0.21826  0.87675  1.0000
  C   C1829     1.0  0.82045  0.23189  0.85997  1.0000
  C   C1830     1.0  0.80925  0.24407  0.87225  1.0000
  C   C1831     1.0  0.80514  0.24303  0.90115  1.0000
  H   H3262     1.0  0.82786  0.20657  0.91827  1.0000
  H   H3263     1.0  0.83550  0.20862  0.86740  1.0000
  H   H3264     1.0  0.80368  0.25420  0.85936  1.0000
  H   H3265     1.0  0.79661  0.25267  0.91037  1.0000
  C   C1832     1.0  0.81802  0.21768  0.62133  1.0000
  C   C1833     1.0  0.82960  0.23006  0.61311  1.0000
  C   C1834     1.0  0.83577  0.24155  0.63313  1.0000
  C   C1835     1.0  0.83027  0.24095  0.66142  1.0000
  C   C1836     1.0  0.81885  0.22844  0.66962  1.0000
  C   C1837     1.0  0.81283  0.21685  0.64971  1.0000
  H   H3266     1.0  0.83377  0.23082  0.59138  1.0000
  H   H3267     1.0  0.84479  0.25104  0.62665  1.0000
  H   H3268     1.0  0.81471  0.22763  0.69137  1.0000
  C   C1838     1.0  0.85524  0.18568  0.65887  1.0000
  H   H3269     1.0  0.79194  0.18261  0.81884  1.0000
  H   H3270     1.0  0.93089  0.01663  0.96360  1.0000
  H   H3271     1.0  0.82393  0.27276  0.96041  1.0000
  H   H3272     1.0  0.75055  0.24303  0.92490  1.0000
  C   C1839     1.0  0.74250  0.27445  0.73658  1.0000
  H   H3273     1.0  0.77121  0.29720  0.85332  1.0000
  H   H3274     1.0  0.94275  0.08942  0.49199  1.0000
  H   H3275     1.0  0.75995  0.22211  0.88831  1.0000
  C   C1840     1.0  0.76107  0.27700  0.65228  1.0000
  H   H3276     1.0  0.74419  0.18521  0.91876  1.0000
  C   C1841     1.0  0.76000  0.23639  0.93894  1.0000
  C   C1842     1.0  0.89262  0.06509  0.49769  1.0000
  H   H3277     1.0  0.86369  0.28439  0.87116  1.0000
  H   H3278     1.0  0.77276  0.24186  0.93562  1.0000
  C   C1843     1.0  0.76046  0.23833  0.67532  1.0000
  H   H3279     1.0  0.91012  0.30060  0.84552  1.0000
  H   H3280     1.0  0.97823  0.08369  0.49065  1.0000
  H   H3281     1.0  0.80849  0.28847  0.97381  1.0000
  H   H3282     1.0  0.95222  0.02437  0.66746  1.0000
  C   C1844     1.0  0.81306  0.28165  0.95458  1.0000
  H   H3283     1.0  0.82385  0.27847  0.63725  1.0000
  H   H3284     1.0  0.80240  0.27402  0.94662  1.0000
  H   H3285     1.0  0.79835  0.19162  0.86786  1.0000
  C   C1845     1.0  0.94152  0.99033  0.54095  1.0000
  H   H3286     1.0  0.96472  0.09094  0.79185  1.0000
  S   S420      1.0  0.76526  0.16603  0.50909  1.0000
  H   H3287     1.0  0.73916  0.27552  0.62366  1.0000
  S   S421      1.0  0.83338  0.31686  0.78994  1.0000
  Fe  Fe215     1.0  0.81634  0.20463  0.48636  1.0000
  H   H3288     1.0  0.79273  0.29119  0.88999  1.0000
  H   H3289     1.0  0.96021  0.02177  0.90678  1.0000
  H   H3290     1.0  0.91391  0.07822  0.51423  1.0000
  S   S422      1.0  0.81006  0.17915  0.97431  1.0000
  H   H3291     1.0  0.94450  0.30755  0.83628  1.0000
  H   H3292     1.0  0.73732  0.26190  0.82512  1.0000
  H   H3293     1.0  0.89686  0.09200  0.50142  1.0000
  C   C1846     1.0  0.98535  0.08727  0.68301  1.0000
  H   H3294     1.0  0.77049  0.23173  0.71694  1.0000
  H   H3295     1.0  0.82144  0.29425  0.66448  1.0000
  H   H3296     1.0  0.94164  0.99249  0.51782  1.0000
  H   H3297     1.0  0.75286  0.24882  0.62155  1.0000
  H   H3298     1.0  0.85190  0.19646  0.61730  1.0000
  H   H3299     1.0  0.78779  0.15492  0.94351  1.0000
  H   H3300     1.0  0.91893  0.27662  0.87783  1.0000
  N   N101      1.0  0.85940  0.16987  0.61116  1.0000
  C   C1847     1.0  0.86285  0.17303  0.58016  1.0000
  C   C1848     1.0  0.84129  0.16384  0.61448  1.0000
  C   C1849     1.0  0.87143  0.15593  0.62243  1.0000
  C   C1850     1.0  0.74157  0.27582  0.64663  1.0000
  C   C1851     1.0  0.86025  0.20189  0.67412  1.0000
  H   H3301     1.0  0.87134  0.18666  0.52721  1.0000
  C   C1852     1.0  0.96241  0.08099  0.94923  1.0000
  H   H3302     1.0  0.77549  0.21850  0.57382  1.0000
  H   H3303     1.0  0.85490  0.21347  0.66322  1.0000
  H   H3304     1.0  0.90495  0.08813  0.69317  1.0000
  C   C1853     1.0  0.87594  0.18691  0.57241  1.0000
  H   H3305     1.0  0.86970  0.19984  0.57492  1.0000
  C   C1854     1.0  0.95012  0.08270  0.75589  1.0000
  C   C1855     1.0  0.88788  0.05481  0.74085  1.0000
  H   H3306     1.0  0.87364  0.26092  0.84039  1.0000
  C   C1856     1.0  0.88223  0.18528  0.54198  1.0000
  H   H3307     1.0  0.87345  0.19152  0.62618  1.0000
  H   H3308     1.0  0.95211  0.08627  0.90782  1.0000
  C   C1857     1.0  0.96363  0.08346  0.91977  1.0000
  H   H3309     1.0  0.88889  0.17264  0.53861  1.0000
  H   H3310     1.0  0.85510  0.20179  0.69599  1.0000
  N   N102      1.0  0.76507  0.19486  0.89337  1.0000
  H   H3311     1.0  0.80635  0.20007  0.81986  1.0000
  C   C1858     1.0  0.95357  0.03208  0.96668  1.0000
  H   H3312     1.0  0.74973  0.19037  0.55360  1.0000
  H   H3313     1.0  0.95274  0.09485  0.74462  1.0000
  H   H3314     1.0  0.76966  0.21100  0.94884  1.0000
  H   H3315     1.0  0.78632  0.30911  0.83292  1.0000
  H   H3316     1.0  0.76500  0.15839  0.90815  1.0000
  H   H3317     1.0  0.80392  0.15953  0.91710  1.0000
  H   H3318     1.0  0.76478  0.28903  0.64141  1.0000
  H   H3319     1.0  0.77213  0.18383  0.93379  1.0000
  C   C1859     1.0  0.93754  0.05289  0.69497  1.0000
  C   C1860     1.0  0.77653  0.18341  0.91143  1.0000
  C   C1861     1.0  0.79103  0.15430  0.92074  1.0000
  H   H3320     1.0  0.88740  0.18632  0.58591  1.0000
  C   C1862     1.0  0.76075  0.21715  0.93336  1.0000
  H   H3321     1.0  0.79149  0.14063  0.91448  1.0000
  C   C1863     1.0  0.91864  0.06398  0.73468  1.0000
  H   H3322     1.0  0.93022  0.01995  0.67656  1.0000
  H   H3323     1.0  0.89136  0.19549  0.53712  1.0000
  N   N103      1.0  0.82965  0.29669  0.88092  1.0000
  C   C1864     1.0  0.89068  0.15992  0.62347  1.0000
  C   C1865     1.0  0.93651  0.02589  0.97819  1.0000
  H   H3324     1.0  0.89516  0.30870  0.87177  1.0000
  H   H3325     1.0  0.86961  0.30683  0.77604  1.0000
  H   H3326     1.0  0.95544  0.31433  0.78866  1.0000
  H   H3327     1.0  0.79932  0.25863  0.62923  1.0000
  H   H3328     1.0  0.91484  0.14817  0.63735  1.0000
  H   H3329     1.0  0.78056  0.21666  0.90221  1.0000
  C   C1866     1.0  0.74643  0.19032  0.89715  1.0000
  H   H3330     1.0  0.89290  0.17162  0.63577  1.0000
  H   H3331     1.0  0.87746  0.04764  0.73106  1.0000
  C   C1867     1.0  0.76692  0.21311  0.90292  1.0000
  C   C1868     1.0  0.84232  0.30982  0.88924  1.0000
  C   C1869     1.0  0.77748  0.16421  0.90352  1.0000
  H   H3332     1.0  0.94766  0.00879  0.69433  1.0000
  C   C1870     1.0  0.83658  0.28563  0.85717  1.0000
  H   H3333     1.0  0.95135  0.05571  0.74747  1.0000
  H   H3334     1.0  0.76868  0.18124  0.85383  1.0000
  C   C1871     1.0  0.79894  0.27921  0.65858  1.0000
  C   C1872     1.0  0.78879  0.19923  0.85543  1.0000
  H   H3335     1.0  0.83828  0.27871  0.91311  1.0000
  H   H3336     1.0  0.90729  0.04092  0.71741  1.0000
  C   C1873     1.0  0.81474  0.28798  0.64701  1.0000
  Fe  Fe216     1.0  0.79196  0.17745  0.50726  1.0000
  C   C1874     1.0  0.74199  0.18342  0.56944  1.0000
  H   H3337     1.0  0.96283  0.10902  0.52008  1.0000
  H   H3338     1.0  0.80324  0.27032  0.67562  1.0000
  H   H3339     1.0  0.78423  0.20429  0.81084  1.0000
  C   C1875     1.0  0.94333  0.02127  0.68502  1.0000
  H   H3340     1.0  0.92620  0.05089  0.68169  1.0000
  C   C1876     1.0  0.93115  0.99288  0.61488  1.0000
  C   C1877     1.0  0.90781  0.30205  0.86847  1.0000
  H   H3341     1.0  0.89111  0.04863  0.76136  1.0000
  H   H3342     1.0  0.76258  0.27956  0.67519  1.0000
  H   H3343     1.0  0.74984  0.24644  0.68397  1.0000
  H   H3344     1.0  0.81774  0.27496  0.90007  1.0000
  H   H3345     1.0  0.89953  0.06028  0.70099  1.0000
  C   C1878     1.0  0.90355  0.05454  0.72131  1.0000
  H   H3346     1.0  0.88309  0.06818  0.74451  1.0000
  H   H3347     1.0  0.96228  0.06815  0.79026  1.0000
  H   H3348     1.0  0.92233  0.05625  0.75364  1.0000
  C   C1879     1.0  0.92245  0.31191  0.88226  1.0000
  H   H3349     1.0  0.91558  0.07510  0.66674  1.0000
  C   C1880     1.0  0.81865  0.29460  0.93236  1.0000
  C   C1881     1.0  0.91695  0.08620  0.68065  1.0000
  C   C1882     1.0  0.94352  0.03524  0.70730  1.0000
  C   C1883     1.0  0.79730  0.29517  0.86885  1.0000
  H   H3350     1.0  0.85325  0.30376  0.90100  1.0000
  H   H3351     1.0  0.75581  0.23105  0.65717  1.0000
  H   H3352     1.0  0.94759  0.05672  0.67965  1.0000
  H   H3353     1.0  0.85210  0.26526  0.87802  1.0000
  H   H3354     1.0  0.92732  0.03699  0.98056  1.0000
  C   C1884     1.0  0.93242  0.08385  0.70066  1.0000
  H   H3355     1.0  0.92019  0.31195  0.90547  1.0000
  H   H3356     1.0  0.81564  0.31179  0.84975  1.0000
  H   H3357     1.0  0.93044  0.10047  0.64819  1.0000
  H   H3358     1.0  0.86388  0.27813  0.81988  1.0000
  N   N104      1.0  0.93415  0.06695  0.71621  1.0000
  H   H3359     1.0  0.95696  0.03574  0.71476  1.0000
  H   H3360     1.0  0.79034  0.28927  0.66801  1.0000
  H   H3361     1.0  0.76141  0.20279  0.85016  1.0000
  H   H3362     1.0  0.74728  0.16577  0.87376  1.0000
  C   C1885     1.0  0.76587  0.25358  0.61742  1.0000
  H   H3363     1.0  0.89967  0.13315  0.62506  1.0000
  H   H3364     1.0  0.89585  0.16136  0.60181  1.0000
  C   C1886     1.0  0.77021  0.19417  0.86264  1.0000
  C   C1887     1.0  0.86137  0.26801  0.83579  1.0000
  H   H3365     1.0  0.91961  0.11372  0.67450  1.0000
  C   C1888     1.0  0.82623  0.28539  0.90600  1.0000
  C   C1889     1.0  0.90667  0.28407  0.88106  1.0000
  C   C1890     1.0  0.77681  0.23824  0.60550  1.0000
  H   H3366     1.0  0.85237  0.25882  0.82698  1.0000
  C   C1891     1.0  0.76725  0.22920  0.58227  1.0000
  H   H3367     1.0  0.90745  0.10335  0.64775  1.0000
  H   H3368     1.0  0.78093  0.16230  0.88109  1.0000
  H   H3369     1.0  0.89632  0.27719  0.87055  1.0000
  H   H3370     1.0  0.94442  0.08607  0.68834  1.0000
  H   H3371     1.0  0.93098  0.09469  0.71556  1.0000
  C   C1892     1.0  0.90104  0.14515  0.63716  1.0000
  H   H3372     1.0  0.91345  0.07641  0.74310  1.0000
  C   C1893     1.0  0.78259  0.30529  0.85465  1.0000
  H   H3373     1.0  0.96368  0.13119  0.50972  1.0000
  H   H3374     1.0  0.90368  0.28473  0.90394  1.0000
  H   H3375     1.0  0.78978  0.18823  0.91195  1.0000
  C   C1894     1.0  0.94977  0.06766  0.73474  1.0000
  H   H3376     1.0  0.78901  0.24261  0.59618  1.0000
  C   C1895     1.0  0.91877  0.10194  0.66172  1.0000
  H   H3377     1.0  0.92676  0.10339  0.50694  1.0000
  H   H3378     1.0  0.77987  0.22857  0.62205  1.0000
  C   C1896     1.0  0.73900  0.17748  0.87607  1.0000
  H   H3379     1.0  0.96149  0.06832  0.72150  1.0000
  C   C1897     1.0  0.76572  0.22523  0.69798  1.0000
  H   H3380     1.0  0.89997  0.05289  0.49372  1.0000
  C   C1898     1.0  0.97893  0.07721  0.66129  1.0000
  S   S423      1.0  0.96853  0.08739  0.63210  1.0000
  N   N105      1.0  0.77280  0.26207  0.64320  1.0000
  H   H3381     1.0  0.89670  0.14308  0.65921  1.0000
  C   C1899     1.0  0.91519  0.98964  0.60322  1.0000
  H   H3382     1.0  0.80738  0.30305  0.92719  1.0000
  C   C1900     1.0  0.79298  0.19632  0.82432  1.0000
  C   C1901     1.0  0.85394  0.27589  0.86277  1.0000
  H   H3383     1.0  0.95005  0.08185  0.95972  1.0000
  C   C1902     1.0  0.74692  0.17058  0.48787  1.0000
  H   H3384     1.0  0.98674  0.04252  0.97937  1.0000
  H   H3385     1.0  0.96021  0.05104  0.88816  1.0000
  H   H3386     1.0  0.82735  0.27569  0.85177  1.0000
  H   H3387     1.0  0.81098  0.29789  0.63115  1.0000
  H   H3388     1.0  0.80902  0.15395  0.59974  1.0000
  C   C1903     1.0  0.78998  0.26911  0.63521  1.0000
  H   H3389     1.0  0.83760  0.15116  0.57385  1.0000
  C   C1904     1.0  0.96443  0.07983  0.77743  1.0000
  H   H3390     1.0  0.89166  0.14148  0.51545  1.0000
  H   H3391     1.0  0.75603  0.23872  0.96113  1.0000
  H   H3392     1.0  0.96050  0.00758  0.94762  1.0000
  S   S424      1.0  0.95576  0.05409  0.49281  1.0000
  H   H3393     1.0  0.93778  0.08426  0.76752  1.0000
  H   H3394     1.0  0.93232  0.31400  0.78899  1.0000
  H   H3395     1.0  0.76426  0.26320  0.60012  1.0000
  H   H3396     1.0  0.93436  0.30396  0.87904  1.0000
  H   H3397     1.0  0.79039  0.21302  0.85946  1.0000
  H   H3398     1.0  0.74380  0.16948  0.56540  1.0000
  H   H3399     1.0  0.75530  0.22377  0.59077  1.0000
  N   N106      1.0  0.98408  0.02134  0.95108  1.0000
  H   H3400     1.0  0.82850  0.30257  0.94201  1.0000
  H   H3401     1.0  0.76411  0.23821  0.56473  1.0000
  H   H3402     1.0  0.78682  0.24086  0.66259  1.0000
  C   C1905     1.0  0.97278  0.02685  0.90063  1.0000
  H   H3403     1.0  0.83786  0.29333  0.83750  1.0000
  H   H3404     1.0  0.73765  0.18363  0.85501  1.0000
  H   H3405     1.0  0.74772  0.21262  0.93730  1.0000
  C   C1906     1.0  0.96654  0.01679  0.96188  1.0000
  C   C1907     1.0  0.73804  0.29174  0.74099  1.0000
  H   H3406     1.0  0.90811  0.99978  0.59228  1.0000
  C   C1908     1.0  0.97726  0.07786  0.96507  1.0000
  H   H3407     1.0  0.92950  0.99632  0.54960  1.0000
  H   H3408     1.0  0.85803  0.31248  0.85074  1.0000
  H   H3409     1.0  0.80001  0.28350  0.85646  1.0000
  H   H3410     1.0  0.98417  0.10107  0.68141  1.0000
  C   C1909     1.0  0.98065  0.05937  0.66356  1.0000
  H   H3411     1.0  0.98596  0.99834  0.92618  1.0000
  H   H3412     1.0  0.95855  0.04128  0.98200  1.0000
  C   C1910     1.0  0.98280  0.03340  0.92623  1.0000
  H   H3413     1.0  0.73781  0.20198  0.89540  1.0000
  H   H3414     1.0  0.97714  0.04605  0.93272  1.0000
  H   H3415     1.0  0.74683  0.18609  0.59081  1.0000
  C   C1911     1.0  0.97960  0.08237  0.90569  1.0000
  H   H3416     1.0  0.96765  0.00991  0.98243  1.0000
  C   C1912     1.0  0.96937  0.04123  0.87932  1.0000
  H   H3417     1.0  0.96381  0.03604  0.85988  1.0000
  S   S425      1.0  0.98066  0.08595  0.86860  1.0000
  H   H3418     1.0  0.73844  0.27644  0.79581  1.0000
  H   H3419     1.0  0.98046  0.01657  0.88980  1.0000
  H   H3420     1.0  0.88645  0.06429  0.51881  1.0000
  H   H3421     1.0  0.77900  0.31696  0.86689  1.0000
  H   H3422     1.0  0.97587  0.05144  0.64700  1.0000
  H   H3423     1.0  0.97711  0.07845  0.76669  1.0000
  H   H3424     1.0  0.81004  0.31713  0.88477  1.0000
  C   C1913     1.0  0.74340  0.17023  0.98050  1.0000
  H   H3425     1.0  0.95109  0.31799  0.91340  1.0000
  H   H3426     1.0  0.98624  0.98763  0.97599  1.0000
  C   C1914     1.0  0.74043  0.18793  0.97860  1.0000
  H   H3427     1.0  0.75042  0.19641  0.98442  1.0000
  Fe  Fe217     1.0  0.95909  0.39358  0.29424  1.0000
  S   S426      1.0  0.93125  0.39818  0.28396  1.0000
  H   H3428     1.0  0.88587  0.62220  0.35056  1.0000
  Fe  Fe218     1.0  0.95142  0.38789  0.35764  1.0000
  S   S427      1.0  0.92298  0.39207  0.35096  1.0000
  S   S428      1.0  0.95870  0.37975  0.40255  1.0000
  Fe  Fe219     1.0  0.92605  0.37545  0.31242  1.0000
  S   S429      1.0  0.91296  0.35010  0.30157  1.0000
  Fe  Fe220     1.0  0.93060  0.41435  0.32350  1.0000
  S   S430      1.0  0.91687  0.44079  0.32566  1.0000
  S   S431      1.0  0.95426  0.37017  0.32064  1.0000
  S   S432      1.0  0.95874  0.41096  0.33222  1.0000
  Fe  Fe221     1.0  0.95936  0.56933  0.37301  1.0000
  S   S433      1.0  0.93504  0.55834  0.35735  1.0000
  H   H3429     1.0  0.93532  0.33478  0.13057  1.0000
  Fe  Fe222     1.0  0.95047  0.56188  0.43566  1.0000
  S   S434      1.0  0.92589  0.54986  0.42303  1.0000
  C   C1915     1.0  0.94166  0.43223  0.45039  1.0000
  Fe  Fe223     1.0  0.94075  0.53671  0.38796  1.0000
  S   S435      1.0  0.94706  0.50829  0.37901  1.0000
  Fe  Fe224     1.0  0.92211  0.57273  0.39394  1.0000
  S   S436      1.0  0.89511  0.58622  0.39193  1.0000
  S   S437      1.0  0.96549  0.54741  0.40258  1.0000
  S   S438      1.0  0.94628  0.58514  0.40760  1.0000
  C   C1916     1.0  0.88524  0.60593  0.40444  1.0000
  C   C1917     1.0  0.89472  0.61948  0.41442  1.0000
  C   C1918     1.0  0.88629  0.63476  0.42398  1.0000
  C   C1919     1.0  0.86826  0.63694  0.42347  1.0000
  H   H3430     1.0  0.88493  0.55097  0.43429  1.0000
  C   C1920     1.0  0.86721  0.60816  0.40378  1.0000
  H   H3431     1.0  0.90857  0.61820  0.41477  1.0000
  C   C1921     1.0  0.97061  0.51386  0.47377  1.0000
  H   H3432     1.0  0.85966  0.59790  0.39592  1.0000
  C   C1922     1.0  0.95039  0.47326  0.27102  1.0000
  H   H3433     1.0  0.98514  0.59773  0.02954  1.0000
  H   H3434     1.0  0.97964  0.51118  0.45599  1.0000
  H   H3435     1.0  0.91413  0.40966  0.44860  1.0000
  H   H3436     1.0  0.91470  0.48933  0.41558  1.0000
  C   C1923     1.0  0.98203  0.54854  0.02549  1.0000
  H   H3437     1.0  0.96196  0.46544  0.26477  1.0000
  H   H3438     1.0  0.95236  0.42297  0.45531  1.0000
  H   H3439     1.0  0.81313  0.32665  0.36566  1.0000
  C   C1924     1.0  0.96763  0.57309  0.29107  1.0000
  H   H3440     1.0  0.80415  0.64016  0.01280  1.0000
  H   H3441     1.0  0.95412  0.38924  0.22236  1.0000
  H   H3442     1.0  0.95527  0.57333  0.30155  1.0000
  C   C1925     1.0  0.92539  0.45964  0.34012  1.0000
  C   C1926     1.0  0.91495  0.47469  0.34219  1.0000
  C   C1927     1.0  0.92129  0.48983  0.35371  1.0000
  C   C1928     1.0  0.93817  0.49003  0.36339  1.0000
  C   C1929     1.0  0.94863  0.47507  0.36095  1.0000
  C   C1930     1.0  0.94233  0.46000  0.34931  1.0000
  H   H3443     1.0  0.90184  0.47460  0.33498  1.0000
  H   H3444     1.0  0.91307  0.50123  0.35538  1.0000
  H   H3445     1.0  0.96180  0.47518  0.36781  1.0000
  H   H3446     1.0  0.95060  0.44866  0.34740  1.0000
  H   H3447     1.0  0.97943  0.33517  0.25957  1.0000
  H   H3448     1.0  0.95972  0.53903  0.30684  1.0000
  H   H3449     1.0  0.96328  0.50226  0.47851  1.0000
  H   H3450     1.0  0.93287  0.43171  0.46898  1.0000
  C   C1931     1.0  0.85878  0.62347  0.41321  1.0000
  H   H3451     1.0  0.98577  0.53909  0.28223  1.0000
  H   H3452     1.0  0.89584  0.54636  0.46690  1.0000
  H   H3453     1.0  0.92194  0.45891  0.45834  1.0000
  H   H3454     1.0  0.84382  0.31983  0.37612  1.0000
  H   H3455     1.0  0.89958  0.60445  0.46439  1.0000
  H   H3456     1.0  0.89804  0.57684  0.45176  1.0000
  C   C1932     1.0  0.97392  0.55887  0.00477  1.0000
  C   C1933     1.0  0.98020  0.44946  0.14488  1.0000
  S   S439      1.0  0.95369  0.56021  0.48366  1.0000
  H   H3457     1.0  0.95816  0.33124  0.13432  1.0000
  H   H3458     1.0  0.97857  0.53524  0.34054  1.0000
  C   C1934     1.0  0.87702  0.35052  0.29687  1.0000
  C   C1935     1.0  0.89251  0.34088  0.29622  1.0000
  S   S440      1.0  0.98177  0.57647  0.34424  1.0000
  H   H3459     1.0  0.79332  0.62024  0.01093  1.0000
  H   H3460     1.0  0.97643  0.43403  0.47462  1.0000
  H   H3461     1.0  0.87714  0.36408  0.30133  1.0000
  H   H3462     1.0  0.98412  0.44730  0.00125  1.0000
  H   H3463     1.0  0.91899  0.40175  0.41381  1.0000
  N   N107      1.0  0.92511  0.34550  0.21596  1.0000
  H   H3464     1.0  0.96040  0.37852  0.46271  1.0000
  C   C1936     1.0  0.94010  0.35113  0.23324  1.0000
  C   C1937     1.0  0.90976  0.35721  0.22253  1.0000
  C   C1938     1.0  0.92901  0.34713  0.18492  1.0000
  H   H3465     1.0  0.97598  0.42120  0.18077  1.0000
  H   H3466     1.0  0.94871  0.32976  0.26037  1.0000
  C   C1939     1.0  0.91234  0.37674  0.21898  1.0000
  C   C1940     1.0  0.98355  0.52653  0.27233  1.0000
  H   H3467     1.0  0.96436  0.51347  0.10455  1.0000
  C   C1941     1.0  0.97037  0.34524  0.25133  1.0000
  H   H3468     1.0  0.93022  0.60511  0.45351  1.0000
  C   C1942     1.0  0.89712  0.38710  0.23139  1.0000
  H   H3469     1.0  0.97580  0.52920  0.08484  1.0000
  H   H3470     1.0  0.97656  0.35168  0.23318  1.0000
  H   H3471     1.0  0.94686  0.36131  0.22183  1.0000
  C   C1943     1.0  0.93495  0.48155  0.44490  1.0000
  H   H3472     1.0  0.90528  0.35488  0.24447  1.0000
  H   H3473     1.0  0.89875  0.35433  0.20882  1.0000
  H   H3474     1.0  0.91762  0.34417  0.17221  1.0000
  H   H3475     1.0  0.93175  0.36063  0.17954  1.0000
  N   N108      1.0  0.94781  0.45025  0.44670  1.0000
  H   H3476     1.0  0.96137  0.48215  0.30900  1.0000
  H   H3477     1.0  0.89385  0.64504  0.43172  1.0000
  H   H3478     1.0  0.98508  0.44612  0.43519  1.0000
  H   H3479     1.0  0.91338  0.38023  0.19636  1.0000
  H   H3480     1.0  0.92402  0.38089  0.22964  1.0000
  S   S441      1.0  0.98233  0.38113  0.13003  1.0000
  C   C1944     1.0  0.92054  0.32751  0.22420  1.0000
  H   H3481     1.0  0.90802  0.48898  0.45218  1.0000
  H   H3482     1.0  0.87264  0.54882  0.46633  1.0000
  H   H3483     1.0  0.96648  0.62100  0.13202  1.0000
  C   C1945     1.0  0.97700  0.43399  0.19059  1.0000
  H   H3484     1.0  0.96283  0.46538  0.41788  1.0000
  C   C1946     1.0  0.86074  0.32504  0.28545  1.0000
  H   H3485     1.0  0.94590  0.60024  0.48028  1.0000
  C   C1947     1.0  0.98133  0.39118  0.22572  1.0000
  H   H3486     1.0  0.97208  0.50423  0.33224  1.0000
  H   H3487     1.0  0.88502  0.38386  0.22082  1.0000
  H   H3488     1.0  0.89586  0.38446  0.25433  1.0000
  H   H3489     1.0  0.89915  0.40099  0.22844  1.0000
  C   C1948     1.0  0.79683  0.63182  0.99881  1.0000
  H   H3490     1.0  0.95413  0.42347  0.23142  1.0000
  C   C1949     1.0  0.97576  0.44100  0.42018  1.0000
  H   H3491     1.0  0.96989  0.55810  0.13173  1.0000
  S   S442      1.0  0.98132  0.39517  0.26253  1.0000
  H   H3492     1.0  0.96927  0.45889  0.14731  1.0000
  C   C1950     1.0  0.95864  0.44145  0.19695  1.0000
  H   H3493     1.0  0.96220  0.42852  0.08798  1.0000
  C   C1951     1.0  0.97703  0.61106  0.13227  1.0000
  H   H3494     1.0  0.96140  0.52424  0.46708  1.0000
  C   C1952     1.0  0.88478  0.55352  0.45727  1.0000
  C   C1953     1.0  0.94767  0.42839  0.21206  1.0000
  H   H3495     1.0  0.94979  0.53757  0.25677  1.0000
  C   C1954     1.0  0.93253  0.42451  0.42477  1.0000
  C   C1955     1.0  0.98414  0.44125  0.39100  1.0000
  C   C1956     1.0  0.94682  0.33897  0.14188  1.0000
  C   C1957     1.0  0.93298  0.60617  0.47628  1.0000
  C   C1958     1.0  0.95896  0.45196  0.42085  1.0000
  H   H3496     1.0  0.92116  0.53423  0.30130  1.0000
  H   H3497     1.0  0.95580  0.44913  0.10225  1.0000
  H   H3498     1.0  0.94900  0.35264  0.13677  1.0000
  H   H3499     1.0  0.89525  0.63728  0.32674  1.0000
  H   H3500     1.0  0.95709  0.57107  0.24941  1.0000
  H   H3501     1.0  0.95923  0.45270  0.21097  1.0000
  H   H3502     1.0  0.95186  0.44543  0.17745  1.0000
  H   H3503     1.0  0.96343  0.42752  0.13943  1.0000
  C   C1959     1.0  0.96795  0.49989  0.27512  1.0000
  H   H3504     1.0  0.97326  0.42758  0.42553  1.0000
  H   H3505     1.0  0.84494  0.62483  0.41255  1.0000
  C   C1960     1.0  0.88292  0.63242  0.33480  1.0000
  C   C1961     1.0  0.97532  0.57664  0.00616  1.0000
  H   H3506     1.0  0.98453  0.61182  0.11234  1.0000
  H   H3507     1.0  0.97974  0.49178  0.27136  1.0000
  C   C1962     1.0  0.96952  0.52652  0.10538  1.0000
  H   H3508     1.0  0.92640  0.46004  0.42159  1.0000
  H   H3509     1.0  0.93513  0.43449  0.21825  1.0000
  H   H3510     1.0  0.94519  0.41756  0.19785  1.0000
  C   C1963     1.0  0.96671  0.38536  0.18190  1.0000
  C   C1964     1.0  0.92453  0.40756  0.43277  1.0000
  C   C1965     1.0  0.97361  0.38823  0.42624  1.0000
  C   C1966     1.0  0.87212  0.64684  0.34855  1.0000
  N   N109      1.0  0.94832  0.57248  0.11432  1.0000
  C   C1967     1.0  0.93566  0.57202  0.09047  1.0000
  C   C1968     1.0  0.93906  0.57245  0.14250  1.0000
  C   C1969     1.0  0.95753  0.58913  0.11170  1.0000
  C   C1970     1.0  0.96163  0.55801  0.11286  1.0000
  C   C1971     1.0  0.95491  0.53964  0.11117  1.0000
  C   C1972     1.0  0.94346  0.57220  0.06033  1.0000
  H   H3511     1.0  0.82601  0.32382  0.33437  1.0000
  C   C1973     1.0  0.92248  0.56211  0.14492  1.0000
  C   C1974     1.0  0.91662  0.56045  0.17558  1.0000
  H   H3512     1.0  0.94322  0.49485  0.29670  1.0000
  C   C1975     1.0  0.92966  0.57010  0.03810  1.0000
  C   C1976     1.0  0.95704  0.45578  0.47283  1.0000
  H   H3513     1.0  0.92633  0.58314  0.09209  1.0000
  H   H3514     1.0  0.92777  0.56054  0.09183  1.0000
  H   H3515     1.0  0.94797  0.56793  0.15946  1.0000
  H   H3516     1.0  0.93492  0.58576  0.14851  1.0000
  H   H3517     1.0  0.94804  0.60009  0.10972  1.0000
  H   H3518     1.0  0.96552  0.58935  0.09219  1.0000
  H   H3519     1.0  0.97058  0.55996  0.09488  1.0000
  H   H3520     1.0  0.95492  0.38328  0.17082  1.0000
  H   H3521     1.0  0.94547  0.53840  0.09410  1.0000
  H   H3522     1.0  0.94904  0.53604  0.13159  1.0000
  H   H3523     1.0  0.94963  0.58449  0.05577  1.0000
  H   H3524     1.0  0.95308  0.56156  0.05757  1.0000
  C   C1977     1.0  0.89193  0.32325  0.29025  1.0000
  C   C1978     1.0  0.91865  0.49201  0.43746  1.0000
  H   H3525     1.0  0.91195  0.56884  0.13315  1.0000
  H   H3526     1.0  0.92415  0.54907  0.13626  1.0000
  H   H3527     1.0  0.91427  0.57331  0.18501  1.0000
  H   H3528     1.0  0.90450  0.55343  0.17665  1.0000
  N   N110      1.0  0.97222  0.51586  0.29086  1.0000
  H   H3529     1.0  0.96780  0.35481  0.26812  1.0000
  C   C1979     1.0  0.93212  0.46199  0.44267  1.0000
  H   H3530     1.0  0.97825  0.46898  0.19060  1.0000
  S   S443      1.0  0.98524  0.57037  0.21010  1.0000
  H   H3531     1.0  0.92366  0.55749  0.04049  1.0000
  H   H3532     1.0  0.91964  0.58052  0.03969  1.0000
  C   C1980     1.0  0.98282  0.39198  0.47496  1.0000
  H   H3533     1.0  0.93556  0.35706  0.25339  1.0000
  H   H3534     1.0  0.87584  0.62667  0.31727  1.0000
  H   H3535     1.0  0.94901  0.52028  0.31581  1.0000
  C   C1981     1.0  0.97385  0.43400  0.12802  1.0000
  H   H3536     1.0  0.94150  0.46480  0.28250  1.0000
  H   H3537     1.0  0.96911  0.58476  0.99048  1.0000
  H   H3538     1.0  0.97691  0.44573  0.08657  1.0000
  H   H3539     1.0  0.94525  0.48572  0.43051  1.0000
  C   C1982     1.0  0.94356  0.53029  0.27391  1.0000
  C   C1983     1.0  0.98115  0.51069  0.31780  1.0000
  C   C1984     1.0  0.96621  0.38854  0.21111  1.0000
  H   H3540     1.0  0.97071  0.48659  0.99338  1.0000
  C   C1985     1.0  0.92798  0.54101  0.28414  1.0000
  H   H3541     1.0  0.92648  0.55323  0.18809  1.0000
  H   H3542     1.0  0.94378  0.47828  0.25191  1.0000
  H   H3543     1.0  0.92111  0.50589  0.43890  1.0000
  C   C1986     1.0  0.86130  0.34264  0.29166  1.0000
  H   H3544     1.0  0.84502  0.62685  0.47201  1.0000
  C   C1987     1.0  0.95624  0.52641  0.29833  1.0000
  C   C1988     1.0  0.95374  0.33718  0.24223  1.0000
  H   H3545     1.0  0.86025  0.64116  0.35686  1.0000
  H   H3546     1.0  0.93197  0.55361  0.29196  1.0000
  C   C1989     1.0  0.97130  0.38552  0.45532  1.0000
  H   H3547     1.0  0.98091  0.58386  0.13635  1.0000
  H   H3548     1.0  0.93437  0.39840  0.44146  1.0000
  H   H3549     1.0  0.96343  0.59289  0.15691  1.0000
  C   C1990     1.0  0.96675  0.43979  0.09950  1.0000
  H   H3550     1.0  0.91894  0.54333  0.26649  1.0000
  C   C1991     1.0  0.94466  0.33647  0.17364  1.0000
  C   C1992     1.0  0.96871  0.57190  0.26149  1.0000
  H   H3551     1.0  0.93559  0.57068  0.01678  1.0000
  H   H3552     1.0  0.95661  0.34079  0.18340  1.0000
  H   H3553     1.0  0.89237  0.32766  0.22143  1.0000
  H   H3554     1.0  0.84946  0.35029  0.29230  1.0000
  H   H3555     1.0  0.97702  0.52982  0.25220  1.0000
  H   H3556     1.0  0.94191  0.42189  0.40745  1.0000
  H   H3557     1.0  0.95154  0.44895  0.40180  1.0000
  C   C1993     1.0  0.96989  0.59322  0.13604  1.0000
  C   C1994     1.0  0.88604  0.57275  0.46210  1.0000
  C   C1995     1.0  0.95524  0.48795  0.29011  1.0000
  H   H3558     1.0  0.92207  0.43308  0.41660  1.0000
  H   H3559     1.0  0.83487  0.65105  0.31848  1.0000
  H   H3560     1.0  0.87495  0.57907  0.45137  1.0000
  H   H3561     1.0  0.96301  0.50320  0.25378  1.0000
  H   H3562     1.0  0.87959  0.65159  0.36644  1.0000
  H   H3563     1.0  0.93867  0.51835  0.26504  1.0000
  H   H3564     1.0  0.97570  0.43540  0.37531  1.0000
  C   C1996     1.0  0.98251  0.57442  0.30699  1.0000
  H   H3565     1.0  0.98447  0.42447  0.12409  1.0000
  H   H3566     1.0  0.98294  0.43123  0.21140  1.0000
  C   C1997     1.0  0.98232  0.38523  0.16680  1.0000
  H   H3567     1.0  0.78494  0.63900  0.99222  1.0000
  H   H3568     1.0  0.91296  0.50513  0.98728  1.0000
  H   H3569     1.0  0.94328  0.32260  0.17771  1.0000
  C   C1998     1.0  0.98467  0.57193  0.24743  1.0000
  H   H3570     1.0  0.81695  0.64531  0.36141  1.0000
  H   H3571     1.0  0.93190  0.51668  0.99547  1.0000
  H   H3572     1.0  0.95708  0.32803  0.22524  1.0000
  H   H3573     1.0  0.73693  0.64234  0.47601  1.0000
  H   H3574     1.0  0.91923  0.32665  0.24755  1.0000
  H   H3575     1.0  0.93311  0.61992  0.48198  1.0000
  H   H3576     1.0  0.93842  0.48505  0.46664  1.0000
  H   H3577     1.0  0.86930  0.60385  0.46839  1.0000
  H   H3578     1.0  0.90326  0.32251  0.18871  1.0000
  H   H3579     1.0  0.98109  0.53478  0.02460  1.0000
  C   C1999     1.0  0.90370  0.32082  0.21186  1.0000
  H   H3580     1.0  0.97463  0.38117  0.99382  1.0000
  H   H3581     1.0  0.80471  0.64772  0.32955  1.0000
  C   C2000     1.0  0.98438  0.58395  0.02840  1.0000
  H   H3582     1.0  0.97924  0.52666  0.12229  1.0000
  H   H3583     1.0  0.96521  0.46682  0.46771  1.0000
  H   H3584     1.0  0.98679  0.45457  0.38440  1.0000
  H   H3585     1.0  0.98565  0.61379  0.15000  1.0000
  H   H3586     1.0  0.93847  0.48562  0.98499  1.0000
  H   H3587     1.0  0.90028  0.31890  0.39267  1.0000
  H   H3588     1.0  0.98676  0.51282  0.37573  1.0000
  Fe  Fe225     1.0  0.95739  0.39330  0.79034  1.0000
  S   S444      1.0  0.93089  0.40099  0.77614  1.0000
  C   C2001     1.0  0.77000  0.58914  0.88637  1.0000
  Fe  Fe226     1.0  0.94585  0.39109  0.85302  1.0000
  S   S445      1.0  0.91861  0.39931  0.84212  1.0000
  S   S446      1.0  0.94970  0.38268  0.89899  1.0000
  Fe  Fe227     1.0  0.92108  0.38060  0.80595  1.0000
  S   S447      1.0  0.90439  0.35727  0.79539  1.0000
  Fe  Fe228     1.0  0.93082  0.41877  0.81369  1.0000
  S   S448      1.0  0.92536  0.44737  0.80604  1.0000
  S   S449      1.0  0.94809  0.37193  0.81791  1.0000
  S   S450      1.0  0.95772  0.41166  0.82678  1.0000
  Fe  Fe229     1.0  0.95537  0.56343  0.87272  1.0000
  S   S451      1.0  0.92796  0.55819  0.86254  1.0000
  C   C2002     1.0  0.86919  0.31995  0.78316  1.0000
  Fe  Fe230     1.0  0.94960  0.55749  0.93676  1.0000
  S   S452      1.0  0.92163  0.55250  0.93005  1.0000
  H   H3589     1.0  0.95850  0.51011  0.97081  1.0000
  Fe  Fe231     1.0  0.93072  0.53617  0.89344  1.0000
  S   S453      1.0  0.92238  0.50836  0.89504  1.0000
  Fe  Fe232     1.0  0.92113  0.57504  0.90013  1.0000
  S   S454      1.0  0.89944  0.59558  0.89191  1.0000
  S   S455      1.0  0.95849  0.54044  0.90120  1.0000
  S   S456      1.0  0.94876  0.58118  0.90903  1.0000
  C   C2003     1.0  0.88555  0.61054  0.91052  1.0000
  C   C2004     1.0  0.88503  0.61157  0.93993  1.0000
  C   C2005     1.0  0.87331  0.62317  0.95349  1.0000
  C   C2006     1.0  0.86210  0.63415  0.93801  1.0000
  C   C2007     1.0  0.86287  0.63335  0.90860  1.0000
  C   C2008     1.0  0.87440  0.62158  0.89503  1.0000
  H   H3590     1.0  0.89346  0.60324  0.95227  1.0000
  C   C2009     1.0  0.88749  0.59755  0.53344  1.0000
  H   H3591     1.0  0.87465  0.62102  0.87230  1.0000
  C   C2010     1.0  0.94355  0.32089  0.79674  1.0000
  H   H3592     1.0  0.93207  0.41731  0.71085  1.0000
  H   H3593     1.0  0.88682  0.59148  0.59132  1.0000
  H   H3594     1.0  0.91444  0.63652  0.89951  1.0000
  H   H3595     1.0  0.97064  0.52274  0.51634  1.0000
  C   C2011     1.0  0.94006  0.44148  0.72826  1.0000
  H   H3596     1.0  0.80363  0.58941  0.89555  1.0000
  H   H3597     1.0  0.86641  0.34162  0.85795  1.0000
  H   H3598     1.0  0.80022  0.63116  0.90509  1.0000
  C   C2012     1.0  0.96408  0.56898  0.78776  1.0000
  C   C2013     1.0  0.88633  0.57683  0.49399  1.0000
  H   H3599     1.0  0.93628  0.45524  0.72606  1.0000
  H   H3600     1.0  0.95158  0.56758  0.79728  1.0000
  C   C2014     1.0  0.92604  0.46392  0.83149  1.0000
  C   C2015     1.0  0.92920  0.48075  0.82257  1.0000
  C   C2016     1.0  0.92874  0.49444  0.84184  1.0000
  C   C2017     1.0  0.92468  0.49150  0.87016  1.0000
  C   C2018     1.0  0.92171  0.47464  0.87910  1.0000
  C   C2019     1.0  0.92256  0.46090  0.85998  1.0000
  H   H3601     1.0  0.93178  0.48325  0.80056  1.0000
  H   H3602     1.0  0.93097  0.50733  0.83461  1.0000
  H   H3603     1.0  0.91846  0.47221  0.90090  1.0000
  H   H3604     1.0  0.91995  0.44807  0.86710  1.0000
  C   C2020     1.0  0.88455  0.32911  0.78478  1.0000
  H   H3605     1.0  0.97363  0.34651  0.89010  1.0000
  C   C2021     1.0  0.95349  0.50107  0.95513  1.0000
  C   C2022     1.0  0.96662  0.39122  0.70839  1.0000
  H   H3606     1.0  0.92081  0.58314  0.48870  1.0000
  H   H3607     1.0  0.85890  0.58898  0.92908  1.0000
  C   C2023     1.0  0.96618  0.38684  0.92349  1.0000
  N   N111      1.0  0.97175  0.44996  0.73472  1.0000
  H   H3608     1.0  0.98381  0.39734  0.89351  1.0000
  H   H3609     1.0  0.95441  0.38971  0.71894  1.0000
  H   H3610     1.0  0.82083  0.63185  0.91998  1.0000
  H   H3611     1.0  0.94761  0.46935  0.93657  1.0000
  H   H3612     1.0  0.87294  0.62362  0.97624  1.0000
  H   H3613     1.0  0.85898  0.59689  0.49977  1.0000
  C   C2024     1.0  0.92757  0.33071  0.84059  1.0000
  S   S457      1.0  0.97741  0.56918  0.84219  1.0000
  H   H3614     1.0  0.88417  0.36593  0.85713  1.0000
  C   C2025     1.0  0.88445  0.34631  0.79373  1.0000
  C   C2026     1.0  0.86863  0.35412  0.80130  1.0000
  C   C2027     1.0  0.85330  0.34495  0.79980  1.0000
  H   H3615     1.0  0.95535  0.32771  0.83522  1.0000
  H   H3616     1.0  0.93726  0.43728  0.75011  1.0000
  H   H3617     1.0  0.86816  0.36730  0.80812  1.0000
  H   H3618     1.0  0.84124  0.35129  0.80563  1.0000
  H   H3619     1.0  0.75754  0.59462  0.87867  1.0000
  C   C2028     1.0  0.86714  0.62326  0.49961  1.0000
  C   C2029     1.0  0.94369  0.32103  0.82892  1.0000
  H   H3620     1.0  0.97773  0.50118  0.91307  1.0000
  H   H3621     1.0  0.97677  0.47371  0.78162  1.0000
  C   C2030     1.0  0.92734  0.63147  0.90590  1.0000
  C   C2031     1.0  0.84981  0.57847  0.93136  1.0000
  H   H3622     1.0  0.98025  0.56100  0.57712  1.0000
  C   C2032     1.0  0.97667  0.38478  0.97206  1.0000
  H   H3623     1.0  0.97016  0.43940  0.88655  1.0000
  H   H3624     1.0  0.97922  0.35697  0.62100  1.0000
  H   H3625     1.0  0.95972  0.43318  0.50041  1.0000
  C   C2033     1.0  0.89943  0.58842  0.58113  1.0000
  H   H3626     1.0  0.78144  0.61362  0.88714  1.0000
  H   H3627     1.0  0.96438  0.62710  0.84491  1.0000
  H   H3628     1.0  0.95553  0.45326  0.77169  1.0000
  H   H3629     1.0  0.96903  0.50889  0.60721  1.0000
  H   H3630     1.0  0.82767  0.64548  0.87247  1.0000
  H   H3631     1.0  0.79400  0.58491  0.92839  1.0000
  H   H3632     1.0  0.95039  0.50899  0.93611  1.0000
  N   N112      1.0  0.88671  0.59554  0.50176  1.0000
  H   H3633     1.0  0.98551  0.51218  0.63274  1.0000
  H   H3634     1.0  0.91779  0.64861  0.84197  1.0000
  H   H3635     1.0  0.83965  0.62254  0.50842  1.0000
  H   H3636     1.0  0.90987  0.57976  0.54166  1.0000
  H   H3637     1.0  0.80797  0.63938  0.85624  1.0000
  H   H3638     1.0  0.93270  0.64046  0.92121  1.0000
  H   H3639     1.0  0.83433  0.61457  0.88410  1.0000
  H   H3640     1.0  0.81992  0.62070  0.98089  1.0000
  S   S458      1.0  0.96119  0.54893  0.97911  1.0000
  C   C2034     1.0  0.95935  0.43811  0.72125  1.0000
  C   C2035     1.0  0.93930  0.62970  0.88034  1.0000
  H   H3641     1.0  0.89769  0.56952  0.50221  1.0000
  H   H3642     1.0  0.93411  0.34371  0.90791  1.0000
  C   C2036     1.0  0.95908  0.47536  0.92733  1.0000
  N   N113      1.0  0.96693  0.48728  0.94812  1.0000
  H   H3643     1.0  0.87085  0.32956  0.88972  1.0000
  H   H3644     1.0  0.86979  0.62575  0.52204  1.0000
  C   C2037     1.0  0.98172  0.39386  0.91531  1.0000
  C   C2038     1.0  0.96921  0.33766  0.90686  1.0000
  C   C2039     1.0  0.96566  0.57137  0.75836  1.0000
  C   C2040     1.0  0.91956  0.59696  0.49376  1.0000
  C   C2041     1.0  0.97740  0.45595  0.81595  1.0000
  H   H3645     1.0  0.83345  0.58776  0.89823  1.0000
  C   C2042     1.0  0.83211  0.58431  0.92073  1.0000
  C   C2043     1.0  0.82437  0.59936  0.93852  1.0000
  H   H3646     1.0  0.79319  0.60429  0.96610  1.0000
  H   H3647     1.0  0.89659  0.32284  0.77871  1.0000
  C   C2044     1.0  0.93895  0.33831  0.88755  1.0000
  H   H3648     1.0  0.96254  0.42460  0.72741  1.0000
  H   H3649     1.0  0.95783  0.47442  0.73640  1.0000
  H   H3650     1.0  0.96825  0.60408  0.79283  1.0000
  H   H3651     1.0  0.94758  0.46051  0.48896  1.0000
  H   H3652     1.0  0.98068  0.39010  0.49727  1.0000
  H   H3653     1.0  0.96364  0.45793  0.82172  1.0000
  C   C2045     1.0  0.96377  0.38233  0.95197  1.0000
  H   H3654     1.0  0.77766  0.58451  0.86794  1.0000
  H   H3655     1.0  0.90585  0.57772  0.59297  1.0000
  C   C2046     1.0  0.97038  0.61581  0.80498  1.0000
  H   H3656     1.0  0.84707  0.64325  0.49800  1.0000
  H   H3657     1.0  0.95721  0.55502  0.54310  1.0000
  H   H3658     1.0  0.85485  0.56745  0.91873  1.0000
  N   N114      1.0  0.92461  0.33002  0.87196  1.0000
  H   H3659     1.0  0.81100  0.63895  0.96216  1.0000
  H   H3660     1.0  0.83622  0.31907  0.90435  1.0000
  H   H3661     1.0  0.94359  0.34943  0.87520  1.0000
  S   S459      1.0  0.98118  0.39190  0.76167  1.0000
  H   H3662     1.0  0.90316  0.33697  0.89958  1.0000
  S   S460      1.0  0.98311  0.57791  0.70884  1.0000
  H   H3663     1.0  0.85238  0.34427  0.88795  1.0000
  C   C2047     1.0  0.96827  0.46798  0.72376  1.0000
  C   C2048     1.0  0.77948  0.60289  0.90208  1.0000
  H   H3664     1.0  0.89204  0.38258  0.87883  1.0000
  H   H3665     1.0  0.97303  0.45086  0.93423  1.0000
  H   H3666     1.0  0.93026  0.43536  0.68678  1.0000
  H   H3667     1.0  0.83456  0.60886  0.94135  1.0000
  C   C2049     1.0  0.98139  0.51511  0.61086  1.0000
  H   H3668     1.0  0.97218  0.45779  0.52568  1.0000
  H   H3669     1.0  0.90743  0.63395  0.81978  1.0000
  C   C2050     1.0  0.97985  0.45012  0.51017  1.0000
  C   C2051     1.0  0.91796  0.64302  0.82056  1.0000
  C   C2052     1.0  0.98153  0.39247  0.72426  1.0000
  C   C2053     1.0  0.97061  0.46013  0.91678  1.0000
  C   C2054     1.0  0.96747  0.39199  0.67874  1.0000
  C   C2055     1.0  0.89704  0.58315  0.55053  1.0000
  C   C2056     1.0  0.97082  0.56447  0.50682  1.0000
  N   N115      1.0  0.94036  0.61782  0.82950  1.0000
  C   C2057     1.0  0.93241  0.61701  0.85852  1.0000
  C   C2058     1.0  0.93499  0.60246  0.81307  1.0000
  C   C2059     1.0  0.95964  0.61619  0.83270  1.0000
  C   C2060     1.0  0.93581  0.63434  0.81406  1.0000
  C   C2061     1.0  0.87012  0.60408  0.49173  1.0000
  H   H3670     1.0  0.94945  0.44538  0.90119  1.0000
  H   H3671     1.0  0.95199  0.62489  0.88811  1.0000
  C   C2062     1.0  0.91556  0.60085  0.80785  1.0000
  C   C2063     1.0  0.91204  0.58397  0.79326  1.0000
  H   H3672     1.0  0.81409  0.60912  0.86885  1.0000
  H   H3673     1.0  0.96900  0.50375  0.73171  1.0000
  C   C2064     1.0  0.96894  0.56055  0.53564  1.0000
  H   H3674     1.0  0.92873  0.48867  0.95092  1.0000
  H   H3675     1.0  0.91829  0.61896  0.85771  1.0000
  H   H3676     1.0  0.94094  0.60231  0.79176  1.0000
  H   H3677     1.0  0.93969  0.59049  0.82389  1.0000
  H   H3678     1.0  0.96322  0.60441  0.84507  1.0000
  C   C2065     1.0  0.93627  0.49486  0.96746  1.0000
  C   C2066     1.0  0.81205  0.62318  0.90917  1.0000
  H   H3679     1.0  0.93682  0.63230  0.79091  1.0000
  H   H3680     1.0  0.96053  0.43869  0.69792  1.0000
  H   H3681     1.0  0.85459  0.64179  0.89627  1.0000
  H   H3682     1.0  0.95584  0.39107  0.66670  1.0000
  H   H3683     1.0  0.97795  0.50567  0.55603  1.0000
  H   H3684     1.0  0.96324  0.46774  0.70190  1.0000
  C   C2067     1.0  0.96885  0.44894  0.76615  1.0000
  H   H3685     1.0  0.90802  0.60114  0.82773  1.0000
  H   H3686     1.0  0.91087  0.61126  0.79361  1.0000
  H   H3687     1.0  0.89807  0.58319  0.78935  1.0000
  H   H3688     1.0  0.91897  0.58308  0.77277  1.0000
  H   H3689     1.0  0.91611  0.57290  0.80671  1.0000
  H   H3690     1.0  0.95426  0.57203  0.74554  1.0000
  C   C2068     1.0  0.92872  0.43122  0.70903  1.0000
  C   C2069     1.0  0.82083  0.61899  0.88061  1.0000
  H   H3691     1.0  0.95439  0.48281  0.90861  1.0000
  C   C2070     1.0  0.98369  0.48009  0.72260  1.0000
  H   H3692     1.0  0.94089  0.64258  0.87092  1.0000
  C   C2071     1.0  0.86051  0.33485  0.87595  1.0000
  H   H3693     1.0  0.95182  0.37687  0.95856  1.0000
  H   H3694     1.0  0.89327  0.60994  0.53879  1.0000
  H   H3695     1.0  0.82374  0.57313  0.92232  1.0000
  H   H3696     1.0  0.87499  0.57095  0.50409  1.0000
  C   C2072     1.0  0.85335  0.32782  0.79056  1.0000
  C   C2073     1.0  0.96179  0.45041  0.89348  1.0000
  C   C2074     1.0  0.82121  0.63492  0.86176  1.0000
  N   N116      1.0  0.80802  0.60822  0.92799  1.0000
  C   C2075     1.0  0.79685  0.59560  0.91359  1.0000
  C   C2076     1.0  0.90887  0.35989  0.87645  1.0000
  C   C2077     1.0  0.98031  0.51944  0.49981  1.0000
  H   H3697     1.0  0.91506  0.43331  0.71534  1.0000
  H   H3698     1.0  0.88338  0.36394  0.89527  1.0000
  C   C2078     1.0  0.80784  0.62691  0.97314  1.0000
  C   C2079     1.0  0.89096  0.36851  0.87700  1.0000
  C   C2080     1.0  0.98185  0.57296  0.74543  1.0000
  H   H3699     1.0  0.98605  0.52656  0.55830  1.0000
  H   H3700     1.0  0.95929  0.45894  0.87505  1.0000
  H   H3701     1.0  0.94531  0.64423  0.81870  1.0000
  H   H3702     1.0  0.87430  0.59828  0.54275  1.0000
  H   H3703     1.0  0.84915  0.57447  0.95380  1.0000
  C   C2081     1.0  0.97865  0.56896  0.80474  1.0000
  H   H3704     1.0  0.92877  0.34411  0.83358  1.0000
  H   H3705     1.0  0.93434  0.60392  0.86756  1.0000
  H   H3706     1.0  0.90760  0.59975  0.58226  1.0000
  H   H3707     1.0  0.77090  0.60745  0.91941  1.0000
  C   C2082     1.0  0.98320  0.39398  0.66458  1.0000
  H   H3708     1.0  0.91542  0.36404  0.85701  1.0000
  H   H3709     1.0  0.91594  0.36488  0.89462  1.0000
  C   C2083     1.0  0.90803  0.34006  0.87809  1.0000
  H   H3710     1.0  0.78652  0.62285  0.94643  1.0000
  H   H3711     1.0  0.83932  0.32663  0.85195  1.0000
  H   H3712     1.0  0.76738  0.57816  0.90055  1.0000
  H   H3713     1.0  0.82837  0.63187  0.84201  1.0000
  H   H3714     1.0  0.88942  0.57140  0.55065  1.0000
  C   C2084     1.0  0.79804  0.61510  0.95319  1.0000
  H   H3715     1.0  0.96710  0.62707  0.79145  1.0000
  C   C2085     1.0  0.95473  0.32682  0.89609  1.0000
  C   C2086     1.0  0.98200  0.56390  0.55500  1.0000
  H   H3716     1.0  0.89791  0.33644  0.86311  1.0000
  H   H3717     1.0  0.98073  0.52260  0.94786  1.0000
  H   H3718     1.0  0.94292  0.33419  0.78823  1.0000
  H   H3719     1.0  0.91617  0.32633  0.82911  1.0000
  H   H3720     1.0  0.92207  0.51904  0.96125  1.0000
  H   H3721     1.0  0.92600  0.61886  0.91649  1.0000
  H   H3722     1.0  0.98501  0.46458  0.82897  1.0000
  S   S461      1.0  0.98346  0.39496  0.62720  1.0000
  H   H3723     1.0  0.82227  0.59370  0.95983  1.0000
  H   H3724     1.0  0.92276  0.59890  0.51616  1.0000
  C   C2087     1.0  0.98175  0.49591  0.93398  1.0000
  C   C2088     1.0  0.97781  0.49843  0.71520  1.0000
  C   C2089     1.0  0.97198  0.47788  0.97494  1.0000
  H   H3725     1.0  0.97023  0.43534  0.77342  1.0000
  S   S462      1.0  0.84718  0.64815  0.95657  1.0000
  C   C2090     1.0  0.98608  0.57158  0.49751  1.0000
  C   C2091     1.0  0.84858  0.62926  0.49416  1.0000
  C   C2092     1.0  0.98027  0.45993  0.78475  1.0000
  H   H3726     1.0  0.96478  0.34537  0.92529  1.0000
  H   H3727     1.0  0.97943  0.52920  0.60865  1.0000
  H   H3728     1.0  0.97122  0.49888  0.69457  1.0000
  C   C2093     1.0  0.96819  0.44198  0.48875  1.0000
  H   H3729     1.0  0.98298  0.46436  0.90807  1.0000
  H   H3730     1.0  0.87557  0.63137  0.48658  1.0000
  C   C2094     1.0  0.84971  0.32057  0.86476  1.0000
  C   C2095     1.0  0.90133  0.60435  0.48753  1.0000
  C   C2096     1.0  0.92517  0.50989  0.97860  1.0000
  H   H3731     1.0  0.96287  0.46752  0.97938  1.0000
  H   H3732     1.0  0.98025  0.32923  0.91340  1.0000
  H   H3733     1.0  0.90130  0.61809  0.49352  1.0000
  H   H3734     1.0  0.98151  0.44250  0.82080  1.0000
  H   H3735     1.0  0.98231  0.33931  0.51566  1.0000
  H   H3736     1.0  0.95989  0.31895  0.87853  1.0000
  H   H3737     1.0  0.98607  0.49304  0.51192  1.0000
  H   H3738     1.0  0.98674  0.35341  0.48665  1.0000
  H   H3739     1.0  0.98637  0.33543  0.61159  1.0000
  Fe  Fe233     1.0  0.94118  0.89344  0.10203  1.0000
  S   S463      1.0  0.91389  0.90267  0.11183  1.0000
  S   S464      1.0  0.95197  0.88229  0.06086  1.0000
  Fe  Fe234     1.0  0.95259  0.89675  0.16349  1.0000
  S   S465      1.0  0.92654  0.90645  0.17722  1.0000
  C   C2097     1.0  0.77154  0.71005  0.07563  1.0000
  Fe  Fe235     1.0  0.91561  0.88547  0.15064  1.0000
  S   S466      1.0  0.89831  0.86597  0.17357  1.0000
  Fe  Fe236     1.0  0.92685  0.92279  0.13768  1.0000
  S   S467      1.0  0.92129  0.95162  0.14321  1.0000
  S   S468      1.0  0.94197  0.87520  0.13886  1.0000
  S   S469      1.0  0.95366  0.91420  0.12583  1.0000
  Fe  Fe237     1.0  0.82395  0.79033  0.17943  1.0000
  S   S470      1.0  0.83994  0.76640  0.18847  1.0000
  S   S471      1.0  0.83618  0.81416  0.15913  1.0000
  Fe  Fe238     1.0  0.78990  0.77083  0.18918  1.0000
  S   S472      1.0  0.80455  0.74611  0.19838  1.0000
  S   S473      1.0  0.76128  0.76513  0.18682  1.0000
  Fe  Fe239     1.0  0.82148  0.76195  0.22463  1.0000
  S   S474      1.0  0.83101  0.75481  0.26886  1.0000
  Fe  Fe240     1.0  0.82128  0.75279  0.16132  1.0000
  S   S475      1.0  0.83013  0.73276  0.12881  1.0000
  S   S476      1.0  0.80624  0.78673  0.21721  1.0000
  S   S477      1.0  0.80595  0.77657  0.15066  1.0000
  Fe  Fe241     1.0  0.83191  0.67085  0.44177  1.0000
  S   S478      1.0  0.83234  0.69926  0.43230  1.0000
  H   H3740     1.0  0.79252  0.69728  0.05218  1.0000
  Fe  Fe242     1.0  0.79267  0.67400  0.45475  1.0000
  S   S479      1.0  0.79106  0.70210  0.44477  1.0000
  H   H3741     1.0  0.88429  0.70958  0.39073  1.0000
  Fe  Fe243     1.0  0.80832  0.69592  0.40755  1.0000
  S   S480      1.0  0.80186  0.70341  0.36179  1.0000
  C   C2098     1.0  0.86783  0.66137  0.32702  1.0000
  H   H3742     1.0  0.86176  0.71211  0.35462  1.0000
  S   S481      1.0  0.80836  0.66746  0.41579  1.0000
  C   C2099     1.0  0.97573  0.88180  0.01774  1.0000
  H   H3743     1.0  0.75670  0.73882  0.09449  1.0000
  C   C2100     1.0  0.76119  0.74400  0.11456  1.0000
  H   H3744     1.0  0.88943  0.90754  0.23159  1.0000
  H   H3745     1.0  0.88065  0.68549  0.35538  1.0000
  H   H3746     1.0  0.96409  0.83430  0.18881  1.0000
  C   C2101     1.0  0.97888  0.91718  0.01573  1.0000
  H   H3747     1.0  0.75469  0.79601  0.22105  1.0000
  C   C2102     1.0  0.82268  0.74046  0.29442  1.0000
  C   C2103     1.0  0.82939  0.74030  0.32185  1.0000
  C   C2104     1.0  0.82323  0.72909  0.34278  1.0000
  C   C2105     1.0  0.81038  0.71775  0.33642  1.0000
  C   C2106     1.0  0.80387  0.71772  0.30888  1.0000
  C   C2107     1.0  0.80988  0.72907  0.28805  1.0000
  H   H3748     1.0  0.83932  0.74903  0.32702  1.0000
  H   H3749     1.0  0.82832  0.72936  0.36387  1.0000
  H   H3750     1.0  0.79406  0.70887  0.30366  1.0000
  H   H3751     1.0  0.80485  0.72880  0.26695  1.0000
  C   C2108     1.0  0.82346  0.73105  0.09328  1.0000
  C   C2109     1.0  0.82803  0.71613  0.07818  1.0000
  C   C2110     1.0  0.82392  0.71461  0.04947  1.0000
  C   C2111     1.0  0.81528  0.72811  0.03541  1.0000
  C   C2112     1.0  0.81054  0.74297  0.05061  1.0000
  C   C2113     1.0  0.81447  0.74439  0.07942  1.0000
  H   H3752     1.0  0.83503  0.70574  0.08863  1.0000
  H   H3753     1.0  0.82774  0.70314  0.03806  1.0000
  H   H3754     1.0  0.80389  0.75350  0.03997  1.0000
  H   H3755     1.0  0.81089  0.75594  0.09071  1.0000
  H   H3756     1.0  0.95459  0.91143  0.22831  1.0000
  C   C2114     1.0  0.88127  0.85134  0.16867  1.0000
  C   C2115     1.0  0.87629  0.84084  0.19141  1.0000
  C   C2116     1.0  0.86277  0.82932  0.18892  1.0000
  C   C2117     1.0  0.85384  0.82810  0.16358  1.0000
  C   C2118     1.0  0.85886  0.83854  0.14082  1.0000
  C   C2119     1.0  0.87248  0.84997  0.14324  1.0000
  H   H3757     1.0  0.88286  0.84173  0.21125  1.0000
  H   H3758     1.0  0.85908  0.82156  0.20676  1.0000
  H   H3759     1.0  0.85206  0.83790  0.12114  1.0000
  H   H3760     1.0  0.87598  0.85792  0.12554  1.0000
  C   C2120     1.0  0.92642  0.96893  0.12033  1.0000
  C   C2121     1.0  0.92710  0.96709  0.09107  1.0000
  H   H3761     1.0  0.77244  0.76770  0.12783  1.0000
  N   N117      1.0  0.77094  0.71303  0.13027  1.0000
  H   H3762     1.0  0.92543  0.95463  0.08195  1.0000
  H   H3763     1.0  0.78939  0.80019  0.27200  1.0000
  H   H3764     1.0  0.86541  0.69832  0.31392  1.0000
  H   H3765     1.0  0.84592  0.69332  0.24284  1.0000
  C   C2122     1.0  0.94555  0.87305  0.30703  1.0000
  C   C2123     1.0  0.96534  0.90606  0.24007  1.0000
  H   H3766     1.0  0.77613  0.72305  0.07076  1.0000
  H   H3767     1.0  0.85431  0.70906  0.26611  1.0000
  C   C2124     1.0  0.96621  0.89210  0.03686  1.0000
  C   C2125     1.0  0.96783  0.90985  0.03571  1.0000
  H   H3768     1.0  0.96492  0.96674  0.22848  1.0000
  H   H3769     1.0  0.74847  0.75669  0.25244  1.0000
  S   S482      1.0  0.85847  0.65669  0.43594  1.0000
  H   H3770     1.0  0.79919  0.80237  0.30590  1.0000
  H   H3771     1.0  0.77936  0.76039  0.09334  1.0000
  S   S483      1.0  0.97659  0.89144  0.18988  1.0000
  N   N118      1.0  0.93217  0.86581  0.25819  1.0000
  C   C2126     1.0  0.92379  0.88348  0.26038  1.0000
  C   C2127     1.0  0.94723  0.86404  0.27804  1.0000
  C   C2128     1.0  0.93905  0.86376  0.22844  1.0000
  C   C2129     1.0  0.91953  0.85191  0.26327  1.0000
  C   C2130     1.0  0.90947  0.85249  0.29145  1.0000
  C   C2131     1.0  0.90779  0.88698  0.24180  1.0000
  C   C2132     1.0  0.95099  0.84769  0.22308  1.0000
  H   H3772     1.0  0.96440  0.96431  0.37824  1.0000
  C   C2133     1.0  0.89484  0.83998  0.29127  1.0000
  C   C2134     1.0  0.90070  0.90533  0.24546  1.0000
  C   C2135     1.0  0.95566  0.84590  0.19196  1.0000
  H   H3773     1.0  0.93331  0.89329  0.25508  1.0000
  H   H3774     1.0  0.91961  0.88642  0.28220  1.0000
  H   H3775     1.0  0.95067  0.85026  0.28180  1.0000
  H   H3776     1.0  0.90755  0.91890  0.99879  1.0000
  H   H3777     1.0  0.94638  0.87516  0.22203  1.0000
  H   H3778     1.0  0.92836  0.86315  0.21316  1.0000
  H   H3779     1.0  0.91012  0.85172  0.24575  1.0000
  H   H3780     1.0  0.92612  0.83908  0.26277  1.0000
  H   H3781     1.0  0.90370  0.86537  0.29583  1.0000
  H   H3782     1.0  0.91811  0.84851  0.30891  1.0000
  H   H3783     1.0  0.91100  0.88533  0.21931  1.0000
  H   H3784     1.0  0.89739  0.87823  0.24738  1.0000
  H   H3785     1.0  0.94479  0.83574  0.22952  1.0000
  H   H3786     1.0  0.80254  0.68514  0.18877  1.0000
  C   C2136     1.0  0.97482  0.95685  0.36730  1.0000
  H   H3787     1.0  0.93324  0.87073  0.31780  1.0000
  H   H3788     1.0  0.88810  0.84024  0.31196  1.0000
  H   H3789     1.0  0.88540  0.84363  0.27469  1.0000
  H   H3790     1.0  0.89988  0.82670  0.28742  1.0000
  H   H3791     1.0  0.89656  0.90758  0.26759  1.0000
  H   H3792     1.0  0.91055  0.91465  0.23948  1.0000
  H   H3793     1.0  0.98380  0.97926  0.34674  1.0000
  C   C2137     1.0  0.82815  0.66184  0.32943  1.0000
  H   H3794     1.0  0.84291  0.69824  0.32024  1.0000
  H   H3795     1.0  0.96948  0.95508  0.08782  1.0000
  N   N119      1.0  0.86495  0.77479  0.09713  1.0000
  C   C2138     1.0  0.86914  0.75596  0.10190  1.0000
  C   C2139     1.0  0.86638  0.78456  0.12442  1.0000
  C   C2140     1.0  0.84649  0.77643  0.08774  1.0000
  C   C2141     1.0  0.87605  0.78238  0.07445  1.0000
  C   C2142     1.0  0.89567  0.78052  0.07861  1.0000
  C   C2143     1.0  0.86788  0.74417  0.07590  1.0000
  C   C2144     1.0  0.83914  0.79497  0.08303  1.0000
  C   C2145     1.0  0.88021  0.77807  0.14571  1.0000
  C   C2146     1.0  0.88222  0.79078  0.16961  1.0000
  C   C2147     1.0  0.90531  0.78679  0.05258  1.0000
  C   C2148     1.0  0.87347  0.72573  0.08325  1.0000
  C   C2149     1.0  0.82007  0.79499  0.07588  1.0000
  H   H3796     1.0  0.86055  0.75094  0.11864  1.0000
  H   H3797     1.0  0.88228  0.75380  0.11018  1.0000
  H   H3798     1.0  0.86834  0.79841  0.12011  1.0000
  H   H3799     1.0  0.85409  0.78429  0.13652  1.0000
  H   H3800     1.0  0.83805  0.77003  0.10338  1.0000
  H   H3801     1.0  0.84471  0.76980  0.06744  1.0000
  H   H3802     1.0  0.87287  0.77704  0.05355  1.0000
  H   H3803     1.0  0.87322  0.79639  0.07250  1.0000
  H   H3804     1.0  0.89997  0.76704  0.08243  1.0000
  H   H3805     1.0  0.89952  0.78857  0.09643  1.0000
  H   H3806     1.0  0.85453  0.74379  0.06824  1.0000
  H   H3807     1.0  0.87624  0.74850  0.05845  1.0000
  H   H3808     1.0  0.84575  0.80121  0.06516  1.0000
  H   H3809     1.0  0.84056  0.80296  0.10195  1.0000
  H   H3810     1.0  0.87632  0.76577  0.15533  1.0000
  H   H3811     1.0  0.89294  0.77586  0.13574  1.0000
  H   H3812     1.0  0.89197  0.78572  0.18468  1.0000
  H   H3813     1.0  0.88644  0.80328  0.16127  1.0000
  H   H3814     1.0  0.86986  0.79277  0.18114  1.0000
  H   H3815     1.0  0.91935  0.78567  0.05629  1.0000
  H   H3816     1.0  0.90234  0.77895  0.03396  1.0000
  H   H3817     1.0  0.90181  0.80045  0.04809  1.0000
  C   C2150     1.0  0.74318  0.71565  0.16038  1.0000
  H   H3818     1.0  0.87187  0.71744  0.06463  1.0000
  H   H3819     1.0  0.88716  0.72497  0.08952  1.0000
  H   H3820     1.0  0.81522  0.80835  0.07221  1.0000
  H   H3821     1.0  0.81797  0.78742  0.05659  1.0000
  H   H3822     1.0  0.81261  0.78954  0.09355  1.0000
  H   H3823     1.0  0.86544  0.72077  0.10072  1.0000
  C   C2151     1.0  0.92909  0.98156  0.07350  1.0000
  C   C2152     1.0  0.98431  0.95832  0.27713  1.0000
  H   H3824     1.0  0.97274  0.86918  0.31677  1.0000
  H   H3825     1.0  0.77592  0.73704  0.15107  1.0000
  H   H3826     1.0  0.94642  0.88712  0.30413  1.0000
  C   C2153     1.0  0.77829  0.69825  0.05218  1.0000
  C   C2154     1.0  0.76409  0.74863  0.31928  1.0000
  C   C2155     1.0  0.85253  0.68338  0.28435  1.0000
  H   H3827     1.0  0.96025  0.91794  0.04982  1.0000
  C   C2156     1.0  0.75846  0.72411  0.23572  1.0000
  C   C2157     1.0  0.84599  0.69783  0.26494  1.0000
  H   H3828     1.0  0.77449  0.71135  0.17538  1.0000
  H   H3829     1.0  0.98122  0.86554  0.09500  1.0000
  S   S484      1.0  0.97772  0.88580  0.45292  1.0000
  C   C2158     1.0  0.76832  0.76156  0.10818  1.0000
  H   H3830     1.0  0.74766  0.72829  0.16708  1.0000
  C   C2159     1.0  0.86692  0.68429  0.36154  1.0000
  H   H3831     1.0  0.81990  0.69975  0.18635  1.0000
  C   C2160     1.0  0.97792  0.89595  0.22633  1.0000
  H   H3832     1.0  0.83268  0.70191  0.27095  1.0000
  C   C2161     1.0  0.98589  0.83893  0.41531  1.0000
  H   H3833     1.0  0.97494  0.95051  0.20643  1.0000
  C   C2162     1.0  0.77930  0.70488  0.15594  1.0000
  H   H3834     1.0  0.74481  0.71575  0.11474  1.0000
  H   H3835     1.0  0.97534  0.83007  0.41161  1.0000
  H   H3836     1.0  0.74976  0.74603  0.12839  1.0000
  S   S485      1.0  0.76877  0.65876  0.46513  1.0000
  H   H3837     1.0  0.97424  0.96879  0.27822  1.0000
  H   H3838     1.0  0.83254  0.68206  0.35817  1.0000
  H   H3839     1.0  0.88815  0.96907  0.11421  1.0000
  C   C2163     1.0  0.74297  0.78908  0.21975  1.0000
  C   C2164     1.0  0.77840  0.70402  0.10467  1.0000
  C   C2165     1.0  0.75070  0.73682  0.33251  1.0000
  H   H3840     1.0  0.96269  0.85719  0.18452  1.0000
  H   H3841     1.0  0.78568  0.77661  0.32350  1.0000
  H   H3842     1.0  0.75354  0.73228  0.21815  1.0000
  C   C2166     1.0  0.79907  0.70554  0.15750  1.0000
  H   H3843     1.0  0.76983  0.79213  0.31094  1.0000
  H   H3844     1.0  0.77588  0.69118  0.15791  1.0000
  C   C2167     1.0  0.85430  0.68975  0.31505  1.0000
  H   H3845     1.0  0.77113  0.72643  0.27518  1.0000
  C   C2168     1.0  0.80572  0.69878  0.18580  1.0000
  H   H3846     1.0  0.78473  0.76043  0.27940  1.0000
  H   H3847     1.0  0.94392  0.84459  0.17919  1.0000
  H   H3848     1.0  0.79246  0.70575  0.10315  1.0000
  H   H3849     1.0  0.77666  0.68995  0.10660  1.0000
  C   C2169     1.0  0.96673  0.90937  0.26904  1.0000
  C   C2170     1.0  0.98064  0.90257  0.28468  1.0000
  C   C2171     1.0  0.98009  0.96624  0.34046  1.0000
  H   H3850     1.0  0.78743  0.73382  0.11941  1.0000
  C   C2172     1.0  0.97181  0.95404  0.22854  1.0000
  C   C2173     1.0  0.96002  0.86712  0.32672  1.0000
  H   H3851     1.0  0.77708  0.74175  0.24842  1.0000
  H   H3852     1.0  0.86530  0.67881  0.27626  1.0000
  H   H3853     1.0  0.80293  0.71893  0.15526  1.0000
  H   H3854     1.0  0.80550  0.69765  0.14092  1.0000
  H   H3855     1.0  0.95884  0.86963  0.26820  1.0000
  H   H3856     1.0  0.74620  0.70623  0.17742  1.0000
  C   C2174     1.0  0.76621  0.73516  0.25839  1.0000
  H   H3857     1.0  0.86530  0.72080  0.40398  1.0000
  C   C2175     1.0  0.75201  0.70975  0.13244  1.0000
  C   C2176     1.0  0.78015  0.78282  0.30440  1.0000
  C   C2177     1.0  0.81273  0.65453  0.34473  1.0000
  H   H3858     1.0  0.96319  0.84853  0.23478  1.0000
  H   H3859     1.0  0.86978  0.69887  0.41434  1.0000
  C   C2178     1.0  0.87061  0.70820  0.39665  1.0000
  H   H3860     1.0  0.77320  0.68523  0.05476  1.0000
  H   H3861     1.0  0.97904  0.92465  0.08627  1.0000
  H   H3862     1.0  0.95899  0.85334  0.33209  1.0000
  H   H3863     1.0  0.80527  0.78434  0.28416  1.0000
  H   H3864     1.0  0.75604  0.68037  0.00954  1.0000
  H   H3865     1.0  0.77588  0.74084  0.31405  1.0000
  H   H3866     1.0  0.74438  0.72897  0.31662  1.0000
  N   N120      1.0  0.75833  0.75926  0.29424  1.0000
  H   H3867     1.0  0.74781  0.71665  0.24460  1.0000
  H   H3868     1.0  0.95693  0.91724  0.27943  1.0000
  C   C2179     1.0  0.86037  0.70231  0.37142  1.0000
  H   H3869     1.0  0.95923  0.87463  0.34648  1.0000
  H   H3870     1.0  0.84667  0.70229  0.37751  1.0000
  H   H3871     1.0  0.77416  0.70349  0.03142  1.0000
  C   C2180     1.0  0.77465  0.73191  0.12940  1.0000
  H   H3872     1.0  0.86691  0.67585  0.38057  1.0000
  H   H3873     1.0  0.74984  0.69579  0.13035  1.0000
  S   S486      1.0  0.81084  0.72736  0.99876  1.0000
  C   C2181     1.0  0.79436  0.79301  0.29066  1.0000
  H   H3874     1.0  0.80012  0.70645  0.20343  1.0000
  H   H3875     1.0  0.75735  0.71019  0.07473  1.0000
  H   H3876     1.0  0.74447  0.78366  0.28864  1.0000
  H   H3877     1.0  0.75821  0.76997  0.09844  1.0000
  H   H3878     1.0  0.76848  0.71501  0.22733  1.0000
  C   C2182     1.0  0.84012  0.67085  0.34999  1.0000
  H   H3879     1.0  0.77029  0.77577  0.26358  1.0000
  C   C2183     1.0  0.77348  0.76919  0.28391  1.0000
  S   S487      1.0  0.98142  0.90719  0.32115  1.0000
  N   N121      1.0  0.85704  0.67637  0.33797  1.0000
  H   H3880     1.0  0.74125  0.74101  0.27594  1.0000
  H   H3881     1.0  0.86730  0.97475  0.10028  1.0000
  H   H3882     1.0  0.96873  0.96744  0.32663  1.0000
  H   H3883     1.0  0.76615  0.73143  0.36997  1.0000
  C   C2184     1.0  0.74276  0.77390  0.20435  1.0000
  H   H3884     1.0  0.76802  0.75702  0.33668  1.0000
  C   C2185     1.0  0.75269  0.74830  0.27022  1.0000
  H   H3885     1.0  0.97450  0.86805  0.01839  1.0000
  H   H3886     1.0  0.88021  0.66600  0.31851  1.0000
  C   C2186     1.0  0.74864  0.66683  0.47853  1.0000
  H   H3887     1.0  0.74889  0.71708  0.36472  1.0000
  H   H3888     1.0  0.92903  0.98003  0.05091  1.0000
  H   H3889     1.0  0.84372  0.67270  0.28254  1.0000
  H   H3890     1.0  0.98004  0.93093  0.01506  1.0000
  H   H3891     1.0  0.98019  0.85116  0.42354  1.0000
  H   H3892     1.0  0.97787  0.94671  0.28513  1.0000
  H   H3893     1.0  0.76786  0.71521  0.34301  1.0000
  C   C2187     1.0  0.75894  0.72444  0.35387  1.0000
  Fe  Fe244     1.0  0.81523  0.70318  0.47054  1.0000
  C   C2188     1.0  0.74405  0.77201  0.30237  1.0000
  H   H3894     1.0  0.96322  0.94430  0.23745  1.0000
  C   C2189     1.0  0.74348  0.67790  0.00148  1.0000
  H   H3895     1.0  0.75629  0.69275  0.48392  1.0000
  H   H3896     1.0  0.80467  0.66501  0.35425  1.0000
  H   H3897     1.0  0.97004  0.94403  0.36217  1.0000
  C   C2190     1.0  0.97942  0.95020  0.10277  1.0000
  H   H3898     1.0  0.82299  0.67127  0.31381  1.0000
  H   H3899     1.0  0.97292  0.94715  0.12298  1.0000
  H   H3900     1.0  0.74091  0.74477  0.34395  1.0000
  H   H3901     1.0  0.97808  0.86923  0.13236  1.0000
  H   H3902     1.0  0.84216  0.66249  0.36884  1.0000
  H   H3903     1.0  0.74593  0.77661  0.32422  1.0000
  H   H3904     1.0  0.98588  0.95528  0.38179  1.0000
  S   S488      1.0  0.81633  0.67510  0.48202  1.0000
  C   C2191     1.0  0.98669  0.88914  0.99760  1.0000
  H   H3905     1.0  0.86167  0.65521  0.30900  1.0000
  C   C2192     1.0  0.87764  0.97906  0.11418  1.0000
  H   H3906     1.0  0.87264  0.98037  0.13605  1.0000
  H   H3907     1.0  0.96861  0.94555  0.48335  1.0000
  Fe  Fe245     1.0  0.95187  0.89074  0.61780  1.0000
  S   S489      1.0  0.92322  0.89095  0.61230  1.0000
  H   H3908     1.0  0.78263  0.79770  0.96334  1.0000
  Fe  Fe246     1.0  0.94883  0.90035  0.68105  1.0000
  S   S490      1.0  0.91990  0.90189  0.67977  1.0000
  H   H3909     1.0  0.94287  0.96982  0.57113  1.0000
  Fe  Fe247     1.0  0.92170  0.87730  0.65457  1.0000
  S   S491      1.0  0.90926  0.85170  0.66729  1.0000
  Fe  Fe248     1.0  0.92335  0.91535  0.63780  1.0000
  S   S492      1.0  0.90855  0.93919  0.62197  1.0000
  S   S493      1.0  0.95069  0.87537  0.65795  1.0000
  S   S494      1.0  0.95186  0.91559  0.64104  1.0000
  Fe  Fe249     1.0  0.82386  0.79126  0.68551  1.0000
  S   S495      1.0  0.83942  0.76663  0.69098  1.0000
  S   S496      1.0  0.83521  0.81721  0.67259  1.0000
  Fe  Fe250     1.0  0.78943  0.77311  0.69671  1.0000
  S   S497      1.0  0.80354  0.74787  0.70354  1.0000
  S   S498      1.0  0.76094  0.76704  0.69612  1.0000
  Fe  Fe251     1.0  0.82219  0.76222  0.72882  1.0000
  S   S499      1.0  0.83319  0.75422  0.77168  1.0000
  Fe  Fe252     1.0  0.81899  0.75444  0.66503  1.0000
  S   S500      1.0  0.82176  0.73236  0.63358  1.0000
  S   S501      1.0  0.80734  0.78737  0.72454  1.0000
  S   S502      1.0  0.80434  0.77918  0.65716  1.0000
  Fe  Fe253     1.0  0.82604  0.66918  0.94797  1.0000
  S   S503      1.0  0.83054  0.69689  0.93641  1.0000
  H   H3910     1.0  0.75608  0.75718  0.82465  1.0000
  Fe  Fe254     1.0  0.78660  0.67595  0.95277  1.0000
  S   S504      1.0  0.78876  0.70356  0.94132  1.0000
  H   H3911     1.0  0.75557  0.77431  0.59237  1.0000
  Fe  Fe255     1.0  0.80765  0.69507  0.90780  1.0000
  S   S505      1.0  0.80101  0.70381  0.86284  1.0000
  C   C2193     1.0  0.93322  0.92968  0.55607  1.0000
  H   H3912     1.0  0.75098  0.72147  0.65056  1.0000
  S   S506      1.0  0.80427  0.66716  0.91754  1.0000
  C   C2194     1.0  0.73999  0.75219  0.62816  1.0000
  H   H3913     1.0  0.78253  0.75674  0.57348  1.0000
  H   H3914     1.0  0.79193  0.76140  0.60690  1.0000
  H   H3915     1.0  0.95554  0.96330  0.51077  1.0000
  H   H3916     1.0  0.97534  0.83163  0.71862  1.0000
  H   H3917     1.0  0.76849  0.71963  0.88495  1.0000
  C   C2195     1.0  0.76175  0.73158  0.89225  1.0000
  H   H3918     1.0  0.75198  0.79993  0.72339  1.0000
  C   C2196     1.0  0.82430  0.73975  0.79638  1.0000
  C   C2197     1.0  0.83335  0.73566  0.82120  1.0000
  C   C2198     1.0  0.82659  0.72451  0.84164  1.0000
  C   C2199     1.0  0.81063  0.71739  0.83752  1.0000
  C   C2200     1.0  0.80175  0.72124  0.81248  1.0000
  C   C2201     1.0  0.80846  0.73242  0.79209  1.0000
  H   H3919     1.0  0.84573  0.74108  0.82453  1.0000
  H   H3920     1.0  0.83381  0.72128  0.86036  1.0000
  H   H3921     1.0  0.78972  0.71533  0.80862  1.0000
  H   H3922     1.0  0.80148  0.73524  0.77295  1.0000
  C   C2202     1.0  0.82030  0.73110  0.59623  1.0000
  C   C2203     1.0  0.81951  0.71490  0.58364  1.0000
  C   C2204     1.0  0.81870  0.71319  0.55410  1.0000
  C   C2205     1.0  0.81878  0.72772  0.53672  1.0000
  C   C2206     1.0  0.81946  0.74394  0.54935  1.0000
  C   C2207     1.0  0.82025  0.74562  0.57887  1.0000
  H   H3923     1.0  0.81964  0.70354  0.59680  1.0000
  H   H3924     1.0  0.81822  0.70063  0.54478  1.0000
  H   H3925     1.0  0.81947  0.75526  0.53613  1.0000
  H   H3926     1.0  0.82097  0.75814  0.58817  1.0000
  H   H3927     1.0  0.85110  0.75230  0.93613  1.0000
  C   C2208     1.0  0.88837  0.84266  0.66921  1.0000
  C   C2209     1.0  0.87358  0.85105  0.65870  1.0000
  C   C2210     1.0  0.85753  0.84311  0.66015  1.0000
  C   C2211     1.0  0.85589  0.82667  0.67214  1.0000
  C   C2212     1.0  0.87067  0.81830  0.68277  1.0000
  C   C2213     1.0  0.88673  0.82620  0.68118  1.0000
  H   H3928     1.0  0.87447  0.86366  0.64936  1.0000
  H   H3929     1.0  0.84626  0.84981  0.65186  1.0000
  H   H3930     1.0  0.86975  0.80570  0.69211  1.0000
  H   H3931     1.0  0.89799  0.81948  0.68929  1.0000
  C   C2214     1.0  0.91746  0.95979  0.61968  1.0000
  C   C2215     1.0  0.90841  0.97317  0.60561  1.0000
  H   H3932     1.0  0.90851  0.91809  0.56010  1.0000
  H   H3933     1.0  0.98384  0.85384  0.66659  1.0000
  H   H3934     1.0  0.89609  0.97076  0.59646  1.0000
  H   H3935     1.0  0.92300  0.90739  0.53559  1.0000
  C   C2216     1.0  0.78202  0.76566  0.59155  1.0000
  H   H3936     1.0  0.94314  0.89791  0.75924  1.0000
  H   H3937     1.0  0.76332  0.79379  0.94379  1.0000
  H   H3938     1.0  0.95432  0.94548  0.58607  1.0000
  C   C2217     1.0  0.81863  0.78011  0.87377  1.0000
  H   H3939     1.0  0.97426  0.86743  0.94024  1.0000
  C   C2218     1.0  0.74894  0.73762  0.76185  1.0000
  C   C2219     1.0  0.96030  0.88459  0.53402  1.0000
  H   H3940     1.0  0.91808  0.88750  0.73737  1.0000
  H   H3941     1.0  0.77236  0.74613  0.64840  1.0000
  H   H3942     1.0  0.76163  0.73067  0.76334  1.0000
  H   H3943     1.0  0.94820  0.88250  0.54459  1.0000
  H   H3944     1.0  0.78943  0.71129  0.64885  1.0000
  H   H3945     1.0  0.93036  0.96571  0.54022  1.0000
  H   H3946     1.0  0.79463  0.76919  0.86373  1.0000
  H   H3947     1.0  0.77784  0.72066  0.67842  1.0000
  C   C2220     1.0  0.75140  0.71648  0.81578  1.0000
  H   H3948     1.0  0.90014  0.92657  0.96499  1.0000
  H   H3949     1.0  0.81239  0.78643  0.83006  1.0000
  H   H3950     1.0  0.76999  0.74466  0.80297  1.0000
  N   N122      1.0  0.94650  0.91278  0.92125  1.0000
  C   C2221     1.0  0.95961  0.92250  0.93729  1.0000
  C   C2222     1.0  0.95218  0.89410  0.92039  1.0000
  C   C2223     1.0  0.94660  0.91939  0.89126  1.0000
  C   C2224     1.0  0.92858  0.91506  0.93344  1.0000
  H   H3951     1.0  0.75830  0.73011  0.91486  1.0000
  C   C2225     1.0  0.95737  0.94234  0.93582  1.0000
  C   C2226     1.0  0.93461  0.91050  0.87038  1.0000
  C   C2227     1.0  0.95194  0.88427  0.94872  1.0000
  H   H3952     1.0  0.91239  0.92765  0.52613  1.0000
  C   C2228     1.0  0.97492  0.88744  0.54988  1.0000
  H   H3953     1.0  0.94686  0.89066  0.80993  1.0000
  C   C2229     1.0  0.93269  0.92081  0.84305  1.0000
  H   H3954     1.0  0.76267  0.71219  0.62089  1.0000
  C   C2230     1.0  0.97600  0.93501  0.49384  1.0000
  H   H3955     1.0  0.94383  0.88678  0.90646  1.0000
  H   H3956     1.0  0.96536  0.89274  0.91108  1.0000
  H   H3957     1.0  0.95987  0.91838  0.88231  1.0000
  H   H3958     1.0  0.94273  0.93322  0.89064  1.0000
  H   H3959     1.0  0.92176  0.92642  0.92383  1.0000
  H   H3960     1.0  0.92079  0.90395  0.92771  1.0000
  H   H3961     1.0  0.97017  0.95004  0.80221  1.0000
  C   C2231     1.0  0.78050  0.77698  0.79979  1.0000
  H   H3962     1.0  0.77777  0.78079  0.82188  1.0000
  H   H3963     1.0  0.95238  0.98196  0.63849  1.0000
  H   H3964     1.0  0.92161  0.90898  0.87947  1.0000
  H   H3965     1.0  0.94002  0.89765  0.86461  1.0000
  C   C2232     1.0  0.97810  0.93805  0.52598  1.0000
  H   H3966     1.0  0.84675  0.76748  0.51199  1.0000
  H   H3967     1.0  0.75106  0.74811  0.74647  1.0000
  C   C2233     1.0  0.78129  0.77180  0.94682  1.0000
  H   H3968     1.0  0.95290  0.91920  0.52968  1.0000
  H   H3969     1.0  0.76232  0.72140  0.82772  1.0000
  C   C2234     1.0  0.82381  0.78317  0.84309  1.0000
  S   S507      1.0  0.96820  0.90668  0.71531  1.0000
  H   H3970     1.0  0.74973  0.73344  0.88012  1.0000
  H   H3971     1.0  0.83055  0.77162  0.83427  1.0000
  H   H3972     1.0  0.97146  0.95261  0.62810  1.0000
  H   H3973     1.0  0.92656  0.93362  0.84716  1.0000
  H   H3974     1.0  0.94542  0.92243  0.83289  1.0000
  H   H3975     1.0  0.92450  0.91393  0.82820  1.0000
  N   N123      1.0  0.86698  0.78833  0.59928  1.0000
  C   C2235     1.0  0.84886  0.79385  0.60733  1.0000
  C   C2236     1.0  0.87232  0.77281  0.61668  1.0000
  C   C2237     1.0  0.87854  0.80263  0.60723  1.0000
  C   C2238     1.0  0.86915  0.78482  0.56814  1.0000
  C   C2239     1.0  0.85341  0.77806  0.55240  1.0000
  C   C2240     1.0  0.84270  0.81170  0.59594  1.0000
  C   C2241     1.0  0.89812  0.79881  0.60380  1.0000
  C   C2242     1.0  0.86172  0.75662  0.61316  1.0000
  C   C2243     1.0  0.86792  0.74236  0.63323  1.0000
  C   C2244     1.0  0.85833  0.77188  0.52288  1.0000
  C   C2245     1.0  0.82317  0.81389  0.59647  1.0000
  C   C2246     1.0  0.90822  0.81511  0.60653  1.0000
  H   H3976     1.0  0.84749  0.79427  0.63067  1.0000
  H   H3977     1.0  0.83951  0.78431  0.60088  1.0000
  H   H3978     1.0  0.88575  0.76859  0.61159  1.0000
  H   H3979     1.0  0.87210  0.77617  0.63948  1.0000
  H   H3980     1.0  0.87616  0.80645  0.62948  1.0000
  H   H3981     1.0  0.87553  0.81433  0.59443  1.0000
  H   H3982     1.0  0.87267  0.79666  0.55654  1.0000
  H   H3983     1.0  0.88017  0.77559  0.56457  1.0000
  H   H3984     1.0  0.84333  0.78836  0.55011  1.0000
  H   H3985     1.0  0.84758  0.76730  0.56364  1.0000
  H   H3986     1.0  0.84788  0.82189  0.60929  1.0000
  H   H3987     1.0  0.84724  0.81384  0.57405  1.0000
  H   H3988     1.0  0.90122  0.79309  0.58299  1.0000
  H   H3989     1.0  0.90276  0.78985  0.62056  1.0000
  H   H3990     1.0  0.84794  0.75928  0.61776  1.0000
  H   H3991     1.0  0.86333  0.75150  0.59157  1.0000
  H   H3992     1.0  0.86037  0.73078  0.62985  1.0000
  H   H3993     1.0  0.88167  0.73891  0.62934  1.0000
  H   H3994     1.0  0.86612  0.74636  0.65546  1.0000
  H   H3995     1.0  0.86385  0.78240  0.51027  1.0000
  H   H3996     1.0  0.86778  0.76091  0.52404  1.0000
  H   H3997     1.0  0.75150  0.75004  0.56654  1.0000
  H   H3998     1.0  0.81752  0.80524  0.58099  1.0000
  H   H3999     1.0  0.81799  0.81109  0.61779  1.0000
  H   H4000     1.0  0.81936  0.82730  0.59082  1.0000
  H   H4001     1.0  0.90592  0.82098  0.62749  1.0000
  H   H4002     1.0  0.92217  0.81201  0.60429  1.0000
  H   H4003     1.0  0.90446  0.82459  0.58995  1.0000
  N   N124      1.0  0.80070  0.76049  0.90589  1.0000
  C   C2247     1.0  0.80605  0.76524  0.87635  1.0000
  C   C2248     1.0  0.78994  0.74488  0.90462  1.0000
  C   C2249     1.0  0.79075  0.77548  0.91864  1.0000
  C   C2250     1.0  0.81604  0.75633  0.92420  1.0000
  C   C2251     1.0  0.82955  0.74324  0.91209  1.0000
  C   C2252     1.0  0.92816  0.80467  0.72896  1.0000
  C   C2253     1.0  0.77303  0.74697  0.88778  1.0000
  H   H4004     1.0  0.97290  0.82717  0.78519  1.0000
  C   C2254     1.0  0.84439  0.74022  0.93253  1.0000
  C   C2255     1.0  0.74055  0.79257  0.72189  1.0000
  H   H4005     1.0  0.81172  0.75388  0.86520  1.0000
  H   H4006     1.0  0.79730  0.73411  0.89460  1.0000
  H   H4007     1.0  0.78697  0.74015  0.92620  1.0000
  H   H4008     1.0  0.79947  0.78613  0.92276  1.0000
  H   H4009     1.0  0.82281  0.76816  0.92958  1.0000
  H   H4010     1.0  0.81183  0.75095  0.94480  1.0000
  H   H4011     1.0  0.83510  0.74780  0.89196  1.0000
  H   H4012     1.0  0.82377  0.73073  0.90838  1.0000
  H   H4013     1.0  0.83055  0.77739  0.88577  1.0000
  C   C2256     1.0  0.95805  0.96224  0.53366  1.0000
  H   H4014     1.0  0.95006  0.88176  0.49229  1.0000
  H   H4015     1.0  0.76536  0.75854  0.89408  1.0000
  H   H4016     1.0  0.77595  0.74787  0.86491  1.0000
  H   H4017     1.0  0.76528  0.77342  0.62617  1.0000
  C   C2257     1.0  0.96994  0.90166  0.75170  1.0000
  S   S508      1.0  0.76049  0.66356  0.95499  1.0000
  H   H4018     1.0  0.94364  0.94656  0.93633  1.0000
  H   H4019     1.0  0.97732  0.96663  0.58201  1.0000
  C   C2258     1.0  0.74150  0.77636  0.70963  1.0000
  C   C2259     1.0  0.75863  0.75370  0.80231  1.0000
  N   N125      1.0  0.95457  0.84576  0.73993  1.0000
  H   H4020     1.0  0.98431  0.95001  0.86234  1.0000
  C   C2260     1.0  0.94655  0.82877  0.74539  1.0000
  C   C2261     1.0  0.94121  0.85930  0.73164  1.0000
  C   C2262     1.0  0.96313  0.85137  0.76648  1.0000
  H   H4021     1.0  0.98348  0.92582  0.53507  1.0000
  C   C2263     1.0  0.94769  0.93238  0.53393  1.0000
  C   C2264     1.0  0.92595  0.86205  0.75261  1.0000
  C   C2265     1.0  0.93487  0.82232  0.72170  1.0000
  H   H4022     1.0  0.93849  0.88252  0.95573  1.0000
  H   H4023     1.0  0.95402  0.85889  0.92977  1.0000
  C   C2266     1.0  0.73901  0.71811  0.55450  1.0000
  C   C2267     1.0  0.91247  0.87484  0.74104  1.0000
  H   H4024     1.0  0.96053  0.84208  0.69578  1.0000
  H   H4025     1.0  0.75436  0.78024  0.78676  1.0000
  H   H4026     1.0  0.95672  0.81861  0.74872  1.0000
  H   H4027     1.0  0.93901  0.82906  0.76540  1.0000
  H   H4028     1.0  0.93589  0.85654  0.71057  1.0000
  H   H4029     1.0  0.94715  0.87192  0.72893  1.0000
  H   H4030     1.0  0.96798  0.86448  0.76379  1.0000
  H   H4031     1.0  0.95370  0.85241  0.78411  1.0000
  C   C2268     1.0  0.97799  0.83943  0.77738  1.0000
  H   H4032     1.0  0.96938  0.97019  0.53709  1.0000
  H   H4033     1.0  0.73862  0.70734  0.85384  1.0000
  H   H4034     1.0  0.94030  0.95307  0.64282  1.0000
  H   H4035     1.0  0.93041  0.86722  0.77282  1.0000
  H   H4036     1.0  0.91937  0.84997  0.75697  1.0000
  C   C2269     1.0  0.93332  0.96312  0.63158  1.0000
  H   H4037     1.0  0.94198  0.82125  0.70144  1.0000
  H   H4038     1.0  0.76780  0.76704  0.76411  1.0000
  H   H4039     1.0  0.92008  0.80024  0.71153  1.0000
  S   S509      1.0  0.97454  0.88747  0.58722  1.0000
  H   H4040     1.0  0.75063  0.70945  0.55359  1.0000
  H   H4041     1.0  0.96073  0.94714  0.98053  1.0000
  C   C2270     1.0  0.73796  0.73118  0.81009  1.0000
  C   C2271     1.0  0.96736  0.84363  0.71603  1.0000
  H   H4042     1.0  0.92355  0.83110  0.71855  1.0000
  C   C2272     1.0  0.74206  0.67040  0.97499  1.0000
  H   H4043     1.0  0.90716  0.87018  0.72101  1.0000
  H   H4044     1.0  0.90173  0.87647  0.75640  1.0000
  C   C2273     1.0  0.97704  0.88681  0.49026  1.0000
  C   C2274     1.0  0.94009  0.97956  0.62923  1.0000
  C   C2275     1.0  0.77283  0.78815  0.95881  1.0000
  N   N126      1.0  0.75641  0.74905  0.61155  1.0000
  H   H4045     1.0  0.78116  0.78097  0.90355  1.0000
  H   H4046     1.0  0.97641  0.93155  0.84426  1.0000
  H   H4047     1.0  0.83266  0.79396  0.84171  1.0000
  H   H4048     1.0  0.96215  0.94967  0.85200  1.0000
  H   H4049     1.0  0.81253  0.79220  0.88173  1.0000
  C   C2276     1.0  0.94235  0.97117  0.54800  1.0000
  C   C2277     1.0  0.96141  0.88416  0.50438  1.0000
  C   C2278     1.0  0.97547  0.94574  0.84581  1.0000
  C   C2279     1.0  0.75367  0.74037  0.58364  1.0000
  H   H4050     1.0  0.92794  0.94188  0.56470  1.0000
  C   C2280     1.0  0.95574  0.89780  0.76846  1.0000
  H   H4051     1.0  0.93829  0.92182  0.57395  1.0000
  H   H4052     1.0  0.97278  0.91917  0.92933  1.0000
  H   H4053     1.0  0.78453  0.78843  0.78779  1.0000
  H   H4054     1.0  0.76604  0.78512  0.97878  1.0000
  H   H4055     1.0  0.78735  0.79251  0.59827  1.0000
  H   H4056     1.0  0.79961  0.78224  0.57026  1.0000
  H   H4057     1.0  0.76555  0.73300  0.57709  1.0000
  C   C2281     1.0  0.76901  0.73871  0.62938  1.0000
  H   H4058     1.0  0.79129  0.76728  0.79926  1.0000
  S   S510      1.0  0.97619  0.88966  0.84631  1.0000
  H   H4059     1.0  0.97805  0.85083  0.81927  1.0000
  C   C2282     1.0  0.91840  0.92010  0.54354  1.0000
  H   H4060     1.0  0.96307  0.94707  0.91582  1.0000
  H   H4061     1.0  0.73826  0.71898  0.59957  1.0000
  C   C2283     1.0  0.76412  0.76624  0.60606  1.0000
  H   H4062     1.0  0.77259  0.69978  0.66593  1.0000
  C   C2284     1.0  0.76345  0.72082  0.63923  1.0000
  H   H4063     1.0  0.92018  0.80530  0.74844  1.0000
  N   N127      1.0  0.96207  0.94385  0.54197  1.0000
  H   H4064     1.0  0.78133  0.73630  0.61780  1.0000
  C   C2285     1.0  0.77665  0.71268  0.65933  1.0000
  C   C2286     1.0  0.97994  0.95390  0.81753  1.0000
  H   H4065     1.0  0.77101  0.76255  0.94378  1.0000
  C   C2287     1.0  0.95787  0.89395  0.79730  1.0000
  Fe  Fe256     1.0  0.81117  0.70347  0.97091  1.0000
  H   H4066     1.0  0.85375  0.73063  0.92359  1.0000
  H   H4067     1.0  0.77739  0.78816  0.56484  1.0000
  S   S511      1.0  0.81844  0.72641  0.49927  1.0000
  C   C2288     1.0  0.96577  0.94198  0.57303  1.0000
  C   C2289     1.0  0.74344  0.71890  0.71974  1.0000
  C   C2290     1.0  0.97976  0.85852  0.71148  1.0000
  C   C2291     1.0  0.98047  0.95274  0.58448  1.0000
  C   C2292     1.0  0.97410  0.89445  0.80990  1.0000
  C   C2293     1.0  0.76452  0.76992  0.78637  1.0000
  C   C2294     1.0  0.78682  0.78329  0.58063  1.0000
  H   H4068     1.0  0.83963  0.73522  0.95301  1.0000
  H   H4069     1.0  0.74296  0.75666  0.64965  1.0000
  H   H4070     1.0  0.97251  0.87073  0.70785  1.0000
  H   H4071     1.0  0.96884  0.92824  0.57814  1.0000
  C   C2295     1.0  0.96050  0.86645  0.94599  1.0000
  H   H4072     1.0  0.93896  0.79519  0.73191  1.0000
  H   H4073     1.0  0.93459  0.90791  0.97791  1.0000
  H   H4074     1.0  0.94170  0.93691  0.51389  1.0000
  H   H4075     1.0  0.92378  0.66737  0.80048  1.0000
  H   H4076     1.0  0.79029  0.76646  0.96285  1.0000
  H   H4077     1.0  0.90124  0.66382  0.80539  1.0000
  C   C2296     1.0  0.98616  0.90204  0.76430  1.0000
  H   H4078     1.0  0.74641  0.72967  0.70534  1.0000
  H   H4079     1.0  0.75639  0.71063  0.79604  1.0000
  H   H4080     1.0  0.75381  0.69225  0.83822  1.0000
  N   N128      1.0  0.74349  0.74498  0.78997  1.0000
  H   H4081     1.0  0.97881  0.96798  0.82020  1.0000
  C   C2297     1.0  0.91382  0.65757  0.79978  1.0000
  C   C2298     1.0  0.74592  0.68399  0.48607  1.0000
  C   C2299     1.0  0.73844  0.72823  0.58188  1.0000
  H   H4082     1.0  0.90336  0.90378  0.97151  1.0000
  C   C2300     1.0  0.92696  0.91759  0.96584  1.0000
  H   H4083     1.0  0.73875  0.68717  0.59657  1.0000
  C   C2301     1.0  0.98325  0.94919  0.61582  1.0000
  H   H4084     1.0  0.75536  0.71098  0.72325  1.0000
  C   C2302     1.0  0.74371  0.70225  0.83354  1.0000
  H   H4085     1.0  0.96917  0.92303  0.49020  1.0000
  H   H4086     1.0  0.93148  0.93035  0.97184  1.0000
  H   H4087     1.0  0.97459  0.95393  0.70844  1.0000
  C   C2303     1.0  0.90833  0.91665  0.97574  1.0000
  H   H4088     1.0  0.73903  0.72689  0.53601  1.0000
  C   C2304     1.0  0.96636  0.95101  0.96001  1.0000
  H   H4089     1.0  0.95874  0.89109  0.96521  1.0000
  H   H4090     1.0  0.98028  0.94753  0.95975  1.0000
  H   H4091     1.0  0.95970  0.85957  0.96647  1.0000
  H   H4092     1.0  0.95998  0.91856  0.95972  1.0000
  H   H4093     1.0  0.96476  0.96513  0.95781  1.0000
  H   H4094     1.0  0.98050  0.95743  0.76058  1.0000
  H   H4095     1.0  0.98675  0.93544  0.61947  1.0000
  H   H4096     1.0  0.91301  0.65255  0.77804  1.0000
  S   S512      1.0  0.80796  0.67609  0.98438  1.0000
