data_image0
_chemical_formula_structural       FeS2FeSH7CH4FeS2FeSHFeSFeS3H4CH2C4H5C2H2C6H5SH4FeH2CH5SC2H2CH4CHCH7SHC3HCHC2H3CHCNHFeC2H6CHC2H2SH6C2H3CH3CNSH2FeH3CHC2H3FeCHCH4CH2CH4CHCHCSC2HC2H6CSH2C2NHC3HC2HCH4C2H5NCH3CH2CH2C2H2CH2CHS2HNH2C4H2CHCHCSCHCH2SH2FeS2FeSC2SHSHC3HC2FeSHFeS2FeSFeS3CH6CHC2HCH3C2H2C6H4CHCH2NH2SH2CH2CH3CNC6HC5H4SH11CH12C2H3C4H4CH2CH5CHCHS2H2CH4C4H2C2SCHC2H5CNHCFeHCHCHCHCSC2H2CH4CH7C3HC2H3CHC2HFeC3H10NHCHFeH6SH3C2HC3H2CH3CSHFeCH2CH2SH2SHC2H8C2H3FeS2FeS2FeSFeS3C2SH2FeHCHCH2SHC2FeS2FeS2FeSFeS3H2CNCNH2S2HC9H9CH8C5H5C6H4C6H2CHCH5SH2CHFeC4H2CH2CH3CH5CHC3H2CNHC3SCH5CHCH15SH4FeC2HCH4CH2CHCH2FeCHCHCH2C4HC2H4CH10SHC2H4SNC5H2CH4CHCSH2CHCNHCHSHCH4CHCHCFeCH2NC2H5C3H4C2H3CH2CHC2H4CH2CHCFeC3H2CHCHCHSHCHCFeH4FeS2FeS2FeSFeS3FeHSFeH3SC2HSHC2HFeS2FeS2FeSFeS3H4CHC4H2C8H4CH4C2HNHCH3C2HCHCH4C6H4C6H4CH3CHC2HCHNHCH5CHCH2NHCH2CH4C2SHCH9CH3SHCSC2H4CHC3H2CH3C2H3CH4CH4CHCHC2H2C2H5CH2CH2NC12H31CH2CH4SHCH4CH2C2HCH6CH3FeCH2CHSH3NHC3H2CH2CH3C2H6C2H2CHC2FeS2FeS2FeSFeCS2HC2FeHSH3FeCFeS2HCHC3SHC2H3C3HCH5CH3CHC2H2C6H6SHNCHCH2C2H4CH2CH4C2H2CH2FeSHNH2SCH2FeH3SCH6CHCHC4H3C2SHC3H7CHCHCHC2HSNCH3NHCH2CH5CH2CH3CH2SH6CHC2SCHCHCHCHNH4CHCH3C2H2CH4C3H5CHCH6CHCH3CHCSCHCH6CHC3HCHCHC3H10SHCHCHC3H3CHC2HCH2FeS2FeS2FeSFeHS2HCHFeCSFeHSFeCFeS2HCH2C2HC3H4C2H5CH4C2H5C6H9CH2CH2C2H3CHCS2CHCH2CHCHC2H3CNH2CHNC6HC5H3CH24CH3CH2CH2CH2CH4CH7CH4CNC6HC2H21CH2CHCSCH2C2HCH2CH2CHC2HCSC2H3CH5CH2NCH2CHC2H3SHCH2C2H3NCHCSH2CHCH3SCH2C2HSFeC4H3CH4CH2CHCHSFeSHFeS2FeSFeS2H2CFeS2FeS2FeSHFeSFeS3H4CHC2H3C6H4C7H5C2HCH8C2H3NHCH4CH3CH3CH2CH2CH2CHCH2C2SC2H2CH3CH2CH6C2H6NC6H3CH25CH3NC11H8C2H3CH4C5H2CH11C3HC2H2SH2C2H2CHNHCHFeSHFeSCFeSFeS3H2FeSHFeS2FeSHFeSFeSHSH3CH2C2H3C6H4C6H7CHCH4CNCH2C3HSH5CH2CH2NHC2HNH6C2H5C2H2SC2H2C4H7CHCH2CHC2H2CH2C2HNHCHC2H2CH5CH2C2H4CH7SH2CHCHCH2C3NC2H3C2H3CH3CHC2H6C3H5SH4C2H3CHC2H2FeH2NC4HCH2CH2CH2C2H2C2H7CHC2H4CHSH4C2HCHC2SH5CH5CHCHFeS2FeS2FeS2FeSFeS3FeS2FeS2FeSFeS3HCH4FeS2C6H4C3SHCHC4H4C6H4C3H2C6H6SCH2CSH5FeH2C2H2C4NH2CHNH3C3H7CH2CHFeH4CH2SH4CH2C3HC2HC3H3SCH3CHCH2CH3CHCH6CH5CH3CH2CH2C3H5CHNC2HC2HC3FeHCH5CH13CHNHCFeCH5CNC12H31CH4CHCHNHCHCH3CHC3H7CH2C2H2CH2C3H2FeS2FeS2FeS2FeSFeS3FeS2FeS2FeSFeS3HCFeSH2FeS2C6H4C3H2CHC2HCH4C6H4C3H2C6H8C2HCH2CNCH2NHC4HCHCH14CHCHFeNH5C4H2NC12H29CH7CHC2HNHCH2CHCH2C2H2C2H3CH8CH2CH2C2H2CH5CHCH2C3SH2C2H2CH5C2H10CNC8H3CH3CH8CH2CHCH7CH3CH2C2HCH2C2H4CH3C2H2CFe2SHFeS2FeSFeS3HSHFeSHFeSHFeSFeS2HC6H4C6H4C3H4CH2C2HCHC2H2FeC2HCSH2C4HC3H2CHSNC12H20CH4CH4SNCH2NC2HCHCH4CSH3C2H4CH2CHCNHCNCH11SC3HC3HCHCH2CH5CH23CH5C3H2CH3CH4CH4CFeSCFeS2FeSFeS3CSHFeSCFeS2FeSFeS3C6H3C7H4C2H5CH7C2H3CH2C2H2NCH3SCH4CH4CH2CH4CH2CHC2HNHC2H5C4HCHCH3CHCHCHNHCH2FeH2C3H12NC2SC3H2C2H4CH5CH12C4HCH2CH4SH2CHCH3SH3C4H10C2H2CH2C2HCH3CHCH2CHC4FeS2FeSHFeSFeS3FeS2HFeS2FeS2FeCFeHS2HCH2NC3HCNHC7H4C6H7C3H3CHC2H6CSCH4CH3CHC2HCH10CNHC2H2C2HCS2HSH5C2H2C5SHC2H3CH2CH3CHSH4CH2CHC3HCH6CH2CH2CH4NC2HC5HCH7CH4FeH4CH6CHCH8CH2CH5CH2CH2CHC2HC4HCH4NH3CH5C2H9CHC2H3CSHC2FeCFeS2FeSHFeSFeS3FeS2HFeS2FeS2FeCFeS3H3NH2CH2C2H2C6H4C6H7C3H3SHC2H2C2HC2H7NHCSH2CHCHCNC12H24CH5CH2NC2H3C2H4CH9C2HCH6SCHCH3CHCH9C2H5C4H2C2HCFeC2H4SH3CH3NC4HC4HC2H9CH2CH7CHCH2SH2CH3FeSCH3CHCH3FeS2H2CH2FeS2FeS2FeSFeS3FeHCFeHCFeS2FeS2FeS2FeSFeS3C2H2C7H5SC2HC2H3C6H6CH2C6H4C2H6C2HCH5CNH8CH2CH4CH4SCH2C3HC3H2CHC2H3SH4CH2CHNH4CHCHCH4CNC11H28CH4CH2NC7H2CH2CH2CH6CHCHC2HCHC4H5CNHCHSHCH2C2HCHCHSH3CH2CH5C2H3CH8CHC2HCH4FeS2H2C2HFeS2FeS2FeSFeS3FeH2FeCNFeS2FeS2FeS2FeSFeS3H5C6H4CHC2H2CHSC7H9C6H5CHCH2C2H3C2NH5C2H2CH4C2HCHC2H2CH3CH6CH5C2SHNCHC4HC10H2CH15SHNC4HC3HCH7CH15CHCHNC9HCH14CH3CH2CH4CH6CH3CH2CHC2HCH3CHCHC3H2CH2CH4CH6SH2CH2CNHC2H3CHC2HCNCH3CH5C2HC2H8CHCHC2SHC2H2SH5CH2CFeSHFeSHFeS2FeSFeS3FeS2FeSHFeSFeS3H5C6H4C6H6CH2CNHC4HC3H3C2HCSCH6C2H9CH3C2H2CH5SH2CH3CH2C2H2C2HCNC7H2C3H16N2CH4C2H3CHC3H2CHNC8H20C2H2C3HCH13CH6CHC2HCH2C2HCH5CHC2H4SH3C2HSH2CHCH6C2SCHC3HCH3C2H3CH3SHFeSCFeS2FeSFeS3FeS2FeSHFeSFeS3HCNH2C6H4C6H5C2H4CHCH3C2SHSH5CH2CHC2HCH3CH6CH6NC3HC4H3CH10NC12H17CH10NHCHC2H4CSH3C2HCH9C4H3C4HCNCH2CFeH4NCHC2H2CHCH2C2H2C3SHCH3C2H2CHCHCH2C2HC2HCH6C2H2CH10CH2C4H3C2H4SCH6C3H6CH3CHCH4CH2CHC2H3FeSHFeSHFeSFeS3H4C2FeSCHS2H2CSHCHCH3CH2C2HCHCSHC2H2C6HCH2C3H4CHCHCH5CH3CH3CH2NHCSH5CHNH3C2SHCHCH3SCH7CH4FeH2CH3CHNCHCNC6HCHSH11C4H2CHSC4H7NHC2HCHCH3CHCHC2HC3H6CH2CH5CH5CSFeCH2FeH2CHCSH4C2HCH8FeSCFeS2FeSFeSCSCH3SHFeSFeHS2H2FeH2CFeHC2H4NH6CH2SHC6HCH2C2H2CHCH3C3HC2HCHCH3C2H7CH2NC2HC2H7CHNC8H2C2H9NH6CHCSHCH6C2H4S2CHC2H2C2SH4CH4C3H2CHCH2C3HCHCHC2HFeH6CH2FeHCH6C3H3CNH5CH7SHC4HCSCH2CHCH2C2H5CHFeHSFeSCHNHFeS2FeS2FeSFeS3FeS2FeS2FeSFeS3CH3CH2CH3C6H4C3H2C4SCH4C6H5C3H2FeH5C6H3NH2SHSHC5H2NC4NHCH2CH3C2H7C2H4C3H2CH3CH5SHC5H4CH5CH8CH2CFeHCHCHCH2CHNC6H2FeHCH6CHSH8C2H2CH5C2H5CH2CHNH4CNC12H14NH12CH2C3H4CH5C3H3C2H2CFeH3CH2CH9CHCH3CSH2CSH2C2HCHCH3CH13CH2C2HC2HCHCH5CFeS2Fe2HCH2FeS2FeS2FeSFeS3FeS2FeS2FeSFeS4HFeSCH3C9H2CHC3H2CH2CHCH4C6H5C2H2C2H5C6H3SH3CNCHC4H2C3H7CHCH8CHCSNC12H34FeH3NC7HC3H2C2H21NCHC4H3C2HCH3C2H7CHC3H8SHCH2FeH3C2H5SH2CHCH2CH5CHC2H4CH3C5H2CHCH2C2HNHCH2SHCH4CHC5NH2CH8C2HCH4CH7FeS2FeS2FeHFeS3CHCFeSH3SFeSFeSH2CH4CH6CH2C6HC3H2C3H3NC6H5C2H2NCH2CH3CH3CH2C2HSHCHC2H2CHC3H9CHFeNH2CHCHCH3CHCHSH6CH5CHNC4HC4HC2H14SCHCHC2H7SHC2H3C2HCH2CH8CHCH2CHCH2SC2HC2H5CH3CFeHCHC2H9CH5CSCH3FeS2FeS2FeCFeS3H4SH2NSCHFeSHCHSHCFeHNH2SH9CH3CSH2C2HC2H2C6H4C3HCH2C4HC2H7C2SH5FeH2SFeCH9C2H3C3H2CH2N2C11FeH30CH2SCHC2H2C2H2CH2CHCH6CH2CH2C2H3CH4CHC4H2C3HC2HCNHCH5NCHS2CHC2SHC
_chemical_formula_sum              "Fe256 S512 H4096 C2304 N128"
_cell_length_a       76.6342
_cell_length_b       76.7522
_cell_length_c       47.9966
_cell_angle_alpha    90.1202
_cell_angle_beta     90.1892
_cell_angle_gamma    88.0782

_space_group_name_H-M_alt    "P 1"
_space_group_IT_number       1

loop_
  _space_group_symop_operation_xyz
  'x, y, z'

loop_
  _atom_site_type_symbol
  _atom_site_label
  _atom_site_symmetry_multiplicity
  _atom_site_fract_x
  _atom_site_fract_y
  _atom_site_fract_z
  _atom_site_occupancy
  Fe  Fe1       1.0  0.20621  0.14182  0.00794  1.0000
  S   S1        1.0  0.18182  0.15778  0.99695  1.0000
  S   S2        1.0  0.21005  0.13611  0.05495  1.0000
  Fe  Fe2       1.0  0.21327  0.14879  0.44549  1.0000
  S   S3        1.0  0.18539  0.15294  0.43139  1.0000
  H   H1        1.0  0.11871  0.03290  0.02146  1.0000
  H   H2        1.0  0.21528  0.18358  0.12333  1.0000
  H   H3        1.0  0.19616  0.17878  0.25341  1.0000
  H   H4        1.0  0.01659  0.01100  0.14068  1.0000
  H   H5        1.0  0.12359  0.02345  0.31513  1.0000
  H   H6        1.0  0.22623  0.28139  0.35141  1.0000
  H   H7        1.0  0.14904  0.08874  0.02314  1.0000
  C   C1        1.0  0.21111  0.19670  0.11514  1.0000
  H   H8        1.0  0.09039  0.08650  0.44260  1.0000
  H   H9        1.0  0.09244  0.01512  0.45618  1.0000
  H   H10       1.0  0.23742  0.20239  0.07666  1.0000
  H   H11       1.0  0.23933  0.22407  0.41463  1.0000
  Fe  Fe3       1.0  0.06858  0.02545  0.32999  1.0000
  S   S4        1.0  0.05928  0.05189  0.34649  1.0000
  S   S5        1.0  0.06681  0.02230  0.28193  1.0000
  Fe  Fe4       1.0  0.07546  0.01268  0.38998  1.0000
  S   S6        1.0  0.06685  0.03810  0.40939  1.0000
  H   H12       1.0  0.15970  0.05779  0.35566  1.0000
  Fe  Fe5       1.0  0.04435  0.03732  0.37883  1.0000
  S   S7        1.0  0.01721  0.04131  0.39860  1.0000
  Fe  Fe6       1.0  0.08264  0.05054  0.37567  1.0000
  S   S8        1.0  0.09878  0.07551  0.37966  1.0000
  S   S9        1.0  0.05233  0.01119  0.36098  1.0000
  S   S10       1.0  0.09263  0.02487  0.35762  1.0000
  H   H13       1.0  0.18580  0.29371  0.38929  1.0000
  H   H14       1.0  0.23244  0.22864  0.33419  1.0000
  H   H15       1.0  0.19526  0.21030  0.05212  1.0000
  H   H16       1.0  0.22257  0.20628  0.26942  1.0000
  C   C2        1.0  0.11707  0.02260  0.29453  1.0000
  H   H17       1.0  0.19522  0.24266  0.04179  1.0000
  H   H18       1.0  0.21132  0.17869  0.38701  1.0000
  C   C3        1.0  0.22653  0.13982  0.08086  1.0000
  C   C4        1.0  0.20655  0.25120  0.32273  1.0000
  C   C5        1.0  0.21338  0.19281  0.39010  1.0000
  C   C6        1.0  0.22224  0.13816  0.10928  1.0000
  H   H19       1.0  0.21448  0.25439  0.05026  1.0000
  H   H20       1.0  0.11919  0.99435  0.29529  1.0000
  H   H21       1.0  0.20918  0.13461  0.11489  1.0000
  H   H22       1.0  0.24151  0.20395  0.46650  1.0000
  H   H23       1.0  0.09612  0.06690  0.02741  1.0000
  C   C7        1.0  0.22265  0.13856  0.33911  1.0000
  C   C8        1.0  0.22209  0.14199  0.36797  1.0000
  H   H24       1.0  0.21190  0.13215  0.32921  1.0000
  H   H25       1.0  0.21096  0.13822  0.38011  1.0000
  C   C9        1.0  0.14628  0.09696  0.42845  1.0000
  C   C10       1.0  0.14138  0.07954  0.43194  1.0000
  C   C11       1.0  0.12683  0.07281  0.41767  1.0000
  C   C12       1.0  0.11697  0.08336  0.39928  1.0000
  C   C13       1.0  0.12185  0.10080  0.39583  1.0000
  C   C14       1.0  0.13629  0.10758  0.41032  1.0000
  H   H26       1.0  0.06133  0.06568  0.28996  1.0000
  H   H27       1.0  0.12340  0.05939  0.42066  1.0000
  H   H28       1.0  0.11440  0.10916  0.38172  1.0000
  H   H29       1.0  0.13974  0.12099  0.40731  1.0000
  H   H30       1.0  0.09493  0.03098  0.05579  1.0000
  S   S11       1.0  0.17526  0.32597  0.01427  1.0000
  H   H31       1.0  0.13607  0.03735  0.27211  1.0000
  H   H32       1.0  0.21471  0.28909  0.41148  1.0000
  H   H33       1.0  0.09027  0.08486  0.98743  1.0000
  H   H34       1.0  0.06757  0.03598  0.47367  1.0000
  Fe  Fe7       1.0  0.19641  0.29761  0.47142  1.0000
  H   H35       1.0  0.20835  0.27070  0.39088  1.0000
  H   H36       1.0  0.24083  0.29108  0.09695  1.0000
  C   C15       1.0  0.24331  0.29275  0.18056  1.0000
  H   H37       1.0  0.03417  0.02764  0.44707  1.0000
  H   H38       1.0  0.22287  0.22379  0.04552  1.0000
  H   H39       1.0  0.23834  0.30016  0.42877  1.0000
  H   H40       1.0  0.11603  0.00339  0.26103  1.0000
  H   H41       1.0  0.21103  0.20861  0.16957  1.0000
  S   S12       1.0  0.19317  0.31954  0.44023  1.0000
  C   C16       1.0  0.10125  0.05573  0.01469  1.0000
  C   C17       1.0  0.22840  0.19168  0.07276  1.0000
  H   H42       1.0  0.19249  0.21852  0.08632  1.0000
  H   H43       1.0  0.19949  0.22966  0.29731  1.0000
  C   C18       1.0  0.19785  0.29513  0.37679  1.0000
  H   H44       1.0  0.23412  0.08931  0.39418  1.0000
  H   H45       1.0  0.14543  0.10112  0.99144  1.0000
  H   H46       1.0  0.13812  0.10989  0.02432  1.0000
  H   H47       1.0  0.04949  0.01076  0.45625  1.0000
  C   C19       1.0  0.24354  0.14440  0.07413  1.0000
  H   H48       1.0  0.22074  0.19579  0.02873  1.0000
  C   C20       1.0  0.23718  0.14300  0.32318  1.0000
  H   H49       1.0  0.19733  0.18043  0.05271  1.0000
  H   H50       1.0  0.21757  0.22366  0.12468  1.0000
  H   H51       1.0  0.22065  0.30614  0.19850  1.0000
  H   H52       1.0  0.01443  0.00769  0.42272  1.0000
  H   H53       1.0  0.17359  0.19529  0.08465  1.0000
  H   H54       1.0  0.04955  0.05163  0.46989  1.0000
  H   H55       1.0  0.11335  0.09929  0.99785  1.0000
  S   S13       1.0  0.16454  0.10475  0.44800  1.0000
  H   H56       1.0  0.11780  0.07278  0.32170  1.0000
  C   C21       1.0  0.12401  0.06934  0.26704  1.0000
  C   C22       1.0  0.11671  0.07052  0.23687  1.0000
  C   C23       1.0  0.08777  0.07549  0.29171  1.0000
  H   H57       1.0  0.09134  0.05310  0.26363  1.0000
  C   C24       1.0  0.22536  0.22366  0.31582  1.0000
  H   H58       1.0  0.23218  0.21813  0.16945  1.0000
  C   C25       1.0  0.12654  0.08376  0.21971  1.0000
  C   C26       1.0  0.06875  0.07680  0.28202  1.0000
  H   H59       1.0  0.10272  0.07473  0.23677  1.0000
  H   H60       1.0  0.11581  0.03539  0.25483  1.0000
  H   H61       1.0  0.11693  0.08645  0.02901  1.0000
  C   C27       1.0  0.21951  0.17909  0.27956  1.0000
  H   H62       1.0  0.22511  0.17345  0.03824  1.0000
  C   C28       1.0  0.22423  0.20781  0.16005  1.0000
  N   N1        1.0  0.10776  0.06195  0.98693  1.0000
  H   H63       1.0  0.12299  0.08259  0.27654  1.0000
  Fe  Fe8       1.0  0.18006  0.12950  0.45828  1.0000
  C   C29       1.0  0.20251  0.21289  0.07184  1.0000
  C   C30       1.0  0.22938  0.18701  0.04136  1.0000
  H   H64       1.0  0.14612  0.04328  0.31614  1.0000
  H   H65       1.0  0.09458  0.08640  0.28198  1.0000
  H   H66       1.0  0.08805  0.07746  0.31467  1.0000
  H   H67       1.0  0.13496  0.06476  0.99860  1.0000
  H   H68       1.0  0.00444  0.02720  0.46033  1.0000
  H   H69       1.0  0.23647  0.27037  0.08126  1.0000
  C   C31       1.0  0.23471  0.14086  0.13060  1.0000
  H   H70       1.0  0.03975  0.01154  0.13423  1.0000
  C   C32       1.0  0.14554  0.06021  0.35168  1.0000
  C   C33       1.0  0.06779  0.00990  0.22768  1.0000
  H   H71       1.0  0.12525  0.09693  0.22929  1.0000
  H   H72       1.0  0.14060  0.07984  0.21818  1.0000
  S   S14       1.0  0.22348  0.15813  0.98191  1.0000
  H   H73       1.0  0.06249  0.08911  0.28984  1.0000
  H   H74       1.0  0.06805  0.07676  0.25890  1.0000
  H   H75       1.0  0.13878  0.15805  0.46022  1.0000
  H   H76       1.0  0.09048  0.04821  0.29940  1.0000
  H   H77       1.0  0.21345  0.17082  0.29552  1.0000
  H   H78       1.0  0.06224  0.02261  0.22236  1.0000
  C   C34       1.0  0.12386  0.07265  0.98987  1.0000
  C   C35       1.0  0.16849  0.16875  0.07388  1.0000
  H   H79       1.0  0.24187  0.11090  0.40032  1.0000
  H   H80       1.0  0.18019  0.17923  0.11041  1.0000
  H   H81       1.0  0.19525  0.29062  0.35522  1.0000
  C   C36       1.0  0.12277  0.00519  0.28134  1.0000
  H   H82       1.0  0.12608  0.05263  0.03781  1.0000
  H   H83       1.0  0.11538  0.10588  0.45947  1.0000
  H   H84       1.0  0.23659  0.20926  0.12036  1.0000
  C   C37       1.0  0.03737  0.01772  0.46337  1.0000
  N   N2        1.0  0.21034  0.19611  0.08370  1.0000
  S   S15       1.0  0.21230  0.30498  0.99903  1.0000
  H   H85       1.0  0.22070  0.18071  0.33648  1.0000
  H   H86       1.0  0.00403  0.04955  0.34247  1.0000
  Fe  Fe9       1.0  0.18438  0.30419  0.98536  1.0000
  H   H87       1.0  0.10283  0.02221  0.29787  1.0000
  H   H88       1.0  0.13831  0.06655  0.26516  1.0000
  H   H89       1.0  0.13712  0.00450  0.27811  1.0000
  C   C38       1.0  0.09620  0.05739  0.28437  1.0000
  H   H90       1.0  0.19795  0.19966  0.12396  1.0000
  C   C39       1.0  0.14139  0.05674  0.32105  1.0000
  C   C40       1.0  0.07145  0.00599  0.25585  1.0000
  H   H91       1.0  0.21204  0.16145  0.24663  1.0000
  H   H92       1.0  0.23339  0.17482  0.27726  1.0000
  H   H93       1.0  0.14891  0.07113  0.44586  1.0000
  Fe  Fe10      1.0  0.18279  0.16912  0.47068  1.0000
  C   C41       1.0  0.19166  0.24901  0.46318  1.0000
  H   H94       1.0  0.23272  0.29955  0.37106  1.0000
  C   C42       1.0  0.21035  0.17551  0.25189  1.0000
  H   H95       1.0  0.23827  0.29505  0.15913  1.0000
  H   H96       1.0  0.11599  0.03155  0.07232  1.0000
  H   H97       1.0  0.20097  0.30912  0.37638  1.0000
  H   H98       1.0  0.20349  0.20166  0.28903  1.0000
  C   C43       1.0  0.19949  0.23388  0.45145  1.0000
  H   H99       1.0  0.21611  0.18321  0.23485  1.0000
  H   H100      1.0  0.11802  0.05774  0.22611  1.0000
  C   C44       1.0  0.12154  0.05921  0.31523  1.0000
  H   H101      1.0  0.12100  0.08443  0.19830  1.0000
  H   H102      1.0  0.21421  0.25787  0.30655  1.0000
  H   H103      1.0  0.21842  0.28296  0.19460  1.0000
  H   H104      1.0  0.20420  0.19718  0.33744  1.0000
  C   C45       1.0  0.23619  0.14971  0.38116  1.0000
  H   H105      1.0  0.20049  0.19989  0.38988  1.0000
  C   C46       1.0  0.21279  0.28431  0.39001  1.0000
  H   H106      1.0  0.23183  0.22959  0.29748  1.0000
  C   C47       1.0  0.22527  0.19986  0.36752  1.0000
  S   S16       1.0  0.20108  0.26941  0.45618  1.0000
  C   C48       1.0  0.19871  0.18134  0.07578  1.0000
  C   C49       1.0  0.21776  0.19868  0.28750  1.0000
  H   H107      1.0  0.13808  0.05152  0.36541  1.0000
  C   C50       1.0  0.21863  0.19510  0.33809  1.0000
  C   C51       1.0  0.19259  0.21734  0.45606  1.0000
  H   H108      1.0  0.23226  0.10539  0.36703  1.0000
  H   H109      1.0  0.16662  0.17184  0.05145  1.0000
  H   H110      1.0  0.23117  0.13930  0.15222  1.0000
  H   H111      1.0  0.17457  0.15544  0.07587  1.0000
  H   H112      1.0  0.14222  0.07401  0.35708  1.0000
  H   H113      1.0  0.19897  0.22565  0.33435  1.0000
  C   C52       1.0  0.17992  0.18222  0.08778  1.0000
  S   S17       1.0  0.23798  0.13728  0.28740  1.0000
  H   H114      1.0  0.21215  0.25382  0.34359  1.0000
  H   H115      1.0  0.21950  0.19454  0.41089  1.0000
  C   C53       1.0  0.20648  0.23157  0.31731  1.0000
  C   C54       1.0  0.09108  0.00126  0.99216  1.0000
  N   N3        1.0  0.22706  0.20403  0.31384  1.0000
  H   H116      1.0  0.06887  0.06283  0.98804  1.0000
  C   C55       1.0  0.08767  0.00413  0.46762  1.0000
  C   C56       1.0  0.13977  0.09771  0.01193  1.0000
  C   C57       1.0  0.20532  0.24462  0.05807  1.0000
  H   H117      1.0  0.22571  0.21411  0.37072  1.0000
  C   C58       1.0  0.10626  0.03931  0.05992  1.0000
  C   C59       1.0  0.11450  0.04497  0.03256  1.0000
  H   H118      1.0  0.23427  0.18032  0.08433  1.0000
  C   C60       1.0  0.12171  0.03809  0.27556  1.0000
  H   H119      1.0  0.23057  0.19494  0.16510  1.0000
  H   H120      1.0  0.09936  0.01101  0.00078  1.0000
  H   H121      1.0  0.20478  0.16870  0.08256  1.0000
  H   H122      1.0  0.15547  0.16888  0.08397  1.0000
  C   C61       1.0  0.99610  0.04098  0.38298  1.0000
  C   C62       1.0  0.07135  0.99761  0.20620  1.0000
  H   H123      1.0  0.19294  0.25669  0.32228  1.0000
  H   H124      1.0  0.19889  0.24989  0.07715  1.0000
  H   H125      1.0  0.22470  0.22995  0.08134  1.0000
  H   H126      1.0  0.04471  0.99791  0.41644  1.0000
  H   H127      1.0  0.08986  0.04728  0.01162  1.0000
  N   N4        1.0  0.11587  0.05602  0.28560  1.0000
  C   C63       1.0  0.00618  0.01554  0.47403  1.0000
  H   H128      1.0  0.11439  0.05082  0.32989  1.0000
  H   H129      1.0  0.23200  0.29149  0.22214  1.0000
  H   H130      1.0  0.22004  0.23557  0.98592  1.0000
  C   C64       1.0  0.12208  0.08936  0.00803  1.0000
  H   H131      1.0  0.23218  0.26147  0.41566  1.0000
  H   H132      1.0  0.10188  0.05084  0.07241  1.0000
  C   C65       1.0  0.22984  0.28548  0.37290  1.0000
  H   H133      1.0  0.23848  0.19383  0.37087  1.0000
  H   H134      1.0  0.21088  0.23496  0.43848  1.0000
  C   C66       1.0  0.22308  0.21031  0.12846  1.0000
  C   C67       1.0  0.22765  0.29327  0.20020  1.0000
  H   H135      1.0  0.14895  0.06595  0.30850  1.0000
  H   H136      1.0  0.11240  0.13984  0.45845  1.0000
  C   C68       1.0  0.21528  0.22747  0.06442  1.0000
  H   H137      1.0  0.23972  0.26761  0.13213  1.0000
  H   H138      1.0  0.24394  0.26504  0.17698  1.0000
  C   C69       1.0  0.24064  0.10046  0.38441  1.0000
  H   H139      1.0  0.19870  0.20584  0.44681  1.0000
  S   S18       1.0  0.23672  0.15314  0.41760  1.0000
  S   S19       1.0  0.20840  0.12465  0.47075  1.0000
  H   H140      1.0  0.03372  0.00081  0.18158  1.0000
  N   N5        1.0  0.02256  0.00530  0.46595  1.0000
  H   H141      1.0  0.13607  0.03620  0.98613  1.0000
  H   H142      1.0  0.23245  0.25081  0.38308  1.0000
  C   C70       1.0  0.24064  0.25857  0.39738  1.0000
  C   C71       1.0  0.17759  0.21573  0.47222  1.0000
  C   C72       1.0  0.20618  0.23750  0.98222  1.0000
  C   C73       1.0  0.01943  0.99749  0.43747  1.0000
  H   H143      1.0  0.20644  0.26532  0.98964  1.0000
  H   H144      1.0  0.24313  0.23724  0.44527  1.0000
  C   C74       1.0  0.02869  0.00284  0.13787  1.0000
  H   H145      1.0  0.06872  0.00102  0.18472  1.0000
  C   C75       1.0  0.19852  0.25442  0.98421  1.0000
  H   H146      1.0  0.07455  0.09591  0.46666  1.0000
  C   C76       1.0  0.18066  0.25719  0.97910  1.0000
  S   S20       1.0  0.17057  0.27842  0.97962  1.0000
  C   C77       1.0  0.12765  0.16046  0.47468  1.0000
  H   H147      1.0  0.11882  0.17070  0.46548  1.0000
  C   C78       1.0  0.08537  0.08603  0.46427  1.0000
  H   H148      1.0  0.13873  0.12489  0.47363  1.0000
  H   H149      1.0  0.08011  0.07290  0.46777  1.0000
  S   S21       1.0  0.16812  0.19518  0.47756  1.0000
  H   H150      1.0  0.09760  0.11681  0.47640  1.0000
  H   H151      1.0  0.02720  0.99443  0.11917  1.0000
  Fe  Fe11      1.0  0.20373  0.14286  0.50740  1.0000
  S   S22       1.0  0.17511  0.14614  0.49652  1.0000
  S   S23       1.0  0.20851  0.13952  0.55483  1.0000
  Fe  Fe12      1.0  0.21726  0.14067  0.94598  1.0000
  S   S24       1.0  0.19412  0.15697  0.93201  1.0000
  C   C79       1.0  0.23531  0.32102  0.89878  1.0000
  C   C80       1.0  0.22712  0.18934  0.62549  1.0000
  S   S25       1.0  0.18706  0.32258  0.94900  1.0000
  H   H152      1.0  0.14356  0.99701  0.82838  1.0000
  S   S26       1.0  0.15239  0.12888  0.94379  1.0000
  H   H153      1.0  0.19447  0.19466  0.52304  1.0000
  C   C81       1.0  0.23846  0.26285  0.93258  1.0000
  C   C82       1.0  0.00743  0.03118  0.88560  1.0000
  C   C83       1.0  0.22224  0.18817  0.59464  1.0000
  H   H154      1.0  0.17341  0.20554  0.55800  1.0000
  C   C84       1.0  0.21533  0.24037  0.55203  1.0000
  C   C85       1.0  0.17817  0.22575  0.97101  1.0000
  Fe  Fe13      1.0  0.08286  0.02065  0.82674  1.0000
  S   S27       1.0  0.07837  0.04924  0.83670  1.0000
  H   H155      1.0  0.23150  0.17629  0.63318  1.0000
  Fe  Fe14      1.0  0.07624  0.01057  0.88801  1.0000
  S   S28       1.0  0.07076  0.03823  0.90169  1.0000
  S   S29       1.0  0.20640  0.32097  0.56853  1.0000
  Fe  Fe15      1.0  0.05520  0.04026  0.86160  1.0000
  S   S30       1.0  0.02814  0.05312  0.85473  1.0000
  Fe  Fe16      1.0  0.09442  0.04505  0.87609  1.0000
  S   S31       1.0  0.11888  0.05917  0.89313  1.0000
  S   S32       1.0  0.05918  0.01214  0.84969  1.0000
  S   S33       1.0  0.10046  0.01683  0.86436  1.0000
  C   C86       1.0  0.00801  0.04506  0.86682  1.0000
  H   H156      1.0  0.23228  0.28306  0.71259  1.0000
  H   H157      1.0  0.21245  0.27162  0.94062  1.0000
  H   H158      1.0  0.22201  0.08780  0.92894  1.0000
  H   H159      1.0  0.01948  0.02504  0.89301  1.0000
  H   H160      1.0  0.13986  0.09422  0.48736  1.0000
  H   H161      1.0  0.19152  0.22721  0.55866  1.0000
  C   C87       1.0  0.22533  0.14115  0.58082  1.0000
  H   H162      1.0  0.10649  0.14668  0.49312  1.0000
  C   C88       1.0  0.23681  0.14518  0.82280  1.0000
  C   C89       1.0  0.22113  0.13839  0.60904  1.0000
  H   H163      1.0  0.20790  0.13528  0.61444  1.0000
  C   C90       1.0  0.18142  0.19355  0.56243  1.0000
  H   H164      1.0  0.22679  0.21529  0.58792  1.0000
  H   H165      1.0  0.02634  0.00497  0.71237  1.0000
  H   H166      1.0  0.23093  0.20546  0.78032  1.0000
  C   C91       1.0  0.22364  0.15160  0.84069  1.0000
  C   C92       1.0  0.22438  0.14806  0.86942  1.0000
  H   H167      1.0  0.21272  0.15920  0.83223  1.0000
  H   H168      1.0  0.21418  0.15309  0.88289  1.0000
  C   C93       1.0  0.14330  0.10919  0.93033  1.0000
  C   C94       1.0  0.12595  0.10962  0.92035  1.0000
  C   C95       1.0  0.11823  0.09457  0.90916  1.0000
  C   C96       1.0  0.12775  0.07869  0.90762  1.0000
  C   C97       1.0  0.14505  0.07820  0.91791  1.0000
  C   C98       1.0  0.15272  0.09323  0.92930  1.0000
  H   H169      1.0  0.11840  0.12179  0.92106  1.0000
  H   H170      1.0  0.10495  0.09535  0.90142  1.0000
  H   H171      1.0  0.15265  0.06608  0.91695  1.0000
  H   H172      1.0  0.16592  0.09246  0.93731  1.0000
  C   C99       1.0  0.13111  0.02214  0.94844  1.0000
  H   H173      1.0  0.23392  0.18311  0.58325  1.0000
  C   C100      1.0  0.24256  0.14515  0.57438  1.0000
  H   H174      1.0  0.21219  0.07145  0.90746  1.0000
  H   H175      1.0  0.09257  0.01085  0.94977  1.0000
  N   N6        1.0  0.21171  0.26114  0.89863  1.0000
  H   H176      1.0  0.23349  0.27579  0.66290  1.0000
  H   H177      1.0  0.16384  0.32126  0.87324  1.0000
  S   S34       1.0  0.09156  0.01109  0.78302  1.0000
  H   H178      1.0  0.21185  0.17851  0.59266  1.0000
  H   H179      1.0  0.18708  0.25702  0.91932  1.0000
  C   C101      1.0  0.07597  0.06469  0.96818  1.0000
  H   H180      1.0  0.23334  0.26085  0.81851  1.0000
  H   H181      1.0  0.12502  0.02418  0.92760  1.0000
  C   C102      1.0  0.17678  0.24741  0.47971  1.0000
  H   H182      1.0  0.22915  0.23813  0.89999  1.0000
  H   H183      1.0  0.24444  0.27442  0.87604  1.0000
  H   H184      1.0  0.16723  0.32584  0.56759  1.0000
  C   C103      1.0  0.04282  0.02736  0.49024  1.0000
  N   N7        1.0  0.18598  0.10765  0.85411  1.0000
  C   C104      1.0  0.17137  0.10078  0.83653  1.0000
  C   C105      1.0  0.20131  0.11105  0.83547  1.0000
  C   C106      1.0  0.19081  0.09438  0.87619  1.0000
  C   C107      1.0  0.18051  0.12451  0.86843  1.0000
  C   C108      1.0  0.17138  0.13860  0.84978  1.0000
  C   C109      1.0  0.15421  0.09722  0.85226  1.0000
  H   H185      1.0  0.16900  0.08628  0.50590  1.0000
  C   C110      1.0  0.20966  0.09487  0.82051  1.0000
  C   C111      1.0  0.22081  0.27083  0.92174  1.0000
  C   C112      1.0  0.16790  0.15548  0.86607  1.0000
  C   C113      1.0  0.13945  0.09313  0.83207  1.0000
  C   C114      1.0  0.08830  0.00402  0.49696  1.0000
  H   H186      1.0  0.17541  0.08810  0.82688  1.0000
  H   H187      1.0  0.16843  0.10965  0.81867  1.0000
  H   H188      1.0  0.19751  0.12047  0.81878  1.0000
  H   H189      1.0  0.21176  0.11749  0.84734  1.0000
  S   S35       1.0  0.20690  0.20237  0.97140  1.0000
  H   H190      1.0  0.17987  0.09323  0.89112  1.0000
  H   H191      1.0  0.17171  0.12207  0.88637  1.0000
  H   H192      1.0  0.19204  0.13064  0.87793  1.0000
  H   H193      1.0  0.15860  0.13415  0.84214  1.0000
  H   H194      1.0  0.17953  0.14175  0.83155  1.0000
  H   H195      1.0  0.15625  0.08568  0.86586  1.0000
  H   H196      1.0  0.14975  0.10842  0.86532  1.0000
  H   H197      1.0  0.20574  0.11115  0.90437  1.0000
  H   H198      1.0  0.22589  0.22234  0.50160  1.0000
  H   H199      1.0  0.20304  0.20248  0.87059  1.0000
  H   H200      1.0  0.20048  0.08961  0.80495  1.0000
  C   C115      1.0  0.23672  0.26542  0.86310  1.0000
  H   H201      1.0  0.13475  0.99955  0.79374  1.0000
  H   H202      1.0  0.00304  0.00663  0.71773  1.0000
  H   H203      1.0  0.18039  0.16129  0.87234  1.0000
  H   H204      1.0  0.16053  0.16503  0.85279  1.0000
  H   H205      1.0  0.16002  0.15298  0.88499  1.0000
  H   H206      1.0  0.12753  0.09012  0.84406  1.0000
  H   H207      1.0  0.13635  0.10449  0.81842  1.0000
  H   H208      1.0  0.14306  0.08159  0.81903  1.0000
  H   H209      1.0  0.16092  0.28292  0.88371  1.0000
  H   H210      1.0  0.13839  0.13475  0.50667  1.0000
  H   H211      1.0  0.07779  0.05175  0.95814  1.0000
  H   H212      1.0  0.00719  0.02092  0.49537  1.0000
  C   C116      1.0  0.05568  0.04161  0.48382  1.0000
  C   C117      1.0  0.13415  0.09875  0.50748  1.0000
  H   H213      1.0  0.23800  0.19836  0.62862  1.0000
  H   H214      1.0  0.05966  0.04802  0.50350  1.0000
  H   H215      1.0  0.21567  0.19385  0.63803  1.0000
  C   C118      1.0  0.16326  0.08777  0.52705  1.0000
  C   C119      1.0  0.23386  0.13944  0.63042  1.0000
  C   C120      1.0  0.14948  0.10265  0.52742  1.0000
  C   C121      1.0  0.12980  0.12894  0.49083  1.0000
  H   H216      1.0  0.17057  0.25893  0.48880  1.0000
  H   H217      1.0  0.12435  0.01165  0.95955  1.0000
  H   H218      1.0  0.22275  0.28465  0.91561  1.0000
  H   H219      1.0  0.11592  0.14459  0.53882  1.0000
  C   C122      1.0  0.08213  0.99911  0.75487  1.0000
  H   H220      1.0  0.12791  0.08719  0.51652  1.0000
  H   H221      1.0  0.12820  0.07684  0.96890  1.0000
  C   C123      1.0  0.11759  0.13144  0.54821  1.0000
  H   H222      1.0  0.10863  0.10528  0.54054  1.0000
  H   H223      1.0  0.02109  0.02182  0.80649  1.0000
  H   H224      1.0  0.20532  0.31469  0.62771  1.0000
  H   H225      1.0  0.01662  0.00931  0.83737  1.0000
  H   H226      1.0  0.13164  0.12930  0.55275  1.0000
  C   C124      1.0  0.19222  0.26448  0.90135  1.0000
  H   H227      1.0  0.22384  0.26179  0.70653  1.0000
  C   C125      1.0  0.11036  0.11740  0.52826  1.0000
  H   H228      1.0  0.13273  0.16541  0.49480  1.0000
  S   S36       1.0  0.21090  0.16646  0.48300  1.0000
  S   S37       1.0  0.23867  0.13163  0.91596  1.0000
  H   H229      1.0  0.23033  0.13717  0.65187  1.0000
  H   H230      1.0  0.03154  0.03378  0.50087  1.0000
  C   C126      1.0  0.09361  0.07347  0.97391  1.0000
  H   H231      1.0  0.15623  0.11462  0.52157  1.0000
  H   H232      1.0  0.09366  0.13446  0.57256  1.0000
  H   H233      1.0  0.20756  0.32576  0.89814  1.0000
  H   H234      1.0  0.21677  0.24230  0.57486  1.0000
  C   C127      1.0  0.23296  0.32083  0.84002  1.0000
  C   C128      1.0  0.09998  0.08930  0.48521  1.0000
  C   C129      1.0  0.16972  0.23086  0.48400  1.0000
  C   C130      1.0  0.09202  0.99613  0.73048  1.0000
  H   H235      1.0  0.22432  0.20811  0.88300  1.0000
  H   H236      1.0  0.17395  0.09073  0.54184  1.0000
  C   C131      1.0  0.24356  0.19808  0.78251  1.0000
  C   C132      1.0  0.16595  0.28533  0.90505  1.0000
  S   S38       1.0  0.22088  0.30795  0.49029  1.0000
  C   C133      1.0  0.19854  0.19329  0.54519  1.0000
  H   H237      1.0  0.11296  0.14223  0.58946  1.0000
  C   C134      1.0  0.23009  0.32177  0.64548  1.0000
  C   C135      1.0  0.22252  0.32339  0.59548  1.0000
  H   H238      1.0  0.20920  0.23297  0.85882  1.0000
  H   H239      1.0  0.19111  0.23149  0.88268  1.0000
  H   H240      1.0  0.16164  0.29861  0.91178  1.0000
  H   H241      1.0  0.15818  0.17848  0.56765  1.0000
  H   H242      1.0  0.02836  0.99930  0.80875  1.0000
  C   C136      1.0  0.22797  0.20337  0.53613  1.0000
  N   N8        1.0  0.21151  0.20695  0.55273  1.0000
  H   H243      1.0  0.21341  0.08440  0.83544  1.0000
  C   C137      1.0  0.21012  0.21068  0.88569  1.0000
  Fe  Fe17      1.0  0.21449  0.32465  0.96452  1.0000
  H   H244      1.0  0.20699  0.25651  0.51684  1.0000
  C   C138      1.0  0.24310  0.20120  0.48908  1.0000
  H   H245      1.0  0.17023  0.21482  0.96574  1.0000
  C   C139      1.0  0.23585  0.26950  0.70614  1.0000
  H   H246      1.0  0.22638  0.31879  0.66662  1.0000
  C   C140      1.0  0.20352  0.22471  0.54614  1.0000
  H   H247      1.0  0.16020  0.27590  0.91967  1.0000
  C   C141      1.0  0.20739  0.25726  0.53993  1.0000
  S   S39       1.0  0.17913  0.31160  0.50280  1.0000
  C   C142      1.0  0.19609  0.22307  0.97553  1.0000
  C   C143      1.0  0.11123  0.04659  0.96749  1.0000
  H   H248      1.0  0.20631  0.20684  0.90710  1.0000
  H   H249      1.0  0.09341  0.01507  0.50798  1.0000
  C   C144      1.0  0.21714  0.26772  0.87045  1.0000
  H   H250      1.0  0.00260  0.00156  0.77870  1.0000
  H   H251      1.0  0.10979  0.11914  0.58696  1.0000
  H   H252      1.0  0.22335  0.11037  0.78987  1.0000
  H   H253      1.0  0.23135  0.08811  0.79307  1.0000
  C   C145      1.0  0.10785  0.13178  0.57596  1.0000
  H   H254      1.0  0.24176  0.17162  0.91297  1.0000
  H   H255      1.0  0.23194  0.18929  0.53755  1.0000
  H   H256      1.0  0.07054  0.07774  0.92859  1.0000
  H   H257      1.0  0.19022  0.28849  0.92620  1.0000
  H   H258      1.0  0.21412  0.28195  0.86866  1.0000
  H   H259      1.0  0.09684  0.12206  0.52287  1.0000
  H   H260      1.0  0.14466  0.10381  0.54912  1.0000
  C   C146      1.0  0.21506  0.24170  0.90159  1.0000
  C   C147      1.0  0.01764  0.00875  0.81430  1.0000
  C   C148      1.0  0.21910  0.32350  0.88569  1.0000
  H   H261      1.0  0.12776  0.32106  0.56087  1.0000
  C   C149      1.0  0.18590  0.28372  0.90562  1.0000
  C   C150      1.0  0.21019  0.08464  0.91671  1.0000
  H   H262      1.0  0.14449  0.31267  0.53738  1.0000
  H   H263      1.0  0.19895  0.22528  0.52409  1.0000
  H   H264      1.0  0.21120  0.23754  0.92290  1.0000
  C   C151      1.0  0.21793  0.32341  0.85640  1.0000
  H   H265      1.0  0.23725  0.18875  0.82315  1.0000
  C   C152      1.0  0.20549  0.22993  0.88055  1.0000
  C   C153      1.0  0.14169  0.31671  0.55921  1.0000
  H   H266      1.0  0.23917  0.21037  0.54511  1.0000
  Fe  Fe18      1.0  0.19920  0.17369  0.96978  1.0000
  C   C154      1.0  0.23807  0.13767  0.88042  1.0000
  C   C155      1.0  0.17032  0.17801  0.55507  1.0000
  C   C156      1.0  0.10848  0.10706  0.47982  1.0000
  H   H267      1.0  0.14496  0.01785  0.94541  1.0000
  H   H268      1.0  0.21536  0.20233  0.49485  1.0000
  H   H269      1.0  0.20932  0.26174  0.85361  1.0000
  H   H270      1.0  0.10757  0.05004  0.94569  1.0000
  H   H271      1.0  0.15748  0.07530  0.53333  1.0000
  H   H272      1.0  0.22854  0.23838  0.54303  1.0000
  H   H273      1.0  0.20471  0.17995  0.54659  1.0000
  H   H274      1.0  0.04949  0.01802  0.50472  1.0000
  H   H275      1.0  0.20490  0.21121  0.59618  1.0000
  H   H276      1.0  0.17757  0.16555  0.55956  1.0000
  N   N9        1.0  0.12076  0.11329  0.50220  1.0000
  H   H277      1.0  0.19093  0.29246  0.88940  1.0000
  C   C157      1.0  0.22617  0.09961  0.80487  1.0000
  H   H278      1.0  0.16660  0.17837  0.53271  1.0000
  Fe  Fe19      1.0  0.17876  0.13935  0.96000  1.0000
  H   H279      1.0  0.18405  0.19287  0.58511  1.0000
  H   H280      1.0  0.18527  0.25974  0.88254  1.0000
  H   H281      1.0  0.23638  0.10366  0.81976  1.0000
  H   H282      1.0  0.21547  0.26844  0.54586  1.0000
  H   H283      1.0  0.19256  0.08112  0.86698  1.0000
  H   H284      1.0  0.13856  0.04850  0.95475  1.0000
  S   S40       1.0  0.23773  0.32267  0.93528  1.0000
  H   H285      1.0  0.19394  0.25979  0.54788  1.0000
  H   H286      1.0  0.21914  0.09824  0.88089  1.0000
  H   H287      1.0  0.19889  0.08464  0.93116  1.0000
  C   C158      1.0  0.20721  0.09829  0.89392  1.0000
  C   C159      1.0  0.21607  0.20628  0.58330  1.0000
  H   H288      1.0  0.09441  0.08878  0.50649  1.0000
  C   C160      1.0  0.22691  0.20801  0.50469  1.0000
  C   C161      1.0  0.06424  0.07600  0.94919  1.0000
  C   C162      1.0  0.13025  0.03902  0.96544  1.0000
  H   H289      1.0  0.23609  0.25083  0.94467  1.0000
  H   H290      1.0  0.24424  0.19478  0.91804  1.0000
  C   C163      1.0  0.08729  0.00118  0.96341  1.0000
  H   H291      1.0  0.23888  0.27962  0.96936  1.0000
  H   H292      1.0  0.00543  0.99457  0.95509  1.0000
  H   H293      1.0  0.14396  0.30522  0.57294  1.0000
  C   C164      1.0  0.17053  0.24273  0.97271  1.0000
  S   S41       1.0  0.20199  0.12244  0.97281  1.0000
  H   H294      1.0  0.06151  0.08898  0.95879  1.0000
  Fe  Fe20      1.0  0.20379  0.32295  0.52041  1.0000
  C   C165      1.0  0.21815  0.31944  0.62326  1.0000
  H   H295      1.0  0.10985  0.07846  0.48277  1.0000
  H   H296      1.0  0.10475  0.00171  0.72880  1.0000
  C   C166      1.0  0.01427  0.99739  0.71408  1.0000
  H   H297      1.0  0.05165  0.06955  0.94573  1.0000
  H   H298      1.0  0.24488  0.18686  0.49163  1.0000
  S   S42       1.0  0.23117  0.32204  0.80332  1.0000
  H   H299      1.0  0.15806  0.22977  0.49642  1.0000
  H   H300      1.0  0.01297  0.99488  0.60537  1.0000
  S   S43       1.0  0.23473  0.14884  0.78663  1.0000
  H   H301      1.0  0.24231  0.18519  0.77235  1.0000
  C   C167      1.0  0.24341  0.26935  0.67674  1.0000
  C   C168      1.0  0.11767  0.14376  0.47906  1.0000
  H   H302      1.0  0.23519  0.28353  0.82803  1.0000
  H   H303      1.0  0.14077  0.32665  0.87122  1.0000
  H   H304      1.0  0.10262  0.03575  0.97271  1.0000
  H   H305      1.0  0.02631  0.00660  0.52490  1.0000
  H   H306      1.0  0.20539  0.32562  0.84637  1.0000
  H   H307      1.0  0.09840  0.07893  0.95390  1.0000
  H   H308      1.0  0.15669  0.24470  0.96882  1.0000
  H   H309      1.0  0.01082  0.99648  0.66981  1.0000
  C   C169      1.0  0.24000  0.27002  0.83261  1.0000
  C   C170      1.0  0.00049  0.00299  0.80146  1.0000
  H   H310      1.0  0.24166  0.25185  0.86628  1.0000
  H   H311      1.0  0.24536  0.26367  0.72125  1.0000
  H   H312      1.0  0.24521  0.25560  0.66988  1.0000
  Fe  Fe21      1.0  0.07874  0.52104  0.14117  1.0000
  S   S44       1.0  0.07480  0.54942  0.12947  1.0000
  S   S45       1.0  0.07895  0.51632  0.18906  1.0000
  Fe  Fe22      1.0  0.07734  0.51110  0.07899  1.0000
  S   S46       1.0  0.07301  0.53864  0.06400  1.0000
  S   S47       1.0  0.07469  0.48771  0.05032  1.0000
  Fe  Fe23      1.0  0.09427  0.54515  0.09464  1.0000
  S   S48       1.0  0.11449  0.56685  0.08981  1.0000
  Fe  Fe24      1.0  0.05408  0.54090  0.09968  1.0000
  S   S49       1.0  0.02798  0.55603  0.09612  1.0000
  S   S50       1.0  0.09969  0.51713  0.10816  1.0000
  S   S51       1.0  0.05694  0.51303  0.11276  1.0000
  C   C171      1.0  0.01552  0.48691  0.02279  1.0000
  C   C172      1.0  0.01562  0.45313  0.31040  1.0000
  S   S52       1.0  0.15781  0.60985  0.99883  1.0000
  H   H313      1.0  0.02494  0.46872  0.15657  1.0000
  H   H314      1.0  0.00888  0.49450  0.18134  1.0000
  Fe  Fe25      1.0  0.21079  0.64933  0.01144  1.0000
  H   H315      1.0  0.01556  0.50698  0.15272  1.0000
  C   C173      1.0  0.21791  0.65062  0.09030  1.0000
  H   H316      1.0  0.04404  0.52908  0.17715  1.0000
  C   C174      1.0  0.10294  0.43389  0.46312  1.0000
  H   H317      1.0  0.10081  0.37158  0.36503  1.0000
  H   H318      1.0  0.11245  0.42579  0.45125  1.0000
  S   S53       1.0  0.23486  0.64915  0.03928  1.0000
  H   H319      1.0  0.99862  0.47583  0.31052  1.0000
  C   C175      1.0  0.02571  0.61099  0.03759  1.0000
  C   C176      1.0  0.08159  0.60007  0.10717  1.0000
  Fe  Fe26      1.0  0.07680  0.45251  0.33054  1.0000
  S   S54       1.0  0.07348  0.42455  0.34359  1.0000
  S   S55       1.0  0.08008  0.45591  0.28283  1.0000
  Fe  Fe27      1.0  0.07290  0.46418  0.39194  1.0000
  S   S56       1.0  0.06854  0.43720  0.40822  1.0000
  S   S57       1.0  0.07555  0.48856  0.41853  1.0000
  Fe  Fe28      1.0  0.09122  0.42884  0.38070  1.0000
  S   S58       1.0  0.11702  0.41390  0.39402  1.0000
  Fe  Fe29      1.0  0.05118  0.43495  0.37017  1.0000
  S   S59       1.0  0.02566  0.42048  0.36580  1.0000
  S   S60       1.0  0.09605  0.45614  0.36560  1.0000
  S   S61       1.0  0.05390  0.46259  0.35588  1.0000
  H   H320      1.0  0.12385  0.37719  0.03413  1.0000
  H   H321      1.0  0.21350  0.55306  0.37983  1.0000
  C   C177      1.0  0.20188  0.55797  0.36795  1.0000
  N   N10       1.0  0.10751  0.43101  0.99100  1.0000
  C   C178      1.0  0.07167  0.47379  0.47078  1.0000
  N   N11       1.0  0.07435  0.59630  0.02642  1.0000
  H   H322      1.0  0.11993  0.36616  0.28378  1.0000
  H   H323      1.0  0.09845  0.42820  0.04858  1.0000
  S   S62       1.0  0.20447  0.62820  0.98042  1.0000
  S   S63       1.0  0.23198  0.65830  0.17109  1.0000
  H   H324      1.0  0.01637  0.43960  0.30210  1.0000
  C   C179      1.0  0.22248  0.65108  0.37750  1.0000
  C   C180      1.0  0.07943  0.50405  0.46974  1.0000
  C   C181      1.0  0.14754  0.43430  0.45526  1.0000
  C   C182      1.0  0.14215  0.36747  0.44475  1.0000
  C   C183      1.0  0.12396  0.37103  0.44554  1.0000
  C   C184      1.0  0.11603  0.38504  0.43030  1.0000
  C   C185      1.0  0.12618  0.39590  0.41398  1.0000
  C   C186      1.0  0.14439  0.39240  0.41327  1.0000
  C   C187      1.0  0.15230  0.37836  0.42843  1.0000
  H   H325      1.0  0.12056  0.45231  0.42911  1.0000
  H   H326      1.0  0.10205  0.38739  0.43121  1.0000
  H   H327      1.0  0.15247  0.40060  0.40077  1.0000
  H   H328      1.0  0.16628  0.37597  0.42747  1.0000
  H   H329      1.0  0.01576  0.45269  0.33349  1.0000
  H   H330      1.0  0.07313  0.54363  0.00240  1.0000
  H   H331      1.0  0.15010  0.62692  0.38023  1.0000
  H   H332      1.0  0.11160  0.64469  0.02160  1.0000
  H   H333      1.0  0.11982  0.62408  0.00842  1.0000
  C   C188      1.0  0.23984  0.33259  0.34025  1.0000
  H   H334      1.0  0.02610  0.53399  0.15529  1.0000
  H   H335      1.0  0.14157  0.41317  0.32078  1.0000
  H   H336      1.0  0.20392  0.57514  0.46730  1.0000
  H   H337      1.0  0.13182  0.48987  0.44066  1.0000
  H   H338      1.0  0.09543  0.54164  0.99091  1.0000
  H   H339      1.0  0.07231  0.57882  0.06188  1.0000
  H   H340      1.0  0.19112  0.54874  0.37038  1.0000
  H   H341      1.0  0.23674  0.61990  0.18077  1.0000
  C   C189      1.0  0.07899  0.48877  0.01418  1.0000
  C   C190      1.0  0.09054  0.42174  0.47781  1.0000
  C   C191      1.0  0.07209  0.47612  0.99650  1.0000
  C   C192      1.0  0.07535  0.48869  0.45545  1.0000
  C   C193      1.0  0.07353  0.37515  0.35622  1.0000
  H   H342      1.0  0.12382  0.44014  0.32907  1.0000
  H   H343      1.0  0.12653  0.38563  0.35550  1.0000
  H   H344      1.0  0.06831  0.46196  0.46007  1.0000
  H   H345      1.0  0.08224  0.51564  0.45803  1.0000
  H   H346      1.0  0.06370  0.46643  0.00502  1.0000
  C   C194      1.0  0.07928  0.49921  0.21466  1.0000
  C   C195      1.0  0.07943  0.48148  0.20758  1.0000
  C   C196      1.0  0.07965  0.46856  0.22866  1.0000
  C   C197      1.0  0.07960  0.47303  0.25722  1.0000
  C   C198      1.0  0.07928  0.49076  0.26429  1.0000
  C   C199      1.0  0.07911  0.50369  0.24320  1.0000
  H   H347      1.0  0.07955  0.47771  0.18586  1.0000
  H   H348      1.0  0.07993  0.45495  0.22276  1.0000
  H   H349      1.0  0.07929  0.49454  0.28601  1.0000
  H   H350      1.0  0.07901  0.51730  0.24910  1.0000
  C   C200      1.0  0.12697  0.57827  0.06430  1.0000
  C   C201      1.0  0.13471  0.59403  0.07187  1.0000
  C   C202      1.0  0.14435  0.60374  0.05245  1.0000
  C   C203      1.0  0.14638  0.59790  0.02492  1.0000
  C   C204      1.0  0.13859  0.58216  0.01736  1.0000
  C   C205      1.0  0.12915  0.57235  0.03685  1.0000
  H   H351      1.0  0.13326  0.59880  0.09299  1.0000
  H   H352      1.0  0.15014  0.61579  0.05878  1.0000
  C   C206      1.0  0.08815  0.56724  0.00714  1.0000
  H   H353      1.0  0.12385  0.56005  0.03071  1.0000
  C   C207      1.0  0.00755  0.54584  0.09768  1.0000
  H   H354      1.0  0.22831  0.59849  0.18530  1.0000
  H   H355      1.0  0.08263  0.63251  0.02954  1.0000
  H   H356      1.0  0.01821  0.51956  0.09787  1.0000
  H   H357      1.0  0.01372  0.60382  0.04234  1.0000
  H   H358      1.0  0.03666  0.58953  0.01404  1.0000
  S   S64       1.0  0.17211  0.65651  0.46035  1.0000
  H   H359      1.0  0.11586  0.36283  0.45802  1.0000
  H   H360      1.0  0.20136  0.56879  0.42045  1.0000
  C   C208      1.0  0.11075  0.44341  0.01497  1.0000
  H   H361      1.0  0.16671  0.58926  0.45401  1.0000
  Fe  Fe30      1.0  0.20078  0.65260  0.45104  1.0000
  C   C209      1.0  0.10896  0.38809  0.26107  1.0000
  C   C210      1.0  0.09927  0.44182  0.04138  1.0000
  C   C211      1.0  0.10641  0.45258  0.06545  1.0000
  C   C212      1.0  0.00412  0.42821  0.37411  1.0000
  H   H362      1.0  0.09302  0.56362  0.02820  1.0000
  H   H363      1.0  0.12469  0.44236  0.02162  1.0000
  C   C213      1.0  0.24462  0.60371  0.04152  1.0000
  H   H364      1.0  0.07867  0.58659  0.11352  1.0000
  H   H365      1.0  0.23439  0.60345  0.13611  1.0000
  C   C214      1.0  0.22392  0.33687  0.38391  1.0000
  H   H366      1.0  0.20542  0.55850  0.34555  1.0000
  H   H367      1.0  0.07604  0.61809  0.07421  1.0000
  H   H368      1.0  0.09508  0.38486  0.26400  1.0000
  C   C215      1.0  0.01927  0.50330  0.17445  1.0000
  H   H369      1.0  0.11934  0.44717  0.07232  1.0000
  H   H370      1.0  0.10775  0.46638  0.05910  1.0000
  H   H371      1.0  0.09727  0.45230  0.08335  1.0000
  H   H372      1.0  0.09597  0.60120  0.10554  1.0000
  H   H373      1.0  0.01794  0.48845  0.00012  1.0000
  C   C216      1.0  0.12917  0.38022  0.33436  1.0000
  H   H374      1.0  0.09352  0.39378  0.36071  1.0000
  C   C217      1.0  0.23571  0.33233  0.14900  1.0000
  C   C218      1.0  0.02862  0.51548  0.22010  1.0000
  C   C219      1.0  0.02995  0.53302  0.17766  1.0000
  H   H375      1.0  0.09883  0.57312  0.99521  1.0000
  H   H376      1.0  0.01530  0.55763  0.18642  1.0000
  C   C220      1.0  0.03657  0.49226  0.17270  1.0000
  N   N12       1.0  0.12536  0.45826  0.47284  1.0000
  H   H377      1.0  0.06437  0.38414  0.34480  1.0000
  C   C221      1.0  0.02854  0.55176  0.19003  1.0000
  C   C222      1.0  0.04160  0.56369  0.17653  1.0000
  C   C223      1.0  0.03536  0.47778  0.15097  1.0000
  S   S65       1.0  0.20990  0.32882  0.07397  1.0000
  C   C224      1.0  0.21759  0.65265  0.11948  1.0000
  H   H378      1.0  0.02892  0.52733  0.23334  1.0000
  H   H379      1.0  0.04266  0.51181  0.21685  1.0000
  H   H380      1.0  0.10280  0.63609  0.98972  1.0000
  H   H381      1.0  0.12863  0.38386  0.22876  1.0000
  H   H382      1.0  0.05949  0.40538  0.98636  1.0000
  C   C225      1.0  0.23287  0.65625  0.13436  1.0000
  H   H383      1.0  0.00058  0.46503  0.27740  1.0000
  C   C226      1.0  0.14295  0.35501  0.36173  1.0000
  H   H384      1.0  0.03973  0.48596  0.19297  1.0000
  H   H385      1.0  0.04758  0.50048  0.16707  1.0000
  H   H386      1.0  0.13692  0.61589  0.40566  1.0000
  H   H387      1.0  0.20614  0.64746  0.07916  1.0000
  H   H388      1.0  0.14546  0.34067  0.36194  1.0000
  H   H389      1.0  0.19844  0.61774  0.43194  1.0000
  H   H390      1.0  0.21168  0.33904  0.39472  1.0000
  H   H391      1.0  0.03118  0.55188  0.21271  1.0000
  H   H392      1.0  0.23199  0.33299  0.17069  1.0000
  H   H393      1.0  0.03958  0.56421  0.15363  1.0000
  H   H394      1.0  0.03985  0.57710  0.18500  1.0000
  H   H395      1.0  0.08667  0.60841  0.99122  1.0000
  H   H396      1.0  0.03259  0.48333  0.12999  1.0000
  H   H397      1.0  0.04800  0.47028  0.15005  1.0000
  H   H398      1.0  0.02548  0.48681  0.27625  1.0000
  S   S66       1.0  0.18335  0.65305  0.02711  1.0000
  H   H399      1.0  0.14011  0.57736  0.99626  1.0000
  H   H400      1.0  0.05833  0.61939  0.03621  1.0000
  H   H401      1.0  0.09503  0.44173  0.44808  1.0000
  H   H402      1.0  0.14520  0.43768  0.43308  1.0000
  Fe  Fe31      1.0  0.17650  0.63298  0.99477  1.0000
  C   C227      1.0  0.16397  0.61929  0.41829  1.0000
  C   C228      1.0  0.14741  0.62536  0.40281  1.0000
  H   H403      1.0  0.00105  0.53698  0.21291  1.0000
  C   C229      1.0  0.12610  0.38550  0.01566  1.0000
  H   H404      1.0  0.10855  0.45724  0.00819  1.0000
  H   H405      1.0  0.11965  0.40901  0.03798  1.0000
  H   H406      1.0  0.13600  0.35873  0.38125  1.0000
  H   H407      1.0  0.10157  0.39944  0.01982  1.0000
  C   C230      1.0  0.07843  0.59130  0.05625  1.0000
  H   H408      1.0  0.15353  0.45979  0.47156  1.0000
  H   H409      1.0  0.11605  0.43978  0.29340  1.0000
  C   C231      1.0  0.21800  0.64843  0.34930  1.0000
  H   H410      1.0  0.13441  0.41273  0.28499  1.0000
  C   C232      1.0  0.08927  0.60594  0.01377  1.0000
  H   H411      1.0  0.10742  0.46960  0.44263  1.0000
  H   H412      1.0  0.01649  0.48983  0.22606  1.0000
  Fe  Fe32      1.0  0.21667  0.33050  0.46086  1.0000
  C   C233      1.0  0.12091  0.46371  0.44335  1.0000
  H   H413      1.0  0.05608  0.61192  0.00180  1.0000
  C   C234      1.0  0.09405  0.62337  0.02767  1.0000
  H   H414      1.0  0.06147  0.57205  0.01833  1.0000
  C   C235      1.0  0.22276  0.33086  0.12804  1.0000
  H   H415      1.0  0.10269  0.41150  0.30313  1.0000
  H   H416      1.0  0.18456  0.56319  0.46117  1.0000
  C   C236      1.0  0.09239  0.38048  0.35221  1.0000
  C   C237      1.0  0.07202  0.57992  0.00937  1.0000
  C   C238      1.0  0.13315  0.47705  0.42998  1.0000
  C   C239      1.0  0.23958  0.33631  0.39891  1.0000
  H   H417      1.0  0.08727  0.38687  0.30913  1.0000
  C   C240      1.0  0.11488  0.38057  0.23301  1.0000
  C   C241      1.0  0.12856  0.48018  0.39938  1.0000
  H   H418      1.0  0.07016  0.37580  0.37871  1.0000
  H   H419      1.0  0.23420  0.39138  0.31448  1.0000
  H   H420      1.0  0.20919  0.33031  0.13400  1.0000
  H   H421      1.0  0.03763  0.50639  0.27333  1.0000
  C   C242      1.0  0.00124  0.52578  0.19811  1.0000
  H   H422      1.0  0.20548  0.65112  0.13062  1.0000
  H   H423      1.0  0.11374  0.36618  0.23271  1.0000
  H   H424      1.0  0.22349  0.58605  0.42266  1.0000
  H   H425      1.0  0.13431  0.38354  0.28078  1.0000
  H   H426      1.0  0.23070  0.62435  0.43588  1.0000
  H   H427      1.0  0.13883  0.44265  0.30069  1.0000
  H   H428      1.0  0.06783  0.58333  0.98773  1.0000
  H   H429      1.0  0.14698  0.47238  0.43091  1.0000
  H   H430      1.0  0.04352  0.48739  0.25253  1.0000
  H   H431      1.0  0.04268  0.58948  0.05016  1.0000
  S   S67       1.0  0.23930  0.33037  0.30358  1.0000
  H   H432      1.0  0.09678  0.36586  0.31411  1.0000
  C   C243      1.0  0.18954  0.57571  0.46910  1.0000
  C   C244      1.0  0.00642  0.52770  0.09853  1.0000
  H   H433      1.0  0.13051  0.46796  0.38719  1.0000
  H   H434      1.0  0.11479  0.48503  0.39727  1.0000
  H   H435      1.0  0.13715  0.49015  0.39059  1.0000
  H   H436      1.0  0.07181  0.36160  0.34877  1.0000
  S   S68       1.0  0.20836  0.34756  0.99268  1.0000
  N   N13       1.0  0.18652  0.59338  0.42241  1.0000
  C   C245      1.0  0.19068  0.57588  0.40914  1.0000
  C   C246      1.0  0.17122  0.60159  0.40672  1.0000
  C   C247      1.0  0.23354  0.65229  0.07575  1.0000
  C   C248      1.0  0.02009  0.50142  0.23832  1.0000
  C   C249      1.0  0.19614  0.57618  0.37802  1.0000
  H   H437      1.0  0.10975  0.40248  0.25971  1.0000
  H   H438      1.0  0.14277  0.63818  0.41126  1.0000
  C   C250      1.0  0.21937  0.59873  0.43200  1.0000
  H   H439      1.0  0.17916  0.56745  0.41085  1.0000
  H   H440      1.0  0.11109  0.41061  0.33716  1.0000
  H   H441      1.0  0.16023  0.59242  0.40595  1.0000
  H   H442      1.0  0.17478  0.60426  0.38473  1.0000
  C   C251      1.0  0.24007  0.60573  0.17952  1.0000
  H   H443      1.0  0.09517  0.51111  0.01641  1.0000
  C   C252      1.0  0.05773  0.60728  0.02368  1.0000
  S   S69       1.0  0.20605  0.64878  0.40374  1.0000
  H   H444      1.0  0.18505  0.58062  0.36460  1.0000
  H   H445      1.0  0.02743  0.45992  0.30352  1.0000
  C   C253      1.0  0.23935  0.37780  0.31154  1.0000
  H   H446      1.0  0.02883  0.61920  0.05592  1.0000
  C   C254      1.0  0.13044  0.41616  0.30655  1.0000
  N   N14       1.0  0.01972  0.51939  0.19261  1.0000
  H   H447      1.0  0.02310  0.61947  0.01922  1.0000
  C   C255      1.0  0.18106  0.59117  0.45252  1.0000
  H   H448      1.0  0.10652  0.38621  0.21612  1.0000
  S   S70       1.0  0.23986  0.33923  0.43551  1.0000
  H   H449      1.0  0.17544  0.43861  0.45148  1.0000
  C   C256      1.0  0.12046  0.38062  0.28520  1.0000
  H   H450      1.0  0.20473  0.64531  0.34403  1.0000
  H   H451      1.0  0.10160  0.59792  0.01482  1.0000
  H   H452      1.0  0.11929  0.35342  0.33814  1.0000
  H   H453      1.0  0.16912  0.41668  0.44405  1.0000
  C   C257      1.0  0.03245  0.49519  0.26152  1.0000
  H   H454      1.0  0.21868  0.59749  0.45496  1.0000
  C   C258      1.0  0.09772  0.37965  0.32101  1.0000
  H   H455      1.0  0.14030  0.38792  0.01436  1.0000
  C   C259      1.0  0.11401  0.40633  0.31558  1.0000
  Fe  Fe33      1.0  0.20386  0.32766  0.02644  1.0000
  C   C260      1.0  0.11551  0.40268  0.01835  1.0000
  H   H456      1.0  0.08580  0.44690  0.03683  1.0000
  H   H457      1.0  0.00808  0.50700  0.24825  1.0000
  N   N15       1.0  0.11537  0.38668  0.31404  1.0000
  C   C261      1.0  0.04075  0.59795  0.03160  1.0000
  C   C262      1.0  0.07281  0.60456  0.07936  1.0000
  H   H458      1.0  0.08357  0.42147  0.00887  1.0000
  H   H459      1.0  0.20721  0.58487  0.37466  1.0000
  H   H460      1.0  0.08441  0.41316  0.46215  1.0000
  H   H461      1.0  0.12210  0.37827  0.99672  1.0000
  H   H462      1.0  0.09979  0.62080  0.04860  1.0000
  C   C263      1.0  0.24477  0.33121  0.09231  1.0000
  C   C264      1.0  0.08967  0.50139  0.00292  1.0000
  C   C265      1.0  0.12701  0.43587  0.30751  1.0000
  H   H463      1.0  0.07673  0.60920  0.12358  1.0000
  H   H464      1.0  0.15570  0.36149  0.36121  1.0000
  H   H465      1.0  0.02046  0.49842  0.03410  1.0000
  H   H466      1.0  0.13864  0.35506  0.31749  1.0000
  C   C266      1.0  0.23048  0.64976  0.32776  1.0000
  C   C267      1.0  0.13181  0.36012  0.33637  1.0000
  H   H467      1.0  0.22673  0.64765  0.30630  1.0000
  H   H468      1.0  0.17368  0.62951  0.41548  1.0000
  H   H469      1.0  0.16070  0.61851  0.44071  1.0000
  C   C268      1.0  0.11899  0.41474  0.99339  1.0000
  H   H470      1.0  0.14215  0.38516  0.32870  1.0000
  H   H471      1.0  0.08047  0.43913  0.98572  1.0000
  C   C269      1.0  0.22407  0.33505  0.35472  1.0000
  H   H472      1.0  0.20343  0.60975  0.39844  1.0000
  C   C270      1.0  0.20156  0.60550  0.42038  1.0000
  C   C271      1.0  0.14344  0.44992  0.47494  1.0000
  H   H473      1.0  0.09265  0.58856  0.05850  1.0000
  H   H474      1.0  0.23227  0.61063  0.04777  1.0000
  H   H475      1.0  0.05849  0.60434  0.08262  1.0000
  H   H476      1.0  0.01172  0.45119  0.39617  1.0000
  C   C272      1.0  0.22709  0.33041  0.09947  1.0000
  H   H477      1.0  0.02304  0.47516  0.03011  1.0000
  H   H478      1.0  0.13958  0.42311  0.46091  1.0000
  C   C273      1.0  0.08839  0.42688  0.98908  1.0000
  H   H479      1.0  0.18329  0.60334  0.46451  1.0000
  C   C274      1.0  0.23371  0.61155  0.42583  1.0000
  Fe  Fe34      1.0  0.17782  0.33465  0.47291  1.0000
  C   C275      1.0  0.99914  0.46293  0.30017  1.0000
  C   C276      1.0  0.16665  0.42812  0.45787  1.0000
  C   C277      1.0  0.10788  0.63257  0.01074  1.0000
  H   H480      1.0  0.23729  0.37396  0.28947  1.0000
  H   H481      1.0  0.13295  0.41810  0.99521  1.0000
  C   C278      1.0  0.99606  0.48485  0.02842  1.0000
  H   H482      1.0  0.21187  0.33568  0.34327  1.0000
  C   C279      1.0  0.00088  0.44354  0.38938  1.0000
  H   H483      1.0  0.23505  0.61353  0.40301  1.0000
  C   C280      1.0  0.23975  0.65511  0.38379  1.0000
  H   H484      1.0  0.05517  0.55897  0.18114  1.0000
  S   S71       1.0  0.15135  0.34965  0.46514  1.0000
  H   H485      1.0  0.24352  0.65712  0.40525  1.0000
  C   C281      1.0  0.99561  0.49188  0.47744  1.0000
  H   H486      1.0  0.23193  0.36892  0.32495  1.0000
  C   C282      1.0  0.08369  0.55052  0.99166  1.0000
  Fe  Fe35      1.0  0.18028  0.34452  0.97866  1.0000
  H   H487      1.0  0.13461  0.45479  0.98097  1.0000
  H   H488      1.0  0.24275  0.58943  0.04218  1.0000
  H   H489      1.0  0.24487  0.61585  0.09647  1.0000
  H   H490      1.0  0.99699  0.54059  0.15891  1.0000
  Fe  Fe36      1.0  0.07838  0.52273  0.64060  1.0000
  S   S72       1.0  0.07484  0.55118  0.62920  1.0000
  S   S73       1.0  0.07310  0.51578  0.68693  1.0000
  Fe  Fe37      1.0  0.07904  0.51308  0.57811  1.0000
  S   S74       1.0  0.07492  0.54068  0.56314  1.0000
  S   S75       1.0  0.07941  0.48869  0.55104  1.0000
  Fe  Fe38      1.0  0.09517  0.54723  0.59545  1.0000
  S   S76       1.0  0.11598  0.56854  0.59110  1.0000
  Fe  Fe39      1.0  0.05507  0.54290  0.59763  1.0000
  S   S77       1.0  0.02918  0.55848  0.59544  1.0000
  S   S78       1.0  0.10032  0.51914  0.60919  1.0000
  S   S79       1.0  0.05764  0.51492  0.61006  1.0000
  Fe  Fe40      1.0  0.17554  0.63917  0.49812  1.0000
  H   H491      1.0  0.06640  0.55740  0.50798  1.0000
  S   S80       1.0  0.15619  0.61644  0.50242  1.0000
  Fe  Fe41      1.0  0.20019  0.65014  0.94937  1.0000
  H   H492      1.0  0.08813  0.57212  0.53936  1.0000
  H   H493      1.0  0.20528  0.65923  0.84284  1.0000
  H   H494      1.0  0.01491  0.44417  0.79610  1.0000
  S   S81       1.0  0.20401  0.63373  0.48721  1.0000
  C   C283      1.0  0.07586  0.47599  0.96782  1.0000
  C   C284      1.0  0.17893  0.35934  0.56435  1.0000
  H   H495      1.0  0.06599  0.58945  0.63731  1.0000
  S   S82       1.0  0.16603  0.37033  0.96446  1.0000
  H   H496      1.0  0.23333  0.58673  0.63792  1.0000
  C   C285      1.0  0.08421  0.62388  0.51723  1.0000
  C   C286      1.0  0.13956  0.39640  0.50379  1.0000
  H   H497      1.0  0.08671  0.41822  0.94511  1.0000
  Fe  Fe42      1.0  0.08397  0.45537  0.83053  1.0000
  S   S83       1.0  0.06964  0.43084  0.84032  1.0000
  S   S84       1.0  0.09395  0.46286  0.78679  1.0000
  Fe  Fe43      1.0  0.08367  0.46622  0.89261  1.0000
  S   S85       1.0  0.06890  0.44301  0.90614  1.0000
  S   S86       1.0  0.09264  0.48797  0.92087  1.0000
  Fe  Fe44      1.0  0.08768  0.42772  0.87815  1.0000
  S   S87       1.0  0.10062  0.40134  0.89248  1.0000
  Fe  Fe45      1.0  0.05221  0.44793  0.86780  1.0000
  S   S88       1.0  0.02277  0.45485  0.86623  1.0000
  S   S89       1.0  0.10308  0.45096  0.86623  1.0000
  S   S90       1.0  0.06611  0.47237  0.85632  1.0000
  H   H498      1.0  0.20077  0.38168  0.84584  1.0000
  H   H499      1.0  0.21796  0.37959  0.58064  1.0000
  H   H500      1.0  0.20756  0.64500  0.57985  1.0000
  H   H501      1.0  0.01332  0.41800  0.87114  1.0000
  C   C287      1.0  0.12613  0.47192  0.52262  1.0000
  H   H502      1.0  0.10053  0.63899  0.49005  1.0000
  C   C288      1.0  0.03716  0.60805  0.56798  1.0000
  C   C289      1.0  0.14391  0.39439  0.61931  1.0000
  C   C290      1.0  0.02170  0.62115  0.56779  1.0000
  C   C291      1.0  0.08518  0.61459  0.54590  1.0000
  H   H503      1.0  0.18501  0.35258  0.54609  1.0000
  H   H504      1.0  0.13797  0.46407  0.52847  1.0000
  C   C292      1.0  0.23724  0.59853  0.64949  1.0000
  C   C293      1.0  0.00711  0.43243  0.79234  1.0000
  C   C294      1.0  0.14774  0.37854  0.94426  1.0000
  C   C295      1.0  0.14646  0.39650  0.93791  1.0000
  C   C296      1.0  0.13241  0.40364  0.92183  1.0000
  C   C297      1.0  0.11908  0.39305  0.91230  1.0000
  C   C298      1.0  0.12043  0.37509  0.91854  1.0000
  C   C299      1.0  0.13462  0.36788  0.93424  1.0000
  H   H505      1.0  0.15652  0.40493  0.94529  1.0000
  H   H506      1.0  0.13193  0.41735  0.91673  1.0000
  H   H507      1.0  0.11033  0.36665  0.91127  1.0000
  H   H508      1.0  0.13527  0.35408  0.93884  1.0000
  C   C300      1.0  0.00157  0.42615  0.87269  1.0000
  H   H509      1.0  0.09743  0.60635  0.54701  1.0000
  H   H510      1.0  0.21103  0.35891  0.59328  1.0000
  H   H511      1.0  0.02468  0.63279  0.58051  1.0000
  H   H512      1.0  0.08032  0.60555  0.65095  1.0000
  C   C301      1.0  0.21538  0.37764  0.93546  1.0000
  C   C302      1.0  0.07808  0.59660  0.63319  1.0000
  H   H513      1.0  0.00492  0.48178  0.69971  1.0000
  N   N16       1.0  0.06959  0.60408  0.55347  1.0000
  H   H514      1.0  0.13742  0.34951  0.54480  1.0000
  C   C303      1.0  0.01244  0.48581  0.74216  1.0000
  H   H515      1.0  0.18973  0.58925  0.50917  1.0000
  H   H516      1.0  0.21624  0.36404  0.89661  1.0000
  H   H517      1.0  0.15909  0.42777  0.84455  1.0000
  C   C304      1.0  0.07682  0.48943  0.51438  1.0000
  C   C305      1.0  0.07238  0.47420  0.50011  1.0000
  H   H518      1.0  0.24295  0.35982  0.82367  1.0000
  C   C306      1.0  0.08685  0.48834  0.95660  1.0000
  H   H519      1.0  0.11211  0.62169  0.50828  1.0000
  C   C307      1.0  0.08015  0.50444  0.49908  1.0000
  H   H520      1.0  0.06966  0.46257  0.51181  1.0000
  H   H521      1.0  0.14214  0.40832  0.51608  1.0000
  H   H522      1.0  0.07033  0.46627  0.95446  1.0000
  H   H523      1.0  0.08363  0.51624  0.50981  1.0000
  C   C308      1.0  0.07850  0.50009  0.71355  1.0000
  C   C309      1.0  0.09293  0.48846  0.71173  1.0000
  C   C310      1.0  0.09718  0.47704  0.73409  1.0000
  C   C311      1.0  0.08703  0.47683  0.75853  1.0000
  C   C312      1.0  0.07228  0.48811  0.76002  1.0000
  C   C313      1.0  0.06820  0.49975  0.73788  1.0000
  H   H524      1.0  0.10104  0.48850  0.69334  1.0000
  H   H525      1.0  0.10858  0.46839  0.73250  1.0000
  H   H526      1.0  0.06413  0.48802  0.77836  1.0000
  H   H527      1.0  0.05703  0.50865  0.73969  1.0000
  C   C314      1.0  0.12704  0.58165  0.56592  1.0000
  C   C315      1.0  0.13693  0.59573  0.57527  1.0000
  C   C316      1.0  0.14592  0.60645  0.55642  1.0000
  C   C317      1.0  0.14515  0.60337  0.52765  1.0000
  C   C318      1.0  0.13520  0.58934  0.51827  1.0000
  C   C319      1.0  0.12637  0.57852  0.53714  1.0000
  H   H528      1.0  0.13774  0.59834  0.59739  1.0000
  H   H529      1.0  0.15345  0.61710  0.56421  1.0000
  H   H530      1.0  0.01475  0.50388  0.63210  1.0000
  H   H531      1.0  0.11926  0.56758  0.52940  1.0000
  C   C320      1.0  0.07624  0.60705  0.60626  1.0000
  H   H532      1.0  0.24285  0.33273  0.56921  1.0000
  H   H533      1.0  0.15231  0.32994  0.90348  1.0000
  H   H534      1.0  0.01929  0.52270  0.58454  1.0000
  C   C321      1.0  0.15874  0.37661  0.53441  1.0000
  H   H535      1.0  0.03335  0.59650  0.55572  1.0000
  C   C322      1.0  0.00758  0.53040  0.58923  1.0000
  C   C323      1.0  0.06366  0.41087  0.96614  1.0000
  H   H536      1.0  0.15763  0.38620  0.88564  1.0000
  C   C324      1.0  0.05376  0.61621  0.55574  1.0000
  H   H537      1.0  0.18659  0.37997  0.59309  1.0000
  N   N17       1.0  0.15994  0.36378  0.55818  1.0000
  H   H538      1.0  0.14613  0.35767  0.87805  1.0000
  C   C325      1.0  0.10162  0.63197  0.51022  1.0000
  H   H539      1.0  0.13029  0.38224  0.53925  1.0000
  H   H540      1.0  0.20595  0.38144  0.95214  1.0000
  H   H541      1.0  0.13912  0.49612  0.53234  1.0000
  H   H542      1.0  0.11060  0.43164  0.94599  1.0000
  H   H543      1.0  0.11738  0.43810  0.50147  1.0000
  C   C326      1.0  0.12490  0.47461  0.49056  1.0000
  H   H544      1.0  0.22848  0.65805  0.80663  1.0000
  C   C327      1.0  0.09364  0.50111  0.97425  1.0000
  H   H545      1.0  0.10538  0.64139  0.52660  1.0000
  H   H546      1.0  0.05000  0.55170  0.68346  1.0000
  N   N18       1.0  0.01226  0.51378  0.67413  1.0000
  H   H547      1.0  0.17066  0.57651  0.50301  1.0000
  C   C328      1.0  0.02509  0.52771  0.66725  1.0000
  H   H548      1.0  0.22565  0.36883  0.94466  1.0000
  H   H549      1.0  0.14753  0.46153  0.93524  1.0000
  C   C329      1.0  0.03310  0.48844  0.65757  1.0000
  H   H550      1.0  0.12676  0.48730  0.56065  1.0000
  H   H551      1.0  0.06522  0.61658  0.60911  1.0000
  H   H552      1.0  0.19836  0.39204  0.89130  1.0000
  H   H553      1.0  0.21459  0.36204  0.55638  1.0000
  C   C330      1.0  0.03564  0.47488  0.63443  1.0000
  C   C331      1.0  0.03729  0.55762  0.67646  1.0000
  S   S91       1.0  0.20492  0.65240  0.90178  1.0000
  H   H554      1.0  0.13448  0.58668  0.49617  1.0000
  C   C332      1.0  0.13370  0.45780  0.93675  1.0000
  H   H555      1.0  0.18459  0.34457  0.88230  1.0000
  H   H556      1.0  0.02484  0.53062  0.64450  1.0000
  H   H557      1.0  0.03863  0.52308  0.67179  1.0000
  H   H558      1.0  0.02966  0.50512  0.70724  1.0000
  H   H559      1.0  0.07171  0.57254  0.48070  1.0000
  H   H560      1.0  0.13596  0.36914  0.50971  1.0000
  H   H561      1.0  0.08534  0.58657  0.57896  1.0000
  H   H562      1.0  0.04443  0.49694  0.65717  1.0000
  H   H563      1.0  0.03344  0.48138  0.67773  1.0000
  C   C333      1.0  0.22241  0.65200  0.87693  1.0000
  H   H564      1.0  0.11452  0.46528  0.53062  1.0000
  H   H565      1.0  0.11552  0.49802  0.53221  1.0000
  H   H566      1.0  0.14911  0.40845  0.83146  1.0000
  S   S92       1.0  0.17179  0.65360  0.96168  1.0000
  H   H567      1.0  0.14593  0.44503  0.49641  1.0000
  C   C334      1.0  0.07336  0.59496  0.58075  1.0000
  S   S93       1.0  0.20142  0.34676  0.49245  1.0000
  C   C335      1.0  0.15728  0.34907  0.87126  1.0000
  C   C336      1.0  0.20970  0.36834  0.57584  1.0000
  H   H568      1.0  0.04836  0.46774  0.63740  1.0000
  H   H569      1.0  0.24114  0.38325  0.82103  1.0000
  H   H570      1.0  0.18018  0.34993  0.58191  1.0000
  H   H571      1.0  0.03507  0.57017  0.68763  1.0000
  C   C337      1.0  0.02243  0.54544  0.68268  1.0000
  H   H572      1.0  0.22884  0.60983  0.64273  1.0000
  C   C338      1.0  0.16659  0.38488  0.86751  1.0000
  C   C339      1.0  0.19065  0.37459  0.57258  1.0000
  C   C340      1.0  0.20612  0.36818  0.91192  1.0000
  H   H573      1.0  0.14565  0.41522  0.86717  1.0000
  H   H574      1.0  0.16419  0.38928  0.54034  1.0000
  C   C341      1.0  0.11224  0.44021  0.96437  1.0000
  H   H575      1.0  0.24299  0.64464  0.90555  1.0000
  H   H576      1.0  0.19033  0.38503  0.55669  1.0000
  H   H577      1.0  0.13666  0.36657  0.58379  1.0000
  C   C342      1.0  0.21883  0.64876  0.59179  1.0000
  C   C343      1.0  0.18603  0.36255  0.82313  1.0000
  H   H578      1.0  0.16700  0.37180  0.51666  1.0000
  H   H579      1.0  0.01242  0.51916  0.71850  1.0000
  H   H580      1.0  0.15625  0.36355  0.60286  1.0000
  C   C344      1.0  0.00491  0.49280  0.71464  1.0000
  H   H581      1.0  0.16322  0.39595  0.58732  1.0000
  H   H582      1.0  0.19126  0.56580  0.51145  1.0000
  H   H583      1.0  0.13024  0.45047  0.91765  1.0000
  H   H584      1.0  0.20922  0.63869  0.63060  1.0000
  C   C345      1.0  0.07667  0.56586  0.49979  1.0000
  H   H585      1.0  0.08995  0.40075  0.96960  1.0000
  H   H586      1.0  0.20054  0.35633  0.92104  1.0000
  H   H587      1.0  0.14941  0.39488  0.48695  1.0000
  H   H588      1.0  0.00530  0.48911  0.65515  1.0000
  C   C346      1.0  0.21982  0.64519  0.62056  1.0000
  H   H589      1.0  0.15299  0.38849  0.63503  1.0000
  C   C347      1.0  0.01553  0.49891  0.65391  1.0000
  H   H590      1.0  0.06293  0.58571  0.58585  1.0000
  C   C348      1.0  0.15061  0.37025  0.58414  1.0000
  C   C349      1.0  0.08198  0.57923  0.52165  1.0000
  H   H591      1.0  0.03929  0.60391  0.58990  1.0000
  H   H592      1.0  0.05674  0.62794  0.56833  1.0000
  C   C350      1.0  0.15030  0.39022  0.58983  1.0000
  C   C351      1.0  0.17153  0.40354  0.85893  1.0000
  H   H593      1.0  0.09201  0.58731  0.51194  1.0000
  H   H594      1.0  0.07404  0.63453  0.51761  1.0000
  H   H595      1.0  0.12539  0.46991  0.93803  1.0000
  H   H596      1.0  0.02212  0.54375  0.70556  1.0000
  H   H597      1.0  0.02507  0.46533  0.63489  1.0000
  C   C352      1.0  0.00271  0.44430  0.87154  1.0000
  H   H598      1.0  0.02614  0.48091  0.73932  1.0000
  H   H599      1.0  0.05008  0.62141  0.53482  1.0000
  C   C353      1.0  0.06598  0.59047  0.53159  1.0000
  H   H600      1.0  0.18076  0.40321  0.84118  1.0000
  H   H601      1.0  0.20447  0.35988  0.85619  1.0000
  N   N19       1.0  0.10693  0.51366  0.82515  1.0000
  C   C354      1.0  0.11132  0.50046  0.84758  1.0000
  C   C355      1.0  0.08762  0.51319  0.81890  1.0000
  C   C356      1.0  0.11655  0.50787  0.79906  1.0000
  C   C357      1.0  0.11219  0.53190  0.83273  1.0000
  C   C358      1.0  0.11195  0.53687  0.86420  1.0000
  C   C359      1.0  0.13114  0.49710  0.85308  1.0000
  C   C360      1.0  0.11237  0.51854  0.77224  1.0000
  C   C361      1.0  0.07504  0.51897  0.84256  1.0000
  C   C362      1.0  0.05600  0.51736  0.83346  1.0000
  C   C363      1.0  0.11413  0.55643  0.86829  1.0000
  C   C364      1.0  0.13460  0.48953  0.88205  1.0000
  C   C365      1.0  0.12558  0.51429  0.74923  1.0000
  H   H602      1.0  0.10583  0.48761  0.84207  1.0000
  H   H603      1.0  0.10488  0.50403  0.86755  1.0000
  H   H604      1.0  0.08408  0.52184  0.80111  1.0000
  H   H605      1.0  0.08423  0.49975  0.81247  1.0000
  H   H606      1.0  0.11398  0.49397  0.79429  1.0000
  H   H607      1.0  0.13091  0.50838  0.80232  1.0000
  H   H608      1.0  0.12573  0.53427  0.82555  1.0000
  H   H609      1.0  0.10384  0.54168  0.82128  1.0000
  H   H610      1.0  0.12288  0.53007  0.87539  1.0000
  H   H611      1.0  0.09977  0.53329  0.87471  1.0000
  H   H612      1.0  0.13646  0.48760  0.83751  1.0000
  H   H613      1.0  0.13856  0.50920  0.85112  1.0000
  H   H614      1.0  0.11245  0.53277  0.77631  1.0000
  H   H615      1.0  0.09935  0.51527  0.76393  1.0000
  H   H616      1.0  0.07711  0.51094  0.86155  1.0000
  H   H617      1.0  0.07674  0.53290  0.84769  1.0000
  H   H618      1.0  0.04723  0.52088  0.85113  1.0000
  H   H619      1.0  0.05290  0.52628  0.81580  1.0000
  H   H620      1.0  0.05337  0.50381  0.82695  1.0000
  H   H621      1.0  0.12657  0.56056  0.85894  1.0000
  H   H622      1.0  0.10304  0.56394  0.85863  1.0000
  H   H623      1.0  0.11440  0.55951  0.89092  1.0000
  H   H624      1.0  0.14879  0.48673  0.88491  1.0000
  H   H625      1.0  0.13013  0.49890  0.89843  1.0000
  H   H626      1.0  0.12761  0.47723  0.88460  1.0000
  H   H627      1.0  0.12155  0.52119  0.72979  1.0000
  H   H628      1.0  0.13877  0.51855  0.75532  1.0000
  H   H629      1.0  0.12619  0.50006  0.74485  1.0000
  H   H630      1.0  0.14333  0.40873  0.62256  1.0000
  H   H631      1.0  0.10080  0.45383  0.49345  1.0000
  H   H632      1.0  0.08709  0.62511  0.56147  1.0000
  C   C366      1.0  0.00877  0.54813  0.59537  1.0000
  H   H633      1.0  0.01214  0.49618  0.75836  1.0000
  H   H634      1.0  0.08001  0.42941  0.48859  1.0000
  C   C367      1.0  0.15534  0.41435  0.85000  1.0000
  H   H635      1.0  0.14128  0.39715  0.57517  1.0000
  H   H636      1.0  0.08942  0.58723  0.63187  1.0000
  H   H637      1.0  0.18263  0.38458  0.91526  1.0000
  H   H638      1.0  0.13063  0.38939  0.62256  1.0000
  S   S94       1.0  0.23568  0.64398  0.67202  1.0000
  H   H639      1.0  0.15715  0.34309  0.52774  1.0000
  C   C368      1.0  0.01548  0.50825  0.70392  1.0000
  H   H640      1.0  0.17751  0.41047  0.87670  1.0000
  H   H641      1.0  0.05629  0.58118  0.53948  1.0000
  H   H642      1.0  0.17440  0.37038  0.81629  1.0000
  H   H643      1.0  0.03794  0.56037  0.65383  1.0000
  C   C369      1.0  0.21860  0.65593  0.84880  1.0000
  H   H644      1.0  0.00504  0.42578  0.81254  1.0000
  H   H645      1.0  0.19381  0.35705  0.78043  1.0000
  C   C370      1.0  0.23446  0.64979  0.63632  1.0000
  C   C371      1.0  0.17451  0.35522  0.88465  1.0000
  H   H646      1.0  0.05976  0.59653  0.51282  1.0000
  C   C372      1.0  0.19170  0.38018  0.89834  1.0000
  H   H647      1.0  0.09770  0.41340  0.49318  1.0000
  H   H648      1.0  0.10216  0.51071  0.96578  1.0000
  H   H649      1.0  0.15764  0.34929  0.84825  1.0000
  H   H650      1.0  0.22167  0.38947  0.92753  1.0000
  H   H651      1.0  0.01472  0.42337  0.77857  1.0000
  H   H652      1.0  0.08820  0.55744  0.49410  1.0000
  C   C373      1.0  0.15167  0.34722  0.54835  1.0000
  H   H653      1.0  0.08104  0.61483  0.50007  1.0000
  H   H654      1.0  0.17160  0.35592  0.90741  1.0000
  H   H655      1.0  0.18252  0.34875  0.82582  1.0000
  Fe  Fe46      1.0  0.20900  0.65754  0.51361  1.0000
  C   C374      1.0  0.23259  0.65685  0.57849  1.0000
  H   H656      1.0  0.03576  0.48129  0.61369  1.0000
  H   H657      1.0  0.01006  0.55216  0.67599  1.0000
  C   C375      1.0  0.23975  0.64771  0.88413  1.0000
  H   H658      1.0  0.10317  0.45165  0.96083  1.0000
  S   S95       1.0  0.23263  0.66050  0.54208  1.0000
  H   H659      1.0  0.20275  0.37660  0.79473  1.0000
  H   H660      1.0  0.15838  0.37979  0.85048  1.0000
  H   H661      1.0  0.08845  0.61426  0.60380  1.0000
  N   N20       1.0  0.18152  0.37232  0.87464  1.0000
  H   H662      1.0  0.12648  0.39793  0.49393  1.0000
  C   C376      1.0  0.19935  0.36297  0.79951  1.0000
  C   C377      1.0  0.15337  0.33057  0.88040  1.0000
  C   C378      1.0  0.19390  0.36950  0.85053  1.0000
  H   H663      1.0  0.21143  0.35540  0.80522  1.0000
  H   H664      1.0  0.01008  0.61499  0.57681  1.0000
  C   C379      1.0  0.12696  0.48943  0.53777  1.0000
  H   H665      1.0  0.06037  0.40158  0.94928  1.0000
  H   H666      1.0  0.00464  0.47482  0.74960  1.0000
  C   C380      1.0  0.14010  0.38032  0.52252  1.0000
  H   H667      1.0  0.00699  0.48293  0.48180  1.0000
  H   H668      1.0  0.15037  0.33495  0.58993  1.0000
  H   H669      1.0  0.14072  0.43550  0.96143  1.0000
  C   C381      1.0  0.11184  0.44616  0.48410  1.0000
  C   C382      1.0  0.18501  0.57694  0.50005  1.0000
  H   H670      1.0  0.99972  0.50549  0.48064  1.0000
  H   H671      1.0  0.13578  0.48316  0.48492  1.0000
  H   H672      1.0  0.11261  0.48242  0.48646  1.0000
  H   H673      1.0  0.01847  0.62527  0.54615  1.0000
  H   H674      1.0  0.07952  0.55349  0.96995  1.0000
  H   H675      1.0  0.23500  0.59644  0.67208  1.0000
  C   C383      1.0  0.08331  0.41364  0.96616  1.0000
  C   C384      1.0  0.13122  0.44670  0.96270  1.0000
  H   H676      1.0  0.16974  0.42414  0.47962  1.0000
  H   H677      1.0  0.05633  0.42338  0.96224  1.0000
  C   C385      1.0  0.23177  0.65527  0.82813  1.0000
  H   H678      1.0  0.11819  0.40689  0.97399  1.0000
  C   C386      1.0  0.15363  0.33129  0.56814  1.0000
  C   C387      1.0  0.23920  0.32955  0.59030  1.0000
  Fe  Fe47      1.0  0.05074  0.94755  0.09792  1.0000
  S   S96       1.0  0.06135  0.97364  0.10963  1.0000
  S   S97       1.0  0.02095  0.95235  0.09705  1.0000
  Fe  Fe48      1.0  0.08833  0.93067  0.09356  1.0000
  S   S98       1.0  0.10012  0.95600  0.10672  1.0000
  S   S99       1.0  0.11008  0.90923  0.08616  1.0000
  Fe  Fe49      1.0  0.07907  0.95905  0.13934  1.0000
  S   S100      1.0  0.08347  0.96486  0.18637  1.0000
  Fe  Fe50      1.0  0.08116  0.96833  0.07610  1.0000
  C   C388      1.0  0.23309  0.78894  0.04480  1.0000
  S   S101      1.0  0.06823  0.93284  0.12848  1.0000
  S   S102      1.0  0.06975  0.94327  0.06215  1.0000
  H   H679      1.0  0.11681  0.94186  0.05724  1.0000
  C   C389      1.0  0.13999  0.95538  0.06665  1.0000
  C   C390      1.0  0.07416  0.91891  0.99736  1.0000
  Fe  Fe51      1.0  0.17568  0.83962  0.99600  1.0000
  H   H680      1.0  0.20998  0.76597  0.46947  1.0000
  S   S103      1.0  0.14917  0.85498  0.00149  1.0000
  H   H681      1.0  0.00347  0.94855  0.21513  1.0000
  H   H682      1.0  0.09373  0.94517  0.01283  1.0000
  H   H683      1.0  0.13461  0.81121  0.47581  1.0000
  Fe  Fe52      1.0  0.21373  0.83492  0.01367  1.0000
  C   C391      1.0  0.21387  0.84020  0.25946  1.0000
  Fe  Fe53      1.0  0.20002  0.82769  0.45263  1.0000
  S   S104      1.0  0.20469  0.82289  0.40539  1.0000
  S   S105      1.0  0.18963  0.82118  0.02643  1.0000
  H   H684      1.0  0.23009  0.87047  0.29929  1.0000
  C   C392      1.0  0.22028  0.82831  0.37916  1.0000
  H   H685      1.0  0.20270  0.71017  0.98814  1.0000
  C   C393      1.0  0.09230  0.92245  0.98596  1.0000
  C   C394      1.0  0.21917  0.82049  0.35258  1.0000
  C   C395      1.0  0.13731  0.91665  0.47345  1.0000
  S   S106      1.0  0.16529  0.70485  0.47713  1.0000
  H   H686      1.0  0.24020  0.86254  0.26883  1.0000
  C   C396      1.0  0.21868  0.84104  0.12173  1.0000
  C   C397      1.0  0.21931  0.84020  0.09241  1.0000
  H   H687      1.0  0.20633  0.83972  0.13225  1.0000
  H   H688      1.0  0.20751  0.83822  0.08055  1.0000
  H   H689      1.0  0.01622  0.97139  0.14873  1.0000
  C   C398      1.0  0.23972  0.78158  0.37978  1.0000
  C   C399      1.0  0.00079  0.94146  0.09778  1.0000
  C   C400      1.0  0.23514  0.84220  0.07854  1.0000
  H   H690      1.0  0.21384  0.69442  0.26360  1.0000
  C   C401      1.0  0.19887  0.89072  0.30230  1.0000
  H   H691      1.0  0.16546  0.91482  0.46651  1.0000
  H   H692      1.0  0.23468  0.84624  0.40402  1.0000
  H   H693      1.0  0.22324  0.77866  0.04554  1.0000
  H   H694      1.0  0.09931  0.90965  0.98357  1.0000
  H   H695      1.0  0.16600  0.76425  0.00001  1.0000
  C   C402      1.0  0.07368  0.97593  0.99863  1.0000
  H   H696      1.0  0.04181  0.97201  0.38769  1.0000
  H   H697      1.0  0.06817  0.96629  0.01208  1.0000
  H   H698      1.0  0.22741  0.69972  0.11260  1.0000
  C   C403      1.0  0.07859  0.98107  0.21251  1.0000
  H   H699      1.0  0.13952  0.95758  0.01208  1.0000
  C   C404      1.0  0.13485  0.97315  0.43400  1.0000
  C   C405      1.0  0.08225  0.97718  0.24070  1.0000
  H   H700      1.0  0.20715  0.71806  0.45115  1.0000
  H   H701      1.0  0.08790  0.96450  0.24598  1.0000
  C   C406      1.0  0.12082  0.89450  0.06185  1.0000
  C   C407      1.0  0.13783  0.88792  0.06789  1.0000
  C   C408      1.0  0.14677  0.87605  0.04976  1.0000
  C   C409      1.0  0.13877  0.87032  0.02523  1.0000
  C   C410      1.0  0.12177  0.87695  0.01915  1.0000
  C   C411      1.0  0.11290  0.88892  0.03717  1.0000
  H   H702      1.0  0.14416  0.89196  0.08691  1.0000
  H   H703      1.0  0.15976  0.87115  0.05499  1.0000
  H   H704      1.0  0.11529  0.87258  0.00047  1.0000
  H   H705      1.0  0.09973  0.89339  0.03236  1.0000
  H   H706      1.0  0.14668  0.98029  0.42830  1.0000
  H   H707      1.0  0.23067  0.72228  0.10846  1.0000
  S   S107      1.0  0.19980  0.85418  0.98521  1.0000
  H   H708      1.0  0.01172  0.91530  0.09939  1.0000
  N   N21       1.0  0.20691  0.71329  0.08929  1.0000
  C   C412      1.0  0.19510  0.69815  0.09293  1.0000
  H   H709      1.0  0.06619  0.93124  0.99888  1.0000
  C   C413      1.0  0.19593  0.73001  0.09019  1.0000
  H   H710      1.0  0.02299  0.98642  0.38269  1.0000
  H   H711      1.0  0.12363  0.98269  0.43540  1.0000
  C   C414      1.0  0.18161  0.69531  0.06931  1.0000
  C   C415      1.0  0.20609  0.74715  0.09113  1.0000
  H   H712      1.0  0.22639  0.83786  0.27067  1.0000
  H   H713      1.0  0.22900  0.80359  0.12751  1.0000
  H   H714      1.0  0.10256  0.91987  0.46468  1.0000
  H   H715      1.0  0.15577  0.73922  0.45795  1.0000
  C   C416      1.0  0.19356  0.76309  0.09071  1.0000
  H   H716      1.0  0.18747  0.69974  0.11250  1.0000
  H   H717      1.0  0.20290  0.68575  0.09556  1.0000
  C   C417      1.0  0.21742  0.89205  0.21568  1.0000
  H   H718      1.0  0.17566  0.66906  0.08306  1.0000
  H   H719      1.0  0.18675  0.73001  0.10813  1.0000
  H   H720      1.0  0.18742  0.73107  0.07137  1.0000
  H   H721      1.0  0.20669  0.71468  0.04423  1.0000
  C   C418      1.0  0.22502  0.76950  0.38743  1.0000
  C   C419      1.0  0.00276  0.95780  0.19746  1.0000
  H   H722      1.0  0.19152  0.85830  0.26067  1.0000
  H   H723      1.0  0.17383  0.70735  0.06447  1.0000
  C   C420      1.0  0.23351  0.79076  0.13611  1.0000
  H   H724      1.0  0.07056  0.96442  0.45720  1.0000
  H   H725      1.0  0.11785  0.96426  0.02157  1.0000
  Fe  Fe54      1.0  0.18088  0.67326  0.99296  1.0000
  S   S108      1.0  0.17328  0.82125  0.46917  1.0000
  H   H726      1.0  0.21599  0.71763  0.25971  1.0000
  N   N22       1.0  0.11951  0.94106  0.99566  1.0000
  H   H727      1.0  0.16038  0.77576  0.42353  1.0000
  H   H728      1.0  0.18542  0.90804  0.33154  1.0000
  S   S109      1.0  0.08209  0.98869  0.41630  1.0000
  C   C421      1.0  0.22327  0.89012  0.18537  1.0000
  H   H729      1.0  0.15329  0.95723  0.05831  1.0000
  H   H730      1.0  0.18824  0.69088  0.04993  1.0000
  Fe  Fe55      1.0  0.19536  0.80357  0.98941  1.0000
  H   H731      1.0  0.18471  0.76303  0.10899  1.0000
  H   H732      1.0  0.20107  0.77521  0.09134  1.0000
  H   H733      1.0  0.18563  0.76328  0.07125  1.0000
  S   S110      1.0  0.20798  0.67580  0.47671  1.0000
  C   C422      1.0  0.19471  0.72189  0.99077  1.0000
  H   H734      1.0  0.21844  0.80202  0.20278  1.0000
  H   H735      1.0  0.10477  0.92597  0.02508  1.0000
  H   H736      1.0  0.13663  0.93104  0.04535  1.0000
  H   H737      1.0  0.08998  0.93987  0.46497  1.0000
  H   H738      1.0  0.04671  0.95970  0.18140  1.0000
  H   H739      1.0  0.19870  0.69324  0.42138  1.0000
  C   C423      1.0  0.23115  0.82425  0.33115  1.0000
  H   H740      1.0  0.22490  0.77775  0.43085  1.0000
  C   C424      1.0  0.16867  0.68153  0.07764  1.0000
  H   H741      1.0  0.16077  0.68605  0.09578  1.0000
  C   C425      1.0  0.21334  0.71531  0.14237  1.0000
  C   C426      1.0  0.17407  0.75252  0.99748  1.0000
  C   C427      1.0  0.19359  0.75965  0.42033  1.0000
  C   C428      1.0  0.23723  0.70439  0.28262  1.0000
  H   H742      1.0  0.23866  0.75942  0.42345  1.0000
  H   H743      1.0  0.19808  0.78796  0.41997  1.0000
  H   H744      1.0  0.20479  0.70452  0.14820  1.0000
  C   C429      1.0  0.18848  0.77880  0.42795  1.0000
  C   C430      1.0  0.24289  0.88990  0.27429  1.0000
  S   S111      1.0  0.16698  0.69995  0.99836  1.0000
  H   H745      1.0  0.19954  0.82409  0.28837  1.0000
  C   C431      1.0  0.02997  0.97777  0.39791  1.0000
  C   C432      1.0  0.17075  0.78412  0.41537  1.0000
  C   C433      1.0  0.22830  0.71534  0.16355  1.0000
  H   H746      1.0  0.18347  0.75155  0.42989  1.0000
  H   H747      1.0  0.19182  0.75799  0.39745  1.0000
  H   H748      1.0  0.23903  0.78472  0.35721  1.0000
  H   H749      1.0  0.00567  0.97168  0.25040  1.0000
  H   H750      1.0  0.02140  0.96704  0.40396  1.0000
  H   H751      1.0  0.20871  0.90187  0.26475  1.0000
  H   H752      1.0  0.20649  0.86706  0.21967  1.0000
  C   C434      1.0  0.13266  0.92634  0.98992  1.0000
  H   H753      1.0  0.20151  0.74491  0.46882  1.0000
  C   C435      1.0  0.10255  0.93411  0.00618  1.0000
  H   H754      1.0  0.18762  0.78058  0.45084  1.0000
  C   C436      1.0  0.01758  0.97874  0.16859  1.0000
  H   H755      1.0  0.21447  0.88145  0.17372  1.0000
  C   C437      1.0  0.22325  0.70485  0.25979  1.0000
  C   C438      1.0  0.22544  0.76521  0.41903  1.0000
  H   H756      1.0  0.23042  0.70657  0.30277  1.0000
  S   S112      1.0  0.09026  0.98886  0.04565  1.0000
  N   N23       1.0  0.02001  0.96630  0.19280  1.0000
  C   C439      1.0  0.22658  0.69519  0.05516  1.0000
  H   H757      1.0  0.21237  0.73562  0.39397  1.0000
  H   H758      1.0  0.21255  0.77620  0.38131  1.0000
  H   H759      1.0  0.21611  0.73920  0.98581  1.0000
  N   N24       1.0  0.21447  0.87400  0.26178  1.0000
  H   H760      1.0  0.17115  0.78310  0.39229  1.0000
  C   C440      1.0  0.03428  0.95312  0.18516  1.0000
  H   H761      1.0  0.19025  0.88909  0.25932  1.0000
  H   H762      1.0  0.18987  0.82606  0.25393  1.0000
  C   C441      1.0  0.20235  0.82481  0.26571  1.0000
  H   H763      1.0  0.20924  0.81249  0.25930  1.0000
  H   H764      1.0  0.14921  0.95474  0.45964  1.0000
  H   H765      1.0  0.15274  0.73511  0.00294  1.0000
  H   H766      1.0  0.22626  0.90112  0.22609  1.0000
  H   H767      1.0  0.13082  0.91546  0.00487  1.0000
  C   C442      1.0  0.23355  0.84009  0.38383  1.0000
  H   H768      1.0  0.21232  0.81184  0.17000  1.0000
  H   H769      1.0  0.22559  0.72298  0.06001  1.0000
  C   C443      1.0  0.16659  0.73597  0.99912  1.0000
  H   H770      1.0  0.22543  0.80088  0.08310  1.0000
  H   H771      1.0  0.00462  0.93729  0.16499  1.0000
  H   H772      1.0  0.22925  0.70255  0.23900  1.0000
  C   C444      1.0  0.19199  0.75382  0.99273  1.0000
  H   H773      1.0  0.19092  0.87972  0.30925  1.0000
  H   H774      1.0  0.21416  0.74791  0.11029  1.0000
  S   S113      1.0  0.23253  0.84457  0.17425  1.0000
  H   H775      1.0  0.21646  0.84011  0.23674  1.0000
  H   H776      1.0  0.21470  0.74820  0.07275  1.0000
  H   H777      1.0  0.18976  0.72365  0.42726  1.0000
  H   H778      1.0  0.04597  0.91857  0.17693  1.0000
  H   H779      1.0  0.04219  0.97902  0.43813  1.0000
  H   H780      1.0  0.23024  0.81786  0.31115  1.0000
  C   C445      1.0  0.20741  0.70333  0.41324  1.0000
  H   H781      1.0  0.23544  0.71155  0.36711  1.0000
  C   C446      1.0  0.01996  0.96965  0.24726  1.0000
  C   C447      1.0  0.21707  0.79955  0.18008  1.0000
  S   S114      1.0  0.23666  0.84119  0.04175  1.0000
  C   C448      1.0  0.02929  0.97927  0.27060  1.0000
  H   H782      1.0  0.04512  0.98476  0.16082  1.0000
  C   C449      1.0  0.20507  0.85765  0.26926  1.0000
  H   H783      1.0  0.16740  0.79788  0.42084  1.0000
  C   C450      1.0  0.20394  0.72047  0.42888  1.0000
  H   H784      1.0  0.22114  0.69862  0.41627  1.0000
  C   C451      1.0  0.23181  0.87349  0.27680  1.0000
  H   H785      1.0  0.22898  0.73125  0.41871  1.0000
  N   N25       1.0  0.21159  0.75324  0.42918  1.0000
  H   H786      1.0  0.20408  0.89820  0.21554  1.0000
  H   H787      1.0  0.11033  0.96391  0.47188  1.0000
  H   H788      1.0  0.20465  0.70490  0.39064  1.0000
  H   H789      1.0  0.02477  0.97465  0.29118  1.0000
  C   C452      1.0  0.21496  0.73533  0.41679  1.0000
  H   H790      1.0  0.13525  0.92262  0.45268  1.0000
  C   C453      1.0  0.08147  0.98977  0.45313  1.0000
  H   H791      1.0  0.15964  0.67916  0.05996  1.0000
  H   H792      1.0  0.23546  0.90186  0.28068  1.0000
  H   H793      1.0  0.13218  0.96358  0.41724  1.0000
  C   C454      1.0  0.12957  0.94385  0.04716  1.0000
  C   C455      1.0  0.99984  0.92330  0.09905  1.0000
  H   H794      1.0  0.01880  0.99003  0.21754  1.0000
  H   H795      1.0  0.20382  0.85638  0.29226  1.0000
  C   C456      1.0  0.22040  0.71266  0.11231  1.0000
  H   H796      1.0  0.04508  0.94477  0.22538  1.0000
  H   H797      1.0  0.20580  0.72780  0.14459  1.0000
  H   H798      1.0  0.20904  0.81132  0.34862  1.0000
  H   H799      1.0  0.22803  0.69968  0.01044  1.0000
  C   C457      1.0  0.12667  0.95256  0.01832  1.0000
  C   C458      1.0  0.23390  0.84350  0.13746  1.0000
  C   C459      1.0  0.02510  0.97673  0.21822  1.0000
  H   H800      1.0  0.02688  0.93204  0.21375  1.0000
  H   H801      1.0  0.00912  0.98765  0.43857  1.0000
  H   H802      1.0  0.22671  0.75745  0.37478  1.0000
  H   H803      1.0  0.23692  0.72640  0.15963  1.0000
  H   H804      1.0  0.03945  0.97878  0.21818  1.0000
  C   C460      1.0  0.05149  0.92499  0.19561  1.0000
  H   H805      1.0  0.08168  0.98618  0.28362  1.0000
  C   C461      1.0  0.03866  0.93885  0.20706  1.0000
  H   H806      1.0  0.21767  0.68420  0.05269  1.0000
  H   H807      1.0  0.23395  0.73293  0.46440  1.0000
  H   H808      1.0  0.22935  0.86662  0.22490  1.0000
  H   H809      1.0  0.06405  0.93092  0.19013  1.0000
  H   H810      1.0  0.11803  0.94563  0.45262  1.0000
  H   H811      1.0  0.19594  0.91910  0.30345  1.0000
  C   C462      1.0  0.23762  0.79515  0.07410  1.0000
  H   H812      1.0  0.14123  0.94903  0.08738  1.0000
  C   C463      1.0  0.13779  0.96389  0.46191  1.0000
  H   H813      1.0  0.13317  0.96828  0.06939  1.0000
  H   H814      1.0  0.22292  0.71673  0.18493  1.0000
  H   H815      1.0  0.02307  0.95557  0.24969  1.0000
  C   C464      1.0  0.07555  0.97550  0.46827  1.0000
  H   H816      1.0  0.22275  0.78163  0.13225  1.0000
  C   C465      1.0  0.21614  0.71237  0.06160  1.0000
  S   S115      1.0  0.20246  0.77415  0.99086  1.0000
  C   C466      1.0  0.20296  0.88935  0.27069  1.0000
  H   H817      1.0  0.07511  0.91277  0.01828  1.0000
  C   C467      1.0  0.21712  0.87407  0.23046  1.0000
  H   H818      1.0  0.15391  0.89559  0.45693  1.0000
  H   H819      1.0  0.05421  0.91487  0.21170  1.0000
  H   H820      1.0  0.03138  0.94674  0.16488  1.0000
  H   H821      1.0  0.23551  0.76941  0.09194  1.0000
  H   H822      1.0  0.22745  0.80007  0.03270  1.0000
  H   H823      1.0  0.00523  0.98669  0.17105  1.0000
  C   C468      1.0  0.20224  0.73838  0.98950  1.0000
  H   H824      1.0  0.23843  0.79400  0.39167  1.0000
  C   C469      1.0  0.18837  0.90750  0.30890  1.0000
  C   C470      1.0  0.08437  0.98861  0.00990  1.0000
  C   C471      1.0  0.16390  0.74066  0.47623  1.0000
  H   H825      1.0  0.24293  0.73119  0.27986  1.0000
  C   C472      1.0  0.15469  0.90627  0.47251  1.0000
  H   H826      1.0  0.23613  0.69183  0.07181  1.0000
  C   C473      1.0  0.21229  0.75269  0.46056  1.0000
  H   H827      1.0  0.23979  0.86928  0.00241  1.0000
  C   C474      1.0  0.17686  0.72055  0.99578  1.0000
  C   C475      1.0  0.03538  0.98815  0.42354  1.0000
  C   C476      1.0  0.12132  0.95407  0.47052  1.0000
  H   H828      1.0  0.23612  0.70288  0.16254  1.0000
  H   H829      1.0  0.21103  0.89080  0.31489  1.0000
  H   H830      1.0  0.20728  0.78938  0.17696  1.0000
  H   H831      1.0  0.17582  0.90793  0.29721  1.0000
  H   H832      1.0  0.23876  0.78136  0.17902  1.0000
  H   H833      1.0  0.14621  0.93058  0.99394  1.0000
  H   H834      1.0  0.22293  0.90307  0.17509  1.0000
  H   H835      1.0  0.07123  0.91481  0.46892  1.0000
  H   H836      1.0  0.12702  0.90715  0.47741  1.0000
  H   H837      1.0  0.24420  0.68435  0.02375  1.0000
  S   S116      1.0  0.20873  0.67075  0.97949  1.0000
  H   H838      1.0  0.06738  0.90989  0.98315  1.0000
  C   C477      1.0  0.23475  0.79356  0.16811  1.0000
  H   H839      1.0  0.23683  0.88455  0.18431  1.0000
  C   C478      1.0  0.23694  0.69680  0.02817  1.0000
  H   H840      1.0  0.04362  0.97672  0.26930  1.0000
  C   C479      1.0  0.24430  0.83619  0.33574  1.0000
  C   C480      1.0  0.03240  0.99173  0.16376  1.0000
  C   C481      1.0  0.07874  0.98949  0.26218  1.0000
  H   H841      1.0  0.16211  0.76886  0.47555  1.0000
  H   H842      1.0  0.24420  0.80371  0.17329  1.0000
  H   H843      1.0  0.24338  0.69114  0.28258  1.0000
  C   C482      1.0  0.22975  0.74569  0.47341  1.0000
  H   H844      1.0  0.24021  0.75510  0.46986  1.0000
  C   C483      1.0  0.09471  0.92880  0.47808  1.0000
  C   C484      1.0  0.24535  0.84406  0.36226  1.0000
  H   H845      1.0  0.14092  0.97409  0.47738  1.0000
  C   C485      1.0  0.24519  0.77986  0.09201  1.0000
  H   H846      1.0  0.24493  0.78385  0.03380  1.0000
  H   H847      1.0  0.02654  0.99356  0.26925  1.0000
  Fe  Fe56      1.0  0.04703  0.94244  0.58799  1.0000
  S   S117      1.0  0.05196  0.96946  0.60343  1.0000
  S   S118      1.0  0.02017  0.94011  0.56762  1.0000
  Fe  Fe57      1.0  0.08597  0.93063  0.59565  1.0000
  S   S119      1.0  0.09265  0.95723  0.61240  1.0000
  S   S120      1.0  0.10957  0.91092  0.59291  1.0000
  Fe  Fe58      1.0  0.06793  0.95676  0.63778  1.0000
  S   S121      1.0  0.06098  0.96459  0.68328  1.0000
  Fe  Fe59      1.0  0.07603  0.96760  0.57682  1.0000
  H   H848      1.0  0.21289  0.70395  0.94190  1.0000
  S   S122      1.0  0.06195  0.92938  0.62338  1.0000
  S   S123      1.0  0.07043  0.94135  0.55932  1.0000
  H   H849      1.0  0.21619  0.85814  0.85141  1.0000
  C   C486      1.0  0.07598  0.97548  0.49762  1.0000
  H   H850      1.0  0.15773  0.90031  0.49311  1.0000
  Fe  Fe60      1.0  0.17518  0.84465  0.49779  1.0000
  C   C487      1.0  0.02731  0.99071  0.48597  1.0000
  S   S124      1.0  0.14974  0.86169  0.50286  1.0000
  Fe  Fe61      1.0  0.18729  0.80575  0.50256  1.0000
  H   H851      1.0  0.22332  0.75550  0.51501  1.0000
  S   S125      1.0  0.18148  0.78027  0.52462  1.0000
  Fe  Fe62      1.0  0.21318  0.83436  0.51211  1.0000
  C   C488      1.0  0.22295  0.69534  0.68588  1.0000
  Fe  Fe63      1.0  0.20463  0.83447  0.95054  1.0000
  S   S126      1.0  0.21259  0.84337  0.90619  1.0000
  S   S127      1.0  0.18769  0.82860  0.53201  1.0000
  H   H852      1.0  0.06982  0.92802  0.49989  1.0000
  C   C489      1.0  0.22764  0.83839  0.87834  1.0000
  H   H853      1.0  0.20308  0.73060  0.85020  1.0000
  H   H854      1.0  0.11126  0.94469  0.95256  1.0000
  C   C490      1.0  0.22638  0.84811  0.85344  1.0000
  C   C491      1.0  0.13087  0.96373  0.96065  1.0000
  H   H855      1.0  0.18058  0.70729  0.87969  1.0000
  C   C492      1.0  0.18399  0.74450  0.52420  1.0000
  C   C493      1.0  0.22245  0.84395  0.61879  1.0000
  C   C494      1.0  0.22197  0.84283  0.58951  1.0000
  H   H856      1.0  0.21116  0.84911  0.62991  1.0000
  H   H857      1.0  0.21044  0.84725  0.57822  1.0000
  H   H858      1.0  0.04154  0.98745  0.48462  1.0000
  H   H859      1.0  0.09072  0.85982  0.61021  1.0000
  C   C495      1.0  0.12721  0.97132  0.93169  1.0000
  C   C496      1.0  0.17768  0.75948  0.51008  1.0000
  H   H860      1.0  0.14802  0.82433  0.51724  1.0000
  H   H861      1.0  0.15365  0.68625  0.93364  1.0000
  H   H862      1.0  0.21865  0.69400  0.86546  1.0000
  H   H863      1.0  0.21710  0.72701  0.61177  1.0000
  H   H864      1.0  0.04691  0.97544  0.73634  1.0000
  C   C497      1.0  0.22810  0.74322  0.50483  1.0000
  H   H865      1.0  0.11074  0.97914  0.77778  1.0000
  H   H866      1.0  0.12468  0.82744  0.51714  1.0000
  H   H867      1.0  0.08714  0.85095  0.57589  1.0000
  H   H868      1.0  0.07117  0.96450  0.50898  1.0000
  C   C498      1.0  0.07710  0.98819  0.95202  1.0000
  C   C499      1.0  0.06937  0.97839  0.71005  1.0000
  H   H869      1.0  0.20483  0.76372  0.89813  1.0000
  H   H870      1.0  0.11980  0.91501  0.95281  1.0000
  H   H871      1.0  0.12625  0.96073  0.91601  1.0000
  H   H872      1.0  0.12177  0.79744  0.49744  1.0000
  H   H873      1.0  0.10714  0.92481  0.51855  1.0000
  C   C500      1.0  0.12066  0.89767  0.56716  1.0000
  C   C501      1.0  0.13782  0.89128  0.57254  1.0000
  C   C502      1.0  0.14694  0.88038  0.55324  1.0000
  C   C503      1.0  0.13897  0.87545  0.52826  1.0000
  C   C504      1.0  0.12177  0.88173  0.52298  1.0000
  C   C505      1.0  0.11269  0.89266  0.54224  1.0000
  H   H874      1.0  0.14416  0.89486  0.59179  1.0000
  H   H875      1.0  0.16017  0.87590  0.55762  1.0000
  H   H876      1.0  0.11535  0.87797  0.50389  1.0000
  H   H877      1.0  0.09933  0.89687  0.53819  1.0000
  H   H878      1.0  0.24170  0.67676  0.94627  1.0000
  H   H879      1.0  0.23868  0.78744  0.72868  1.0000
  H   H880      1.0  0.24224  0.89948  0.59777  1.0000
  H   H881      1.0  0.00884  0.91628  0.61111  1.0000
  H   H882      1.0  0.10308  0.82994  0.60754  1.0000
  C   C506      1.0  0.13554  0.81767  0.51982  1.0000
  H   H883      1.0  0.00852  0.97179  0.94675  1.0000
  H   H884      1.0  0.24081  0.89805  0.94385  1.0000
  C   C507      1.0  0.21234  0.70730  0.56718  1.0000
  H   H885      1.0  0.24179  0.69784  0.96346  1.0000
  H   H886      1.0  0.23679  0.85261  0.81213  1.0000
  C   C508      1.0  0.17331  0.84712  0.60240  1.0000
  C   C509      1.0  0.24093  0.82544  0.88035  1.0000
  H   H887      1.0  0.21860  0.78056  0.74374  1.0000
  H   H888      1.0  0.19256  0.73379  0.89307  1.0000
  H   H889      1.0  0.08340  0.97672  0.80476  1.0000
  C   C510      1.0  0.21839  0.71617  0.82018  1.0000
  H   H890      1.0  0.22221  0.70247  0.81476  1.0000
  C   C511      1.0  0.23021  0.69873  0.65686  1.0000
  S   S128      1.0  0.20107  0.85215  0.47908  1.0000
  S   S129      1.0  0.17962  0.82073  0.95950  1.0000
  C   C512      1.0  0.00012  0.94551  0.67374  1.0000
  H   H891      1.0  0.02374  0.91770  0.66101  1.0000
  C   C513      1.0  0.07028  0.97557  0.96975  1.0000
  H   H892      1.0  0.23038  0.79773  0.76026  1.0000
  H   H893      1.0  0.24235  0.87917  0.54235  1.0000
  C   C514      1.0  0.20656  0.71673  0.84581  1.0000
  H   H894      1.0  0.09035  0.92853  0.96525  1.0000
  C   C515      1.0  0.23621  0.75586  0.63515  1.0000
  H   H895      1.0  0.22883  0.71385  0.87277  1.0000
  C   C516      1.0  0.12346  0.97881  0.81802  1.0000
  C   C517      1.0  0.21776  0.73933  0.91144  1.0000
  H   H896      1.0  0.00850  0.99242  0.52041  1.0000
  H   H897      1.0  0.22714  0.87708  0.57077  1.0000
  H   H898      1.0  0.18233  0.83562  0.60541  1.0000
  C   C518      1.0  0.23183  0.78521  0.74865  1.0000
  N   N26       1.0  0.24373  0.72293  0.62671  1.0000
  H   H899      1.0  0.22624  0.73939  0.89281  1.0000
  H   H900      1.0  0.06315  0.97106  0.85638  1.0000
  C   C519      1.0  0.06569  0.99171  0.75659  1.0000
  H   H901      1.0  0.20207  0.75875  0.93450  1.0000
  N   N27       1.0  0.10249  0.95574  0.79848  1.0000
  C   C520      1.0  0.09492  0.95017  0.77089  1.0000
  C   C521      1.0  0.08824  0.96466  0.81556  1.0000
  C   C522      1.0  0.07859  0.91923  0.48746  1.0000
  C   C523      1.0  0.11112  0.94083  0.81453  1.0000
  C   C524      1.0  0.10336  0.92252  0.81081  1.0000
  C   C525      1.0  0.10841  0.94426  0.74845  1.0000
  H   H902      1.0  0.19539  0.72754  0.92810  1.0000
  C   C526      1.0  0.07225  0.95378  0.82285  1.0000
  C   C527      1.0  0.05805  0.96510  0.83698  1.0000
  C   C528      1.0  0.11111  0.90957  0.83201  1.0000
  C   C529      1.0  0.09968  0.93478  0.72437  1.0000
  C   C530      1.0  0.12528  0.94942  0.55073  1.0000
  H   H903      1.0  0.08701  0.96112  0.76159  1.0000
  H   H904      1.0  0.08555  0.93962  0.77350  1.0000
  H   H905      1.0  0.09339  0.96902  0.83603  1.0000
  C   C531      1.0  0.13733  0.93034  0.49714  1.0000
  H   H906      1.0  0.21988  0.68135  0.68786  1.0000
  H   H907      1.0  0.06233  0.96549  0.96112  1.0000
  H   H908      1.0  0.12516  0.93914  0.80878  1.0000
  H   H909      1.0  0.11127  0.94396  0.83722  1.0000
  H   H910      1.0  0.10639  0.91730  0.78973  1.0000
  H   H911      1.0  0.08901  0.92276  0.81315  1.0000
  H   H912      1.0  0.11469  0.95584  0.73952  1.0000
  H   H913      1.0  0.11879  0.93553  0.75741  1.0000
  H   H914      1.0  0.22392  0.89031  0.96615  1.0000
  H   H915      1.0  0.24208  0.81770  0.89910  1.0000
  H   H916      1.0  0.06628  0.94796  0.80411  1.0000
  H   H917      1.0  0.07613  0.94337  0.83785  1.0000
  H   H918      1.0  0.21296  0.71875  0.55321  1.0000
  H   H919      1.0  0.15333  0.69497  0.89882  1.0000
  H   H920      1.0  0.23066  0.86011  0.95532  1.0000
  H   H921      1.0  0.10778  0.91378  0.85357  1.0000
  H   H922      1.0  0.10569  0.89651  0.82842  1.0000
  H   H923      1.0  0.12554  0.90842  0.82986  1.0000
  H   H924      1.0  0.08936  0.94330  0.71466  1.0000
  H   H925      1.0  0.10953  0.93132  0.70818  1.0000
  H   H926      1.0  0.09380  0.92261  0.73178  1.0000
  H   H927      1.0  0.04114  0.92494  0.68305  1.0000
  H   H928      1.0  0.14526  0.89707  0.93692  1.0000
  H   H929      1.0  0.02762  0.98126  0.55713  1.0000
  C   C532      1.0  0.23024  0.72314  0.60348  1.0000
  H   H930      1.0  0.12748  0.96288  0.78154  1.0000
  H   H931      1.0  0.22970  0.75395  0.65547  1.0000
  H   H932      1.0  0.23269  0.69851  0.70213  1.0000
  C   C533      1.0  0.18072  0.72769  0.51394  1.0000
  H   H933      1.0  0.18559  0.71624  0.52493  1.0000
  H   H934      1.0  0.22443  0.88596  0.90238  1.0000
  C   C534      1.0  0.09726  0.85530  0.59076  1.0000
  H   H935      1.0  0.19155  0.68676  0.88509  1.0000
  H   H936      1.0  0.17493  0.85614  0.62028  1.0000
  C   C535      1.0  0.05947  0.98133  0.73446  1.0000
  H   H937      1.0  0.13454  0.93819  0.55384  1.0000
  H   H938      1.0  0.13796  0.97985  0.92558  1.0000
  C   C536      1.0  0.17798  0.69749  0.92117  1.0000
  H   H939      1.0  0.20021  0.70836  0.57976  1.0000
  H   H940      1.0  0.19147  0.74591  0.54317  1.0000
  H   H941      1.0  0.12054  0.97459  0.57100  1.0000
  H   H942      1.0  0.12996  0.95780  0.59320  1.0000
  C   C537      1.0  0.24441  0.77376  0.63607  1.0000
  H   H943      1.0  0.11197  0.94517  0.55585  1.0000
  H   H944      1.0  0.16490  0.67448  0.90611  1.0000
  H   H945      1.0  0.13925  0.96206  0.51828  1.0000
  H   H946      1.0  0.05325  0.97559  0.82271  1.0000
  H   H947      1.0  0.17372  0.71022  0.93025  1.0000
  H   H948      1.0  0.23417  0.78401  0.64031  1.0000
  H   H949      1.0  0.02065  0.91925  0.69840  1.0000
  C   C538      1.0  0.16146  0.68769  0.91437  1.0000
  H   H950      1.0  0.22610  0.75625  0.61853  1.0000
  H   H951      1.0  0.24350  0.75968  0.75281  1.0000
  H   H952      1.0  0.02430  0.95132  0.69575  1.0000
  H   H953      1.0  0.18527  0.68996  0.93736  1.0000
  C   C539      1.0  0.11607  0.96908  0.79244  1.0000
  N   N28       1.0  0.13452  0.82034  0.57388  1.0000
  C   C540      1.0  0.13195  0.80893  0.59906  1.0000
  C   C541      1.0  0.11929  0.83328  0.57041  1.0000
  C   C542      1.0  0.13508  0.80851  0.54862  1.0000
  C   C543      1.0  0.15153  0.82963  0.57520  1.0000
  C   C544      1.0  0.15440  0.84143  0.60087  1.0000
  C   C545      1.0  0.14659  0.79493  0.60499  1.0000
  H   H954      1.0  0.12362  0.79993  0.54866  1.0000
  C   C546      1.0  0.11038  0.84043  0.59732  1.0000
  C   C547      1.0  0.14289  0.78492  0.63172  1.0000
  H   H955      1.0  0.17697  0.85398  0.58304  1.0000
  H   H956      1.0  0.11941  0.80207  0.59694  1.0000
  H   H957      1.0  0.13054  0.81678  0.61836  1.0000
  H   H958      1.0  0.12327  0.84465  0.55772  1.0000
  H   H959      1.0  0.10854  0.82729  0.55836  1.0000
  H   H960      1.0  0.14340  0.95605  0.96009  1.0000
  H   H961      1.0  0.14689  0.79966  0.54907  1.0000
  H   H962      1.0  0.16271  0.82006  0.57371  1.0000
  H   H963      1.0  0.15281  0.83827  0.55678  1.0000
  H   H964      1.0  0.15166  0.83474  0.62070  1.0000
  H   H965      1.0  0.14597  0.85342  0.59917  1.0000
  H   H966      1.0  0.14761  0.78519  0.58790  1.0000
  H   H967      1.0  0.15943  0.80098  0.60769  1.0000
  H   H968      1.0  0.22729  0.69446  0.59918  1.0000
  H   H969      1.0  0.13739  0.92259  0.51669  1.0000
  H   H970      1.0  0.11991  0.84536  0.61251  1.0000
  H   H971      1.0  0.10403  0.86648  0.58168  1.0000
  H   H972      1.0  0.14242  0.79389  0.64992  1.0000
  H   H973      1.0  0.13029  0.77823  0.62998  1.0000
  H   H974      1.0  0.15346  0.77491  0.63532  1.0000
  H   H975      1.0  0.04687  0.95698  0.84262  1.0000
  C   C548      1.0  0.23759  0.83895  0.63371  1.0000
  H   H976      1.0  0.22265  0.76626  0.92238  1.0000
  H   H977      1.0  0.21202  0.90224  0.92181  1.0000
  C   C549      1.0  0.03217  0.98000  0.53532  1.0000
  H   H978      1.0  0.24326  0.86504  0.92632  1.0000
  C   C550      1.0  0.21668  0.69910  0.92084  1.0000
  S   S130      1.0  0.07379  0.98668  0.91558  1.0000
  C   C551      1.0  0.12606  0.95665  0.52054  1.0000
  H   H979      1.0  0.02955  0.96664  0.52781  1.0000
  H   H980      1.0  0.13807  0.92801  0.94503  1.0000
  C   C552      1.0  0.02025  0.94427  0.67672  1.0000
  C   C553      1.0  0.02675  0.92534  0.68002  1.0000
  H   H981      1.0  0.21081  0.70331  0.68947  1.0000
  C   C554      1.0  0.13010  0.96339  0.57189  1.0000
  H   H982      1.0  0.21133  0.72210  0.80211  1.0000
  H   H983      1.0  0.02698  0.94953  0.65834  1.0000
  C   C555      1.0  0.08260  0.98966  0.51213  1.0000
  H   H984      1.0  0.10455  0.96166  0.97511  1.0000
  H   H985      1.0  0.24192  0.71222  0.91650  1.0000
  C   C556      1.0  0.11569  0.95244  0.97058  1.0000
  H   H986      1.0  0.01582  0.98846  0.73217  1.0000
  C   C557      1.0  0.21802  0.88889  0.92267  1.0000
  C   C558      1.0  0.23692  0.69895  0.91869  1.0000
  H   H987      1.0  0.23034  0.72361  0.82407  1.0000
  C   C559      1.0  0.99744  0.92303  0.60254  1.0000
  S   S131      1.0  0.23762  0.83852  0.53802  1.0000
  C   C560      1.0  0.08570  0.98594  0.70823  1.0000
  C   C561      1.0  0.99941  0.93534  0.58143  1.0000
  H   H988      1.0  0.19456  0.70981  0.84019  1.0000
  H   H989      1.0  0.11658  0.96802  0.51940  1.0000
  H   H990      1.0  0.12787  0.96952  0.83448  1.0000
  C   C562      1.0  0.18916  0.69991  0.89456  1.0000
  H   H991      1.0  0.20745  0.87955  0.92602  1.0000
  H   H992      1.0  0.21890  0.73272  0.50922  1.0000
  H   H993      1.0  0.23905  0.77975  0.82511  1.0000
  H   H994      1.0  0.22371  0.72602  0.65819  1.0000
  H   H995      1.0  0.24293  0.75652  0.82993  1.0000
  C   C563      1.0  0.23567  0.71785  0.65403  1.0000
  H   H996      1.0  0.23323  0.73328  0.58773  1.0000
  H   H997      1.0  0.11480  0.97926  0.93170  1.0000
  N   N29       1.0  0.12253  0.94384  0.49735  1.0000
  C   C564      1.0  0.23678  0.83703  0.57481  1.0000
  H   H998      1.0  0.00139  0.97992  0.58327  1.0000
  H   H999      1.0  0.09626  0.94523  0.51374  1.0000
  C   C565      1.0  0.10527  0.93561  0.50334  1.0000
  H   H1000     1.0  0.14980  0.98147  0.80165  1.0000
  C   C566      1.0  0.99914  0.98313  0.94561  1.0000
  C   C567      1.0  0.21142  0.75813  0.91689  1.0000
  H   H1001     1.0  0.22778  0.89717  0.55167  1.0000
  H   H1002     1.0  0.21181  0.69535  0.55412  1.0000
  H   H1003     1.0  0.14340  0.96808  0.56783  1.0000
  S   S132      1.0  0.23802  0.84223  0.67026  1.0000
  H   H1004     1.0  0.21966  0.69586  0.64190  1.0000
  C   C568      1.0  0.13422  0.80439  0.49618  1.0000
  H   H1005     1.0  0.22554  0.73504  0.92988  1.0000
  H   H1006     1.0  0.24101  0.73938  0.51386  1.0000
  C   C569      1.0  0.23809  0.84501  0.83101  1.0000
  C   C570      1.0  0.20211  0.72737  0.90759  1.0000
  H   H1007     1.0  0.14535  0.79474  0.49712  1.0000
  H   H1008     1.0  0.24467  0.72067  0.67160  1.0000
  H   H1009     1.0  0.24146  0.68951  0.65370  1.0000
  N   N30       1.0  0.20627  0.70886  0.89856  1.0000
  C   C571      1.0  0.22841  0.70617  0.58607  1.0000
  H   H1010     1.0  0.21348  0.68508  0.92074  1.0000
  C   C572      1.0  0.21587  0.70794  0.87112  1.0000
  S   S133      1.0  0.21369  0.81054  0.48463  1.0000
  H   H1011     1.0  0.11337  0.98794  0.82679  1.0000
  H   H1012     1.0  0.04645  0.98190  0.53514  1.0000
  C   C573      1.0  0.23589  0.88613  0.56007  1.0000
  H   H1013     1.0  0.02349  0.97870  0.68388  1.0000
  C   C574      1.0  0.13293  0.91851  0.96006  1.0000
  H   H1014     1.0  0.08241  0.90761  0.50006  1.0000
  H   H1015     1.0  0.01330  0.97151  0.63968  1.0000
  H   H1016     1.0  0.24128  0.69111  0.90031  1.0000
  S   S134      1.0  0.08431  0.98988  0.54900  1.0000
  C   C575      1.0  0.23124  0.88766  0.94655  1.0000
  H   H1017     1.0  0.09356  0.98381  0.68978  1.0000
  H   H1018     1.0  0.23366  0.76824  0.78395  1.0000
  C   C576      1.0  0.01164  0.98701  0.68726  1.0000
  C   C577      1.0  0.13887  0.98983  0.80983  1.0000
  H   H1019     1.0  0.15012  0.93679  0.49701  1.0000
  S   S135      1.0  0.18084  0.66231  0.52608  1.0000
  Fe  Fe64      1.0  0.17961  0.67906  0.48729  1.0000
  C   C578      1.0  0.16757  0.75748  0.48605  1.0000
  C   C579      1.0  0.24048  0.86937  0.94795  1.0000
  C   C580      1.0  0.17057  0.72569  0.48998  1.0000
  C   C581      1.0  0.14477  0.90209  0.95863  1.0000
  H   H1020     1.0  0.05791  0.99376  0.77513  1.0000
  H   H1021     1.0  0.15826  0.90491  0.96540  1.0000
  H   H1022     1.0  0.02087  0.97845  0.47990  1.0000
  C   C582      1.0  0.24188  0.77154  0.76599  1.0000
  H   H1023     1.0  0.24002  0.70407  0.57248  1.0000
  H   H1024     1.0  0.23229  0.77189  0.87246  1.0000
  H   H1025     1.0  0.13965  0.89171  0.97213  1.0000
  H   H1026     1.0  0.13241  0.97492  0.97511  1.0000
  C   C583      1.0  0.99986  0.99058  0.59888  1.0000
  H   H1027     1.0  0.99627  0.98581  0.92331  1.0000
  H   H1028     1.0  0.99770  0.99003  0.81018  1.0000
  C   C584      1.0  0.99928  0.96852  0.63817  1.0000
  H   H1029     1.0  0.99893  0.95750  0.62324  1.0000
  C   C585      1.0  0.02274  0.99364  0.51715  1.0000
  H   H1030     1.0  0.99625  0.93552  0.65823  1.0000
  S   S136      1.0  0.22033  0.81666  0.97839  1.0000
  Fe  Fe65      1.0  0.25922  0.14678  0.25865  1.0000
  S   S137      1.0  0.28127  0.16185  0.27579  1.0000
  H   H1031     1.0  0.30777  0.27111  0.16719  1.0000
  Fe  Fe66      1.0  0.27180  0.14977  0.19773  1.0000
  S   S138      1.0  0.29534  0.16461  0.21209  1.0000
  S   S139      1.0  0.26857  0.14776  0.14973  1.0000
  Fe  Fe67      1.0  0.29807  0.14481  0.24736  1.0000
  S   S140      1.0  0.32415  0.13371  0.26618  1.0000
  Fe  Fe68      1.0  0.27668  0.18009  0.23957  1.0000
  S   S141      1.0  0.26853  0.20916  0.24255  1.0000
  S   S142      1.0  0.27588  0.12902  0.23120  1.0000
  H   H1032     1.0  0.25690  0.17887  0.04200  1.0000
  H   H1033     1.0  0.26585  0.08839  0.39114  1.0000
  C   C586      1.0  0.39912  0.00626  0.45817  1.0000
  Fe  Fe69      1.0  0.29393  0.30846  0.25551  1.0000
  S   S143      1.0  0.30716  0.28130  0.25651  1.0000
  S   S144      1.0  0.26623  0.31157  0.24112  1.0000
  Fe  Fe70      1.0  0.39896  0.02549  0.38369  1.0000
  S   S145      1.0  0.40287  0.05255  0.36562  1.0000
  S   S146      1.0  0.40229  0.02232  0.43161  1.0000
  Fe  Fe71      1.0  0.39490  0.00987  0.32463  1.0000
  S   S147      1.0  0.39867  0.03543  0.30387  1.0000
  H   H1034     1.0  0.26535  0.07282  0.28471  1.0000
  Fe  Fe72      1.0  0.42067  0.03858  0.33461  1.0000
  S   S148      1.0  0.44648  0.04412  0.31309  1.0000
  Fe  Fe73      1.0  0.38045  0.04719  0.33604  1.0000
  S   S149      1.0  0.35520  0.06251  0.32169  1.0000
  S   S150      1.0  0.41779  0.01222  0.35376  1.0000
  S   S151      1.0  0.37559  0.02097  0.35597  1.0000
  H   H1035     1.0  0.33011  0.09737  0.39638  1.0000
  H   H1036     1.0  0.26544  0.25345  0.42021  1.0000
  H   H1037     1.0  0.35601  0.02551  0.24766  1.0000
  H   H1038     1.0  0.27820  0.27603  0.12200  1.0000
  C   C587      1.0  0.43771  0.00422  0.14676  1.0000
  H   H1039     1.0  0.35524  0.07972  0.19794  1.0000
  C   C588      1.0  0.46778  0.04635  0.32721  1.0000
  C   C589      1.0  0.47064  0.05458  0.35280  1.0000
  H   H1040     1.0  0.28525  0.22072  0.18316  1.0000
  H   H1041     1.0  0.45961  0.05889  0.36533  1.0000
  H   H1042     1.0  0.48024  0.03506  0.29092  1.0000
  C   C590      1.0  0.33275  0.11360  0.28071  1.0000
  C   C591      1.0  0.32429  0.09779  0.27798  1.0000
  C   C592      1.0  0.33158  0.08232  0.29000  1.0000
  C   C593      1.0  0.34745  0.08230  0.30501  1.0000
  C   C594      1.0  0.35602  0.09807  0.30745  1.0000
  C   C595      1.0  0.34877  0.11351  0.29529  1.0000
  H   H1043     1.0  0.31214  0.09747  0.26650  1.0000
  H   H1044     1.0  0.32475  0.07028  0.28788  1.0000
  H   H1045     1.0  0.36803  0.09850  0.31927  1.0000
  H   H1046     1.0  0.35553  0.12559  0.29758  1.0000
  C   C596      1.0  0.27984  0.22889  0.24617  1.0000
  C   C597      1.0  0.27002  0.24471  0.24681  1.0000
  C   C598      1.0  0.27822  0.26078  0.24955  1.0000
  C   C599      1.0  0.29638  0.26129  0.25208  1.0000
  C   C600      1.0  0.30622  0.24547  0.25142  1.0000
  C   C601      1.0  0.29802  0.22935  0.24840  1.0000
  C   C602      1.0  0.25660  0.27000  0.35789  1.0000
  H   H1047     1.0  0.27049  0.27280  0.25012  1.0000
  H   H1048     1.0  0.32029  0.24568  0.25332  1.0000
  H   H1049     1.0  0.30577  0.21730  0.24790  1.0000
  H   H1050     1.0  0.41495  0.02965  0.17755  1.0000
  H   H1051     1.0  0.33630  0.03758  0.46768  1.0000
  C   C603      1.0  0.25584  0.24630  0.40765  1.0000
  C   C604      1.0  0.25857  0.09448  0.37346  1.0000
  H   H1052     1.0  0.30117  0.28678  0.14094  1.0000
  C   C605      1.0  0.47031  0.01836  0.43071  1.0000
  H   H1053     1.0  0.44198  0.01586  0.15841  1.0000
  H   H1054     1.0  0.38821  0.07463  0.29386  1.0000
  H   H1055     1.0  0.38607  0.01361  0.25962  1.0000
  H   H1056     1.0  0.26585  0.21117  0.16971  1.0000
  H   H1057     1.0  0.26222  0.15477  0.32439  1.0000
  H   H1058     1.0  0.44279  0.00772  0.06690  1.0000
  H   H1059     1.0  0.26184  0.27047  0.30050  1.0000
  H   H1060     1.0  0.27490  0.28951  0.29945  1.0000
  C   C606      1.0  0.25697  0.28614  0.40170  1.0000
  C   C607      1.0  0.25980  0.20919  0.32677  1.0000
  H   H1061     1.0  0.42216  0.09389  0.28436  1.0000
  H   H1062     1.0  0.28605  0.25363  0.18604  1.0000
  H   H1063     1.0  0.36351  0.01688  0.43295  1.0000
  N   N31       1.0  0.26978  0.27316  0.16477  1.0000
  H   H1064     1.0  0.28669  0.25218  0.14907  1.0000
  C   C608      1.0  0.26344  0.29950  0.44866  1.0000
  H   H1065     1.0  0.39975  0.03865  0.21994  1.0000
  H   H1066     1.0  0.25595  0.24453  0.24513  1.0000
  H   H1067     1.0  0.42447  0.00705  0.13802  1.0000
  H   H1068     1.0  0.25770  0.30368  0.46889  1.0000
  C   C609      1.0  0.26630  0.27824  0.13484  1.0000
  H   H1069     1.0  0.44443  0.02873  0.44147  1.0000
  H   H1070     1.0  0.28298  0.27037  0.31758  1.0000
  H   H1071     1.0  0.48083  0.02614  0.39084  1.0000
  C   C610      1.0  0.25098  0.15128  0.33628  1.0000
  H   H1072     1.0  0.27836  0.29927  0.17381  1.0000
  H   H1073     1.0  0.41036  0.05057  0.16146  1.0000
  H   H1074     1.0  0.31476  0.29536  0.19942  1.0000
  C   C611      1.0  0.27773  0.25486  0.16693  1.0000
  H   H1075     1.0  0.41674  0.05330  0.21220  1.0000
  H   H1076     1.0  0.25948  0.29877  0.39150  1.0000
  C   C612      1.0  0.26873  0.09885  0.30186  1.0000
  H   H1077     1.0  0.43824  0.00054  0.22311  1.0000
  H   H1078     1.0  0.27459  0.29026  0.45285  1.0000
  C   C613      1.0  0.48230  0.04124  0.31088  1.0000
  H   H1079     1.0  0.29274  0.08443  0.37528  1.0000
  H   H1080     1.0  0.47661  0.02735  0.44538  1.0000
  C   C614      1.0  0.40552  0.04092  0.17657  1.0000
  H   H1081     1.0  0.28446  0.28359  0.19944  1.0000
  C   C615      1.0  0.27790  0.20026  0.32573  1.0000
  H   H1082     1.0  0.26925  0.15007  0.08982  1.0000
  H   H1083     1.0  0.41997  0.00271  0.06525  1.0000
  C   C616      1.0  0.30154  0.28419  0.16364  1.0000
  C   C617      1.0  0.25185  0.14505  0.12386  1.0000
  S   S152      1.0  0.25331  0.16584  0.22412  1.0000
  C   C618      1.0  0.28294  0.28552  0.17651  1.0000
  C   C619      1.0  0.38794  0.00173  0.24784  1.0000
  H   H1084     1.0  0.42731  0.00194  0.27086  1.0000
  H   H1085     1.0  0.38387  0.01419  0.20798  1.0000
  C   C620      1.0  0.27104  0.27841  0.31262  1.0000
  H   H1086     1.0  0.41066  0.09147  0.31678  1.0000
  H   H1087     1.0  0.27019  0.27991  0.40446  1.0000
  H   H1088     1.0  0.26082  0.22211  0.31654  1.0000
  C   C621      1.0  0.45252  0.02648  0.42254  1.0000
  H   H1089     1.0  0.34858  0.03387  0.42113  1.0000
  H   H1090     1.0  0.48940  0.00948  0.35169  1.0000
  C   C622      1.0  0.27500  0.22193  0.16675  1.0000
  H   H1091     1.0  0.35703  0.11861  0.21331  1.0000
  H   H1092     1.0  0.32663  0.29632  0.16721  1.0000
  H   H1093     1.0  0.28224  0.19859  0.30377  1.0000
  H   H1094     1.0  0.28748  0.20840  0.33671  1.0000
  H   H1095     1.0  0.27778  0.18731  0.33601  1.0000
  H   H1096     1.0  0.35843  0.04804  0.21114  1.0000
  C   C623      1.0  0.32877  0.08667  0.38099  1.0000
  C   C624      1.0  0.31344  0.29756  0.17664  1.0000
  H   H1097     1.0  0.26144  0.16061  0.37513  1.0000
  H   H1098     1.0  0.34472  0.04111  0.27011  1.0000
  H   H1099     1.0  0.26891  0.26294  0.36411  1.0000
  H   H1100     1.0  0.38801  0.01873  0.99582  1.0000
  H   H1101     1.0  0.45079  0.00220  0.27103  1.0000
  H   H1102     1.0  0.46787  0.00603  0.44195  1.0000
  N   N32       1.0  0.28564  0.10558  0.34730  1.0000
  C   C625      1.0  0.29795  0.09699  0.36808  1.0000
  C   C626      1.0  0.26860  0.11007  0.36170  1.0000
  C   C627      1.0  0.28300  0.09318  0.32334  1.0000
  C   C628      1.0  0.29293  0.12217  0.33590  1.0000
  C   C629      1.0  0.30015  0.13504  0.35774  1.0000
  C   C630      1.0  0.31659  0.09241  0.35722  1.0000
  H   H1103     1.0  0.34663  0.06365  0.23313  1.0000
  H   H1104     1.0  0.49025  0.02918  0.01820  1.0000
  H   H1105     1.0  0.36586  0.03905  0.44500  1.0000
  C   C631      1.0  0.30653  0.15150  0.34373  1.0000
  H   H1106     1.0  0.25967  0.11748  0.34748  1.0000
  H   H1107     1.0  0.34343  0.10940  0.18671  1.0000
  H   H1108     1.0  0.28090  0.08575  0.26614  1.0000
  H   H1109     1.0  0.29888  0.10512  0.38724  1.0000
  H   H1110     1.0  0.27071  0.11901  0.37958  1.0000
  H   H1111     1.0  0.33998  0.10400  0.22266  1.0000
  H   H1112     1.0  0.28005  0.07993  0.33101  1.0000
  H   H1113     1.0  0.29535  0.09129  0.31149  1.0000
  H   H1114     1.0  0.30347  0.11924  0.32051  1.0000
  H   H1115     1.0  0.28275  0.12955  0.32380  1.0000
  H   H1116     1.0  0.31143  0.12910  0.36922  1.0000
  H   H1117     1.0  0.28998  0.13908  0.37303  1.0000
  H   H1118     1.0  0.31609  0.08140  0.34225  1.0000
  H   H1119     1.0  0.32255  0.10355  0.34665  1.0000
  H   H1120     1.0  0.27122  0.11191  0.29321  1.0000
  H   H1121     1.0  0.38983  0.09577  0.27816  1.0000
  H   H1122     1.0  0.37179  0.09389  0.18640  1.0000
  H   H1123     1.0  0.42037  0.07257  0.29997  1.0000
  H   H1124     1.0  0.34192  0.08326  0.37250  1.0000
  H   H1125     1.0  0.25557  0.09926  0.31151  1.0000
  H   H1126     1.0  0.29550  0.15869  0.33345  1.0000
  H   H1127     1.0  0.31226  0.16019  0.35959  1.0000
  H   H1128     1.0  0.31670  0.14815  0.32794  1.0000
  H   H1129     1.0  0.33493  0.03456  0.23772  1.0000
  H   H1130     1.0  0.25643  0.08441  0.35734  1.0000
  C   C632      1.0  0.48780  0.05823  0.36136  1.0000
  H   H1131     1.0  0.32378  0.07498  0.39155  1.0000
  H   H1132     1.0  0.27186  0.29340  0.35019  1.0000
  H   H1133     1.0  0.26268  0.24003  0.38969  1.0000
  N   N33       1.0  0.38397  0.07095  0.23369  1.0000
  C   C633      1.0  0.39043  0.06484  0.20550  1.0000
  C   C634      1.0  0.37366  0.08807  0.23109  1.0000
  C   C635      1.0  0.39983  0.07393  0.25174  1.0000
  C   C636      1.0  0.37320  0.05739  0.24763  1.0000
  C   C637      1.0  0.35611  0.05239  0.23286  1.0000
  C   C638      1.0  0.40364  0.04903  0.20554  1.0000
  C   C639      1.0  0.39639  0.08275  0.28048  1.0000
  C   C640      1.0  0.36286  0.09112  0.20394  1.0000
  C   C641      1.0  0.35010  0.10675  0.20692  1.0000
  C   C642      1.0  0.34747  0.03748  0.24809  1.0000
  C   C643      1.0  0.41348  0.08532  0.29624  1.0000
  H   H1134     1.0  0.39705  0.07567  0.19481  1.0000
  H   H1135     1.0  0.37942  0.06157  0.19164  1.0000
  H   H1136     1.0  0.36473  0.08990  0.24923  1.0000
  H   H1137     1.0  0.38254  0.09927  0.23197  1.0000
  H   H1138     1.0  0.40923  0.08210  0.24036  1.0000
  H   H1139     1.0  0.40694  0.06134  0.25629  1.0000
  H   H1140     1.0  0.38108  0.04530  0.25169  1.0000
  H   H1141     1.0  0.36911  0.06198  0.26850  1.0000
  C   C644      1.0  0.34420  0.02546  0.46368  1.0000
  C   C645      1.0  0.25607  0.14689  0.09543  1.0000
  H   H1142     1.0  0.39282  0.03604  0.16917  1.0000
  H   H1143     1.0  0.48983  0.06519  0.38065  1.0000
  H   H1144     1.0  0.44691  0.00155  0.12932  1.0000
  C   C646      1.0  0.38676  0.00204  0.21858  1.0000
  H   H1145     1.0  0.47458  0.00417  0.39315  1.0000
  H   H1146     1.0  0.45409  0.03919  0.41197  1.0000
  H   H1147     1.0  0.30813  0.31100  0.17281  1.0000
  H   H1148     1.0  0.26830  0.31124  0.43806  1.0000
  C   C647      1.0  0.35632  0.02904  0.43931  1.0000
  C   C648      1.0  0.48168  0.01446  0.40458  1.0000
  C   C649      1.0  0.26824  0.08613  0.27737  1.0000
  C   C650      1.0  0.26511  0.23952  0.16906  1.0000
  C   C651      1.0  0.39040  0.00529  0.98975  1.0000
  H   H1149     1.0  0.28118  0.22042  0.14595  1.0000
  H   H1150     1.0  0.26018  0.22278  0.43207  1.0000
  C   C652      1.0  0.26230  0.28529  0.33913  1.0000
  H   H1151     1.0  0.25688  0.27251  0.20462  1.0000
  H   H1152     1.0  0.44541  0.01766  0.40842  1.0000
  H   H1153     1.0  0.38957  0.99568  0.03225  1.0000
  H   H1154     1.0  0.25784  0.09049  0.26252  1.0000
  H   H1155     1.0  0.33532  0.01517  0.45682  1.0000
  H   H1156     1.0  0.24929  0.26076  0.34461  1.0000
  H   H1157     1.0  0.25107  0.29386  0.33267  1.0000
  H   H1158     1.0  0.25023  0.19839  0.28907  1.0000
  H   H1159     1.0  0.26335  0.29255  0.13337  1.0000
  H   H1160     1.0  0.25637  0.21137  0.34890  1.0000
  H   H1161     1.0  0.25854  0.23981  0.18966  1.0000
  C   C653      1.0  0.25171  0.26852  0.11949  1.0000
  C   C654      1.0  0.24960  0.29081  0.43084  1.0000
  C   C655      1.0  0.25052  0.15454  0.36512  1.0000
  H   H1162     1.0  0.25270  0.20145  0.03215  1.0000
  C   C656      1.0  0.43343  0.99699  0.06726  1.0000
  C   C657      1.0  0.25352  0.27499  0.18239  1.0000
  H   H1163     1.0  0.25654  0.25519  0.11385  1.0000
  H   H1164     1.0  0.25797  0.27906  0.07857  1.0000
  S   S153      1.0  0.29074  0.32622  0.29298  1.0000
  H   H1165     1.0  0.25158  0.30372  0.18634  1.0000
  H   H1166     1.0  0.25493  0.24005  0.15271  1.0000
  C   C658      1.0  0.24913  0.23173  0.42597  1.0000
  C   C659      1.0  0.24800  0.18796  0.03031  1.0000
  H   H1167     1.0  0.24825  0.18421  0.00795  1.0000
  H   H1168     1.0  0.24716  0.14568  0.05249  1.0000
  C   C660      1.0  0.24609  0.19826  0.31126  1.0000
  H   H1169     1.0  0.24796  0.18445  0.31783  1.0000
  N   N34       1.0  0.24584  0.27514  0.38312  1.0000
  H   H1170     1.0  0.46249  0.99513  0.18313  1.0000
  C   C661      1.0  0.24649  0.27785  0.09243  1.0000
  H   H1171     1.0  0.24546  0.27922  0.44248  1.0000
  Fe  Fe74      1.0  0.25850  0.14639  0.75854  1.0000
  S   S154      1.0  0.28516  0.14873  0.77696  1.0000
  H   H1172     1.0  0.43132  0.06632  0.74060  1.0000
  Fe  Fe75      1.0  0.27174  0.14482  0.69802  1.0000
  S   S155      1.0  0.29972  0.14699  0.71316  1.0000
  C   C662      1.0  0.33069  0.03117  0.71138  1.0000
  Fe  Fe76      1.0  0.29370  0.12760  0.74697  1.0000
  S   S156      1.0  0.30895  0.10219  0.76012  1.0000
  Fe  Fe77      1.0  0.28900  0.16799  0.74221  1.0000
  S   S157      1.0  0.30317  0.19305  0.75219  1.0000
  S   S158      1.0  0.26631  0.12407  0.73006  1.0000
  S   S159      1.0  0.25880  0.30438  0.73931  1.0000
  H   H1173     1.0  0.30143  0.04590  0.54231  1.0000
  H   H1174     1.0  0.38829  0.08400  0.88607  1.0000
  Fe  Fe78      1.0  0.28654  0.30219  0.75397  1.0000
  S   S160      1.0  0.30253  0.27655  0.75532  1.0000
  H   H1175     1.0  0.31059  0.04897  0.87504  1.0000
  Fe  Fe79      1.0  0.39499  0.02100  0.88837  1.0000
  S   S161      1.0  0.40968  0.04463  0.87473  1.0000
  S   S162      1.0  0.39064  0.01838  0.93587  1.0000
  Fe  Fe80      1.0  0.39080  0.00959  0.82701  1.0000
  S   S163      1.0  0.40515  0.03207  0.81025  1.0000
  H   H1176     1.0  0.38023  0.03582  0.63602  1.0000
  Fe  Fe81      1.0  0.42431  0.02660  0.84514  1.0000
  S   S164      1.0  0.45304  0.01880  0.83749  1.0000
  Fe  Fe82      1.0  0.38905  0.04806  0.84075  1.0000
  S   S165      1.0  0.37697  0.07502  0.82872  1.0000
  H   H1177     1.0  0.39693  0.07343  0.91685  1.0000
  S   S166      1.0  0.37359  0.02560  0.85609  1.0000
  H   H1178     1.0  0.33689  0.05137  0.66208  1.0000
  H   H1179     1.0  0.32574  0.08754  0.66663  1.0000
  H   H1180     1.0  0.33844  0.04972  0.74264  1.0000
  C   C663      1.0  0.38516  0.00891  0.74908  1.0000
  H   H1181     1.0  0.38649  0.02398  0.71129  1.0000
  H   H1182     1.0  0.38526  0.02017  0.76260  1.0000
  C   C664      1.0  0.47294  0.02995  0.83787  1.0000
  C   C665      1.0  0.47363  0.04802  0.84120  1.0000
  H   H1183     1.0  0.24849  0.20892  0.82302  1.0000
  H   H1184     1.0  0.46166  0.05575  0.84360  1.0000
  H   H1185     1.0  0.35587  0.04055  0.72300  1.0000
  C   C666      1.0  0.32765  0.09516  0.78025  1.0000
  C   C667      1.0  0.33976  0.10671  0.79097  1.0000
  C   C668      1.0  0.35470  0.10030  0.80566  1.0000
  C   C669      1.0  0.35791  0.08228  0.80972  1.0000
  C   C670      1.0  0.34575  0.07074  0.79911  1.0000
  C   C671      1.0  0.33072  0.07715  0.78473  1.0000
  H   H1186     1.0  0.33770  0.12057  0.78775  1.0000
  H   H1187     1.0  0.36392  0.10942  0.81376  1.0000
  H   H1188     1.0  0.34796  0.05688  0.80193  1.0000
  H   H1189     1.0  0.32140  0.06807  0.77689  1.0000
  C   C672      1.0  0.30115  0.21630  0.75250  1.0000
  C   C673      1.0  0.31627  0.22526  0.75877  1.0000
  C   C674      1.0  0.31614  0.24351  0.75945  1.0000
  C   C675      1.0  0.30082  0.25342  0.75433  1.0000
  C   C676      1.0  0.28537  0.24463  0.74841  1.0000
  C   C677      1.0  0.28558  0.22606  0.74726  1.0000
  H   H1190     1.0  0.32836  0.21800  0.76286  1.0000
  H   H1191     1.0  0.32813  0.25002  0.76402  1.0000
  H   H1192     1.0  0.27344  0.25210  0.74437  1.0000
  H   H1193     1.0  0.27383  0.21936  0.74207  1.0000
  H   H1194     1.0  0.34319  0.05405  0.93284  1.0000
  H   H1195     1.0  0.24931  0.19254  0.86688  1.0000
  H   H1196     1.0  0.29420  0.17363  0.86998  1.0000
  C   C678      1.0  0.35276  0.08083  0.90009  1.0000
  H   H1197     1.0  0.31799  0.07061  0.72377  1.0000
  C   C679      1.0  0.36764  0.04328  0.63837  1.0000
  H   H1198     1.0  0.29419  0.08302  0.67139  1.0000
  H   H1199     1.0  0.30631  0.23014  0.84802  1.0000
  H   H1200     1.0  0.30646  0.23347  0.65946  1.0000
  H   H1201     1.0  0.26221  0.12371  0.87097  1.0000
  C   C680      1.0  0.28642  0.21579  0.82592  1.0000
  N   N35       1.0  0.34400  0.01433  0.51464  1.0000
  C   C681      1.0  0.38076  0.08545  0.74027  1.0000
  H   H1202     1.0  0.32643  0.09786  0.70025  1.0000
  H   H1203     1.0  0.43017  0.06936  0.77784  1.0000
  C   C682      1.0  0.36915  0.07034  0.91073  1.0000
  C   C683      1.0  0.40465  0.00974  0.48564  1.0000
  C   C684      1.0  0.26080  0.27915  0.67521  1.0000
  H   H1204     1.0  0.32137  0.30256  0.68709  1.0000
  S   S167      1.0  0.26178  0.16689  0.72548  1.0000
  H   H1205     1.0  0.32866  0.31778  0.83250  1.0000
  H   H1206     1.0  0.34893  0.07056  0.66140  1.0000
  H   H1207     1.0  0.31668  0.03497  0.71395  1.0000
  H   H1208     1.0  0.31467  0.06019  0.69116  1.0000
  H   H1209     1.0  0.28495  0.24108  0.84683  1.0000
  C   C685      1.0  0.28866  0.17364  0.84857  1.0000
  H   H1210     1.0  0.41117  0.02174  0.48994  1.0000
  H   H1211     1.0  0.35708  0.03512  0.63010  1.0000
  C   C686      1.0  0.42845  0.05984  0.76066  1.0000
  H   H1212     1.0  0.44354  0.03628  0.72202  1.0000
  H   H1213     1.0  0.37586  0.05489  0.67639  1.0000
  N   N36       1.0  0.27386  0.18705  0.84589  1.0000
  H   H1214     1.0  0.42451  0.02886  0.73797  1.0000
  C   C687      1.0  0.26653  0.18139  0.89805  1.0000
  C   C688      1.0  0.30079  0.09225  0.68544  1.0000
  H   H1215     1.0  0.32519  0.00446  0.72234  1.0000
  N   N37       1.0  0.44755  0.01266  0.74665  1.0000
  H   H1216     1.0  0.38734  0.02428  0.58351  1.0000
  H   H1217     1.0  0.41463  0.05589  0.76066  1.0000
  H   H1218     1.0  0.37279  0.09516  0.75234  1.0000
  H   H1219     1.0  0.25738  0.29334  0.67712  1.0000
  H   H1220     1.0  0.46462  0.02035  0.78016  1.0000
  H   H1221     1.0  0.31915  0.09323  0.90841  1.0000
  C   C689      1.0  0.30461  0.17595  0.82941  1.0000
  C   C690      1.0  0.31749  0.16034  0.83162  1.0000
  H   H1222     1.0  0.34546  0.08404  0.73113  1.0000
  H   H1223     1.0  0.29440  0.09211  0.70617  1.0000
  H   H1224     1.0  0.29904  0.10560  0.67669  1.0000
  H   H1225     1.0  0.27466  0.18872  0.80061  1.0000
  H   H1226     1.0  0.36610  0.06331  0.75143  1.0000
  C   C691      1.0  0.32326  0.06937  0.70219  1.0000
  C   C692      1.0  0.48863  0.02013  0.83462  1.0000
  H   H1227     1.0  0.35702  0.08567  0.69951  1.0000
  H   H1228     1.0  0.33308  0.02768  0.68925  1.0000
  S   S168      1.0  0.26801  0.14465  0.64996  1.0000
  C   C693      1.0  0.48991  0.05612  0.84145  1.0000
  C   C694      1.0  0.25098  0.13554  0.83397  1.0000
  H   H1229     1.0  0.29624  0.20838  0.81343  1.0000
  H   H1230     1.0  0.27382  0.16879  0.90141  1.0000
  C   C695      1.0  0.29383  0.23076  0.66962  1.0000
  C   C696      1.0  0.26827  0.27952  0.59545  1.0000
  C   C697      1.0  0.38561  0.01106  0.71995  1.0000
  C   C698      1.0  0.33840  0.05652  0.87687  1.0000
  H   H1231     1.0  0.31174  0.18767  0.83578  1.0000
  H   H1232     1.0  0.31116  0.14811  0.82540  1.0000
  H   H1233     1.0  0.32868  0.16229  0.81743  1.0000
  H   H1234     1.0  0.32256  0.15897  0.85324  1.0000
  H   H1235     1.0  0.31778  0.06060  0.84530  1.0000
  H   H1236     1.0  0.29840  0.09397  0.84690  1.0000
  H   H1237     1.0  0.30075  0.17727  0.80731  1.0000
  C   C699      1.0  0.36800  0.02206  0.55057  1.0000
  H   H1238     1.0  0.26119  0.13049  0.82035  1.0000
  C   C700      1.0  0.24807  0.19581  0.81331  1.0000
  H   H1239     1.0  0.49060  0.03359  0.89239  1.0000
  H   H1240     1.0  0.31342  0.02993  0.83384  1.0000
  C   C701      1.0  0.35314  0.07615  0.71565  1.0000
  H   H1241     1.0  0.43806  0.03845  0.78585  1.0000
  C   C702      1.0  0.43877  0.03031  0.74157  1.0000
  C   C703      1.0  0.36980  0.06999  0.73192  1.0000
  H   H1242     1.0  0.38605  0.09184  0.72151  1.0000
  H   H1243     1.0  0.39184  0.08087  0.75364  1.0000
  C   C704      1.0  0.36458  0.04746  0.66917  1.0000
  H   H1244     1.0  0.47252  0.03630  0.73151  1.0000
  H   H1245     1.0  0.45429  0.04876  0.76577  1.0000
  C   C705      1.0  0.28006  0.20527  0.85146  1.0000
  C   C706      1.0  0.44077  0.04401  0.76514  1.0000
  H   H1246     1.0  0.28363  0.16031  0.84510  1.0000
  N   N38       1.0  0.27141  0.27578  0.64918  1.0000
  H   H1247     1.0  0.37125  0.05809  0.89868  1.0000
  C   C707      1.0  0.28595  0.28856  0.64793  1.0000
  H   H1248     1.0  0.30428  0.04107  0.57879  1.0000
  C   C708      1.0  0.27861  0.25721  0.64716  1.0000
  C   C709      1.0  0.28335  0.24773  0.67496  1.0000
  H   H1249     1.0  0.34469  0.04480  0.88684  1.0000
  H   H1250     1.0  0.30891  0.30931  0.84654  1.0000
  C   C710      1.0  0.29921  0.28826  0.67232  1.0000
  H   H1251     1.0  0.48370  0.01595  0.72408  1.0000
  H   H1252     1.0  0.48968  0.03970  0.77493  1.0000
  H   H1253     1.0  0.45548  0.03635  0.89576  1.0000
  H   H1254     1.0  0.37818  0.06079  0.71983  1.0000
  H   H1255     1.0  0.37758  0.02649  0.53501  1.0000
  C   C711      1.0  0.39241  0.00117  0.96123  1.0000
  H   H1256     1.0  0.29397  0.28636  0.62891  1.0000
  H   H1257     1.0  0.28033  0.30209  0.64617  1.0000
  C   C712      1.0  0.33423  0.01475  0.72879  1.0000
  C   C713      1.0  0.33258  0.06354  0.92671  1.0000
  H   H1258     1.0  0.25951  0.26894  0.96099  1.0000
  H   H1259     1.0  0.29042  0.25666  0.63367  1.0000
  H   H1260     1.0  0.36034  0.03358  0.55825  1.0000
  H   H1261     1.0  0.29105  0.25578  0.68925  1.0000
  C   C714      1.0  0.29452  0.23282  0.83498  1.0000
  H   H1262     1.0  0.31997  0.30089  0.64968  1.0000
  H   H1263     1.0  0.32849  0.02283  0.86075  1.0000
  H   H1264     1.0  0.26916  0.24873  0.63645  1.0000
  H   H1265     1.0  0.29270  0.29016  0.69273  1.0000
  H   H1266     1.0  0.30696  0.27581  0.67236  1.0000
  H   H1267     1.0  0.27515  0.19221  0.90356  1.0000
  H   H1268     1.0  0.28633  0.22183  0.65627  1.0000
  S   S169      1.0  0.41057  0.00298  0.86039  1.0000
  H   H1269     1.0  0.30160  0.11229  0.87009  1.0000
  H   H1270     1.0  0.27537  0.21928  0.81179  1.0000
  C   C715      1.0  0.25949  0.27947  0.62453  1.0000
  H   H1271     1.0  0.29673  0.22410  0.68971  1.0000
  C   C716      1.0  0.26555  0.18526  0.81750  1.0000
  H   H1272     1.0  0.35093  0.09245  0.91388  1.0000
  C   C717      1.0  0.32027  0.08743  0.68795  1.0000
  H   H1273     1.0  0.36429  0.03482  0.68020  1.0000
  H   H1274     1.0  0.26269  0.17137  0.81330  1.0000
  C   C718      1.0  0.45599  0.02703  0.91344  1.0000
  C   C719      1.0  0.43177  0.99820  0.70529  1.0000
  C   C720      1.0  0.34738  0.05829  0.67327  1.0000
  N   N39       1.0  0.34193  0.06227  0.70292  1.0000
  C   C721      1.0  0.34239  0.04617  0.72098  1.0000
  C   C722      1.0  0.32183  0.05069  0.86107  1.0000
  H   H1275     1.0  0.29853  0.24018  0.81626  1.0000
  H   H1276     1.0  0.24909  0.26972  0.62343  1.0000
  H   H1277     1.0  0.25257  0.29238  0.62709  1.0000
  C   C723      1.0  0.37833  0.01447  0.57526  1.0000
  C   C724      1.0  0.38556  0.08101  0.90823  1.0000
  H   H1278     1.0  0.27605  0.29138  0.59301  1.0000
  H   H1279     1.0  0.47182  0.00131  0.76266  1.0000
  H   H1280     1.0  0.32247  0.03277  0.50794  1.0000
  C   C725      1.0  0.38481  0.99657  0.70207  1.0000
  H   H1281     1.0  0.30388  0.06122  0.92376  1.0000
  H   H1282     1.0  0.26858  0.14912  0.59036  1.0000
  H   H1283     1.0  0.26851  0.27601  0.69426  1.0000
  C   C726      1.0  0.31560  0.05342  0.93025  1.0000
  H   H1284     1.0  0.33169  0.02465  0.56945  1.0000
  C   C727      1.0  0.32464  0.09512  0.86447  1.0000
  C   C728      1.0  0.32526  0.03346  0.84571  1.0000
  H   H1285     1.0  0.45616  0.01129  0.70386  1.0000
  H   H1286     1.0  0.33260  0.07417  0.94260  1.0000
  H   H1287     1.0  0.42263  0.00269  0.75954  1.0000
  H   H1288     1.0  0.29078  0.20481  0.86720  1.0000
  H   H1289     1.0  0.44491  0.01815  0.91116  1.0000
  H   H1290     1.0  0.32604  0.31636  0.86974  1.0000
  C   C729      1.0  0.32257  0.02702  0.55176  1.0000
  C   C730      1.0  0.31224  0.30277  0.66906  1.0000
  C   C731      1.0  0.31909  0.31909  0.84980  1.0000
  H   H1291     1.0  0.26054  0.31477  0.84085  1.0000
  H   H1292     1.0  0.48823  0.00615  0.83196  1.0000
  H   H1293     1.0  0.24759  0.25935  0.91553  1.0000
  H   H1294     1.0  0.35632  0.08597  0.87925  1.0000
  H   H1295     1.0  0.31647  0.04111  0.91807  1.0000
  S   S170      1.0  0.29547  0.32483  0.72814  1.0000
  H   H1296     1.0  0.30093  0.04079  0.96268  1.0000
  H   H1297     1.0  0.34774  0.06025  0.86036  1.0000
  H   H1298     1.0  0.45438  0.03435  0.93329  1.0000
  H   H1299     1.0  0.25432  0.17004  0.86205  1.0000
  C   C732      1.0  0.33255  0.02958  0.52406  1.0000
  C   C733      1.0  0.24900  0.31740  0.85319  1.0000
  H   H1300     1.0  0.47337  0.00747  0.93145  1.0000
  H   H1301     1.0  0.33035  0.08705  0.84748  1.0000
  H   H1302     1.0  0.33390  0.10555  0.86935  1.0000
  C   C734      1.0  0.44922  0.00316  0.71921  1.0000
  H   H1303     1.0  0.36826  0.05543  0.62593  1.0000
  C   C735      1.0  0.24762  0.27544  0.95200  1.0000
  C   C736      1.0  0.32150  0.08395  0.89080  1.0000
  H   H1304     1.0  0.31381  0.01584  0.55020  1.0000
  H   H1305     1.0  0.30891  0.07748  0.88795  1.0000
  Fe  Fe83      1.0  0.25525  0.32283  0.77569  1.0000
  H   H1306     1.0  0.34886  0.00182  0.55459  1.0000
  H   H1307     1.0  0.34027  0.04156  0.52597  1.0000
  N   N40       1.0  0.33603  0.07096  0.89818  1.0000
  C   C737      1.0  0.25460  0.27987  0.57214  1.0000
  C   C738      1.0  0.40186  0.99789  0.50767  1.0000
  C   C739      1.0  0.49486  0.02590  0.97385  1.0000
  C   C740      1.0  0.46551  0.01436  0.75907  1.0000
  H   H1308     1.0  0.43564  0.00979  0.78712  1.0000
  C   C741      1.0  0.47325  0.01642  0.91336  1.0000
  H   H1309     1.0  0.36786  0.06705  0.93311  1.0000
  H   H1310     1.0  0.25494  0.20765  0.49682  1.0000
  C   C742      1.0  0.35618  0.00815  0.53758  1.0000
  H   H1311     1.0  0.42324  0.00996  0.70172  1.0000
  H   H1312     1.0  0.26949  0.21353  0.86112  1.0000
  C   C743      1.0  0.30774  0.10391  0.85370  1.0000
  H   H1313     1.0  0.25423  0.26916  0.82824  1.0000
  H   H1314     1.0  0.38405  0.09340  0.92012  1.0000
  C   C744      1.0  0.47860  0.02448  0.74116  1.0000
  C   C745      1.0  0.35472  0.02001  0.49017  1.0000
  H   H1315     1.0  0.31953  0.05475  0.56150  1.0000
  H   H1316     1.0  0.40627  0.00087  0.52850  1.0000
  C   C746      1.0  0.31129  0.04321  0.55892  1.0000
  C   C747      1.0  0.25150  0.13165  0.86263  1.0000
  H   H1317     1.0  0.33622  0.03455  0.83083  1.0000
  H   H1318     1.0  0.27698  0.26782  0.59255  1.0000
  H   H1319     1.0  0.44650  0.99601  0.95926  1.0000
  H   H1320     1.0  0.26117  0.28064  0.55161  1.0000
  H   H1321     1.0  0.31065  0.11218  0.83542  1.0000
  H   H1322     1.0  0.48581  0.03998  0.92663  1.0000
  H   H1323     1.0  0.34781  0.00965  0.72559  1.0000
  C   C748      1.0  0.48923  0.02834  0.91384  1.0000
  H   H1324     1.0  0.25595  0.17934  0.93987  1.0000
  C   C749      1.0  0.26024  0.18268  0.86731  1.0000
  C   C750      1.0  0.49411  0.03021  0.75868  1.0000
  H   H1325     1.0  0.30533  0.31573  0.66838  1.0000
  H   H1326     1.0  0.27133  0.24432  0.68626  1.0000
  H   H1327     1.0  0.36942  0.01068  0.59227  1.0000
  H   H1328     1.0  0.31163  0.06010  0.97409  1.0000
  C   C751      1.0  0.25115  0.18184  0.91833  1.0000
  H   H1329     1.0  0.36258  0.03141  0.49589  1.0000
  S   S171      1.0  0.28252  0.31913  0.79212  1.0000
  H   H1330     1.0  0.47354  0.00837  0.89407  1.0000
  H   H1331     1.0  0.33220  0.01754  0.75130  1.0000
  H   H1332     1.0  0.26267  0.31521  0.89249  1.0000
  H   H1333     1.0  0.32144  0.00413  0.49336  1.0000
  C   C752      1.0  0.25531  0.14616  0.59575  1.0000
  C   C753      1.0  0.25017  0.31760  0.88244  1.0000
  H   H1334     1.0  0.38622  0.00278  0.56867  1.0000
  C   C754      1.0  0.43642  0.00286  0.76683  1.0000
  H   H1335     1.0  0.36518  0.99772  0.52969  1.0000
  C   C755      1.0  0.31300  0.04831  0.96070  1.0000
  C   C756      1.0  0.33250  0.99948  0.50679  1.0000
  S   S172      1.0  0.38416  0.99966  0.66559  1.0000
  H   H1336     1.0  0.25382  0.20536  0.77174  1.0000
  H   H1337     1.0  0.32420  0.04001  0.96825  1.0000
  H   H1338     1.0  0.49035  0.07010  0.84405  1.0000
  H   H1339     1.0  0.48078  0.02385  0.97010  1.0000
  H   H1340     1.0  0.36458  0.00969  0.48443  1.0000
  C   C757      1.0  0.25113  0.14330  0.62397  1.0000
  H   H1341     1.0  0.44225  0.99802  0.66293  1.0000
  H   H1342     1.0  0.25164  0.28709  0.94029  1.0000
  H   H1343     1.0  0.24558  0.29144  0.57434  1.0000
  H   H1344     1.0  0.24613  0.14729  0.55291  1.0000
  H   H1345     1.0  0.24690  0.26787  0.57253  1.0000
  C   C758      1.0  0.37498  0.42900  0.25403  1.0000
  H   H1346     1.0  0.26554  0.41302  0.33096  1.0000
  C   C759      1.0  0.27780  0.37760  0.43938  1.0000
  H   H1347     1.0  0.40226  0.40679  0.27130  1.0000
  Fe  Fe84      1.0  0.29820  0.34836  0.26477  1.0000
  S   S173      1.0  0.31194  0.37305  0.28159  1.0000
  S   S174      1.0  0.27038  0.35365  0.24964  1.0000
  Fe  Fe85      1.0  0.39332  0.43333  0.34463  1.0000
  S   S175      1.0  0.37711  0.45717  0.35701  1.0000
  S   S176      1.0  0.38248  0.40709  0.32846  1.0000
  Fe  Fe86      1.0  0.42838  0.45241  0.35510  1.0000
  S   S177      1.0  0.41367  0.47724  0.36707  1.0000
  S   S178      1.0  0.45770  0.45758  0.35995  1.0000
  Fe  Fe87      1.0  0.39632  0.46073  0.39279  1.0000
  S   S179      1.0  0.39021  0.46486  0.43984  1.0000
  Fe  Fe88      1.0  0.39619  0.47174  0.33056  1.0000
  S   S180      1.0  0.38818  0.49367  0.30053  1.0000
  S   S181      1.0  0.41148  0.43580  0.38203  1.0000
  S   S182      1.0  0.41176  0.44802  0.31685  1.0000
  Fe  Fe89      1.0  0.39529  0.51303  0.13873  1.0000
  S   S183      1.0  0.40719  0.53861  0.14893  1.0000
  S   S184      1.0  0.39599  0.49017  0.16891  1.0000
  Fe  Fe90      1.0  0.38722  0.52285  0.07781  1.0000
  S   S185      1.0  0.39804  0.54944  0.08515  1.0000
  S   S186      1.0  0.37948  0.51882  0.03168  1.0000
  Fe  Fe91      1.0  0.42039  0.53564  0.10722  1.0000
  S   S187      1.0  0.44734  0.54228  0.09083  1.0000
  Fe  Fe92      1.0  0.38377  0.55049  0.12613  1.0000
  S   S188      1.0  0.37288  0.57695  0.14305  1.0000
  S   S189      1.0  0.41012  0.50920  0.09846  1.0000
  S   S190      1.0  0.37115  0.52477  0.11764  1.0000
  H   H1348     1.0  0.38606  0.45766  0.99782  1.0000
  C   C760      1.0  0.46644  0.58334  0.14542  1.0000
  H   H1349     1.0  0.47172  0.48322  0.27947  1.0000
  H   H1350     1.0  0.33308  0.45003  0.31345  1.0000
  H   H1351     1.0  0.27128  0.33342  0.10729  1.0000
  H   H1352     1.0  0.39302  0.42768  0.21825  1.0000
  Fe  Fe93      1.0  0.28985  0.63520  0.21154  1.0000
  S   S191      1.0  0.30187  0.60840  0.19753  1.0000
  S   S192      1.0  0.26203  0.63388  0.22727  1.0000
  C   C761      1.0  0.35259  0.58605  0.15593  1.0000
  C   C762      1.0  0.35208  0.60298  0.16745  1.0000
  C   C763      1.0  0.33663  0.61028  0.17951  1.0000
  C   C764      1.0  0.32146  0.60064  0.18060  1.0000
  C   C765      1.0  0.32190  0.58383  0.16865  1.0000
  C   C766      1.0  0.33724  0.57668  0.15611  1.0000
  H   H1353     1.0  0.36379  0.61046  0.16737  1.0000
  H   H1354     1.0  0.33661  0.62321  0.18852  1.0000
  H   H1355     1.0  0.31029  0.57622  0.16925  1.0000
  H   H1356     1.0  0.33731  0.56376  0.14707  1.0000
  C   C767      1.0  0.46843  0.53914  0.10577  1.0000
  C   C768      1.0  0.48310  0.54310  0.08973  1.0000
  C   C769      1.0  0.47089  0.53402  0.13349  1.0000
  S   S193      1.0  0.27048  0.33535  0.16733  1.0000
  H   H1357     1.0  0.45978  0.53068  0.14592  1.0000
  C   C770      1.0  0.39232  0.48114  0.46663  1.0000
  H   H1358     1.0  0.42621  0.63311  0.18167  1.0000
  C   C771      1.0  0.38341  0.48415  0.01309  1.0000
  C   C772      1.0  0.38080  0.50175  0.00607  1.0000
  C   C773      1.0  0.40547  0.41511  0.25321  1.0000
  C   C774      1.0  0.39546  0.49865  0.46083  1.0000
  H   H1359     1.0  0.33763  0.46492  0.22096  1.0000
  H   H1360     1.0  0.38452  0.48045  0.03477  1.0000
  H   H1361     1.0  0.25658  0.36884  0.36099  1.0000
  H   H1362     1.0  0.39690  0.50271  0.43941  1.0000
  C   C775      1.0  0.39313  0.49297  0.26446  1.0000
  C   C776      1.0  0.39104  0.50826  0.24856  1.0000
  C   C777      1.0  0.39267  0.50780  0.21931  1.0000
  C   C778      1.0  0.39645  0.49199  0.20573  1.0000
  C   C779      1.0  0.39956  0.47690  0.22176  1.0000
  C   C780      1.0  0.39798  0.47738  0.25101  1.0000
  H   H1363     1.0  0.38796  0.52046  0.25899  1.0000
  H   H1364     1.0  0.39073  0.51954  0.20719  1.0000
  H   H1365     1.0  0.40277  0.46466  0.21145  1.0000
  H   H1366     1.0  0.39997  0.46560  0.26303  1.0000
  C   C781      1.0  0.48006  0.43170  0.33740  1.0000
  C   C782      1.0  0.47823  0.44814  0.34990  1.0000
  C   C783      1.0  0.44297  0.60105  0.16903  1.0000
  H   H1367     1.0  0.46858  0.42426  0.33330  1.0000
  H   H1368     1.0  0.26967  0.38955  0.44368  1.0000
  C   C784      1.0  0.33162  0.38172  0.29604  1.0000
  C   C785      1.0  0.34765  0.37239  0.29657  1.0000
  C   C786      1.0  0.36290  0.38025  0.30686  1.0000
  C   C787      1.0  0.36248  0.39751  0.31716  1.0000
  C   C788      1.0  0.34636  0.40666  0.31736  1.0000
  C   C789      1.0  0.33118  0.39892  0.30665  1.0000
  H   H1369     1.0  0.34841  0.35920  0.28854  1.0000
  H   H1370     1.0  0.37521  0.37291  0.30661  1.0000
  H   H1371     1.0  0.34567  0.41984  0.32538  1.0000
  H   H1372     1.0  0.31907  0.40648  0.30607  1.0000
  H   H1373     1.0  0.39558  0.59475  0.09475  1.0000
  H   H1374     1.0  0.47000  0.46230  0.29586  1.0000
  S   S194      1.0  0.29679  0.65373  0.24631  1.0000
  C   C790      1.0  0.29804  0.62216  0.12504  1.0000
  H   H1375     1.0  0.33871  0.42493  0.21162  1.0000
  H   H1376     1.0  0.42611  0.57153  0.16827  1.0000
  C   C791      1.0  0.44016  0.56969  0.16281  1.0000
  S   S195      1.0  0.26436  0.65530  0.30787  1.0000
  H   H1377     1.0  0.26756  0.33327  0.39590  1.0000
  H   H1378     1.0  0.41524  0.40792  0.24013  1.0000
  H   H1379     1.0  0.30615  0.60995  0.12635  1.0000
  H   H1380     1.0  0.33317  0.34717  0.36040  1.0000
  H   H1381     1.0  0.33094  0.39292  0.20434  1.0000
  Fe  Fe94      1.0  0.26358  0.33080  0.27650  1.0000
  H   H1382     1.0  0.47084  0.60660  0.11909  1.0000
  H   H1383     1.0  0.49045  0.50146  0.01450  1.0000
  C   C792      1.0  0.34695  0.40364  0.23751  1.0000
  C   C793      1.0  0.24841  0.65829  0.11971  1.0000
  H   H1384     1.0  0.41140  0.42723  0.26093  1.0000
  H   H1385     1.0  0.35367  0.38549  0.20387  1.0000
  C   C794      1.0  0.44136  0.54711  0.20160  1.0000
  C   C795      1.0  0.44679  0.61946  0.15803  1.0000
  C   C796      1.0  0.35119  0.42053  0.22160  1.0000
  C   C797      1.0  0.42658  0.52205  0.99935  1.0000
  N   N41       1.0  0.44692  0.58598  0.14954  1.0000
  H   H1386     1.0  0.41224  0.52070  0.99651  1.0000
  H   H1387     1.0  0.27309  0.39816  0.39351  1.0000
  C   C798      1.0  0.41008  0.59469  0.09395  1.0000
  H   H1388     1.0  0.29167  0.38008  0.44436  1.0000
  N   N42       1.0  0.43529  0.50428  0.00338  1.0000
  H   H1389     1.0  0.26194  0.36910  0.40569  1.0000
  H   H1390     1.0  0.26547  0.38579  0.30480  1.0000
  H   H1391     1.0  0.36010  0.41715  0.20399  1.0000
  C   C799      1.0  0.30000  0.56492  0.09872  1.0000
  C   C800      1.0  0.43779  0.58828  0.12178  1.0000
  C   C801      1.0  0.31945  0.34755  0.35284  1.0000
  H   H1392     1.0  0.36200  0.45368  0.29101  1.0000
  H   H1393     1.0  0.31269  0.33624  0.36167  1.0000
  H   H1394     1.0  0.29353  0.62590  0.14614  1.0000
  H   H1395     1.0  0.41414  0.60786  0.08763  1.0000
  H   H1396     1.0  0.34293  0.42983  0.27521  1.0000
  H   H1397     1.0  0.47134  0.46355  0.25852  1.0000
  H   H1398     1.0  0.47364  0.58681  0.16474  1.0000
  C   C802      1.0  0.34995  0.45656  0.27874  1.0000
  H   H1399     1.0  0.45853  0.51870  0.04346  1.0000
  H   H1400     1.0  0.41536  0.49043  0.98117  1.0000
  C   C803      1.0  0.36276  0.44986  0.22004  1.0000
  H   H1401     1.0  0.44686  0.47348  0.02878  1.0000
  Fe  Fe95      1.0  0.26848  0.65392  0.25997  1.0000
  H   H1402     1.0  0.42455  0.46894  0.02037  1.0000
  H   H1403     1.0  0.44091  0.55867  0.14763  1.0000
  H   H1404     1.0  0.44239  0.59983  0.11051  1.0000
  H   H1405     1.0  0.33897  0.37725  0.22956  1.0000
  C   C804      1.0  0.44114  0.52435  0.45678  1.0000
  H   H1406     1.0  0.34004  0.45036  0.19161  1.0000
  H   H1407     1.0  0.48135  0.54709  0.06827  1.0000
  S   S196      1.0  0.30362  0.33014  0.22836  1.0000
  H   H1408     1.0  0.46105  0.62082  0.15546  1.0000
  H   H1409     1.0  0.42822  0.52485  0.44617  1.0000
  H   H1410     1.0  0.35953  0.48424  0.20077  1.0000
  H   H1411     1.0  0.27334  0.36704  0.45320  1.0000
  C   C805      1.0  0.43305  0.47673  0.03409  1.0000
  H   H1412     1.0  0.46984  0.56932  0.14175  1.0000
  H   H1413     1.0  0.27526  0.63277  0.10358  1.0000
  C   C806      1.0  0.25337  0.33328  0.14183  1.0000
  C   C807      1.0  0.42975  0.47100  0.06402  1.0000
  C   C808      1.0  0.30980  0.63654  0.11503  1.0000
  H   H1414     1.0  0.47043  0.47815  0.41419  1.0000
  C   C809      1.0  0.44057  0.63350  0.17873  1.0000
  C   C810      1.0  0.33544  0.46122  0.29948  1.0000
  H   H1415     1.0  0.32083  0.63785  0.12989  1.0000
  C   C811      1.0  0.47485  0.59266  0.12038  1.0000
  C   C812      1.0  0.41756  0.58993  0.12260  1.0000
  C   C813      1.0  0.25552  0.33184  0.35524  1.0000
  H   H1416     1.0  0.28772  0.58849  0.13459  1.0000
  H   H1417     1.0  0.42507  0.53068  0.04324  1.0000
  H   H1418     1.0  0.27971  0.57716  0.07445  1.0000
  S   S197      1.0  0.28352  0.65703  0.18128  1.0000
  C   C814      1.0  0.48820  0.47336  0.44928  1.0000
  H   H1419     1.0  0.44596  0.53782  0.45803  1.0000
  H   H1420     1.0  0.37174  0.44529  0.20318  1.0000
  H   H1421     1.0  0.26911  0.57842  0.12137  1.0000
  C   C815      1.0  0.34237  0.38899  0.21745  1.0000
  H   H1422     1.0  0.39843  0.52454  0.47771  1.0000
  C   C816      1.0  0.38910  0.41947  0.23599  1.0000
  H   H1423     1.0  0.46410  0.49596  0.04376  1.0000
  H   H1424     1.0  0.45069  0.59952  0.18856  1.0000
  C   C817      1.0  0.46989  0.47414  0.43642  1.0000
  H   H1425     1.0  0.42752  0.54990  0.20732  1.0000
  H   H1426     1.0  0.41200  0.57734  0.12869  1.0000
  H   H1427     1.0  0.26558  0.65927  0.36753  1.0000
  C   C818      1.0  0.42919  0.53563  0.02271  1.0000
  H   H1428     1.0  0.31966  0.34645  0.32975  1.0000
  C   C819      1.0  0.27587  0.37201  0.40900  1.0000
  H   H1429     1.0  0.46360  0.56008  0.18600  1.0000
  H   H1430     1.0  0.37195  0.42035  0.27183  1.0000
  H   H1431     1.0  0.40418  0.54959  0.01682  1.0000
  H   H1432     1.0  0.49388  0.44667  0.43918  1.0000
  H   H1433     1.0  0.33218  0.44334  0.25064  1.0000
  H   H1434     1.0  0.38139  0.44029  0.26379  1.0000
  C   C820      1.0  0.46451  0.50798  0.03099  1.0000
  H   H1435     1.0  0.32317  0.46500  0.28834  1.0000
  H   H1436     1.0  0.35801  0.39883  0.25063  1.0000
  H   H1437     1.0  0.43352  0.50349  0.04859  1.0000
  H   H1438     1.0  0.27148  0.60133  0.05388  1.0000
  H   H1439     1.0  0.41456  0.58501  0.07805  1.0000
  C   C821      1.0  0.45498  0.50535  0.00269  1.0000
  H   H1440     1.0  0.29799  0.59076  0.08228  1.0000
  H   H1441     1.0  0.36235  0.46959  0.17141  1.0000
  H   H1442     1.0  0.48489  0.52461  0.01563  1.0000
  C   C822      1.0  0.25539  0.33386  0.38444  1.0000
  H   H1443     1.0  0.33543  0.40613  0.25100  1.0000
  H   H1444     1.0  0.44126  0.57705  0.10794  1.0000
  C   C823      1.0  0.44961  0.56341  0.18991  1.0000
  H   H1445     1.0  0.29167  0.55469  0.10740  1.0000
  H   H1446     1.0  0.33943  0.47239  0.31255  1.0000
  C   C824      1.0  0.47607  0.46928  0.27831  1.0000
  C   C825      1.0  0.25773  0.33263  0.11329  1.0000
  C   C826      1.0  0.34514  0.44065  0.26050  1.0000
  H   H1447     1.0  0.48673  0.46999  0.47159  1.0000
  H   H1448     1.0  0.45029  0.51611  0.44409  1.0000
  H   H1449     1.0  0.34164  0.48078  0.17710  1.0000
  H   H1450     1.0  0.43285  0.45683  0.06613  1.0000
  H   H1451     1.0  0.26771  0.32968  0.34433  1.0000
  C   C827      1.0  0.48774  0.53394  0.14547  1.0000
  H   H1452     1.0  0.40025  0.57656  0.23092  1.0000
  N   N43       1.0  0.28091  0.38225  0.35819  1.0000
  C   C828      1.0  0.28163  0.38653  0.38887  1.0000
  C   C829      1.0  0.28890  0.39691  0.34227  1.0000
  H   H1453     1.0  0.42909  0.60106  0.17584  1.0000
  C   C830      1.0  0.29108  0.36557  0.35171  1.0000
  C   C831      1.0  0.31036  0.36469  0.36175  1.0000
  H   H1454     1.0  0.44003  0.62226  0.13802  1.0000
  C   C832      1.0  0.34701  0.45934  0.20554  1.0000
  C   C833      1.0  0.27825  0.41446  0.34170  1.0000
  C   C834      1.0  0.28809  0.42836  0.32597  1.0000
  Fe  Fe96      1.0  0.27527  0.33389  0.21514  1.0000
  H   H1455     1.0  0.49199  0.47057  0.36391  1.0000
  C   C835      1.0  0.48371  0.51199  0.02666  1.0000
  H   H1456     1.0  0.37003  0.45981  0.23161  1.0000
  H   H1457     1.0  0.29502  0.39031  0.39502  1.0000
  H   H1458     1.0  0.30195  0.39979  0.35105  1.0000
  H   H1459     1.0  0.29150  0.39298  0.32033  1.0000
  H   H1460     1.0  0.31523  0.63332  0.09414  1.0000
  C   C836      1.0  0.25963  0.60869  0.06071  1.0000
  H   H1461     1.0  0.28443  0.35416  0.36033  1.0000
  H   H1462     1.0  0.29137  0.36328  0.32882  1.0000
  H   H1463     1.0  0.31122  0.36554  0.38478  1.0000
  H   H1464     1.0  0.31785  0.37540  0.35271  1.0000
  H   H1465     1.0  0.44369  0.64658  0.17061  1.0000
  H   H1466     1.0  0.38429  0.40700  0.22770  1.0000
  H   H1467     1.0  0.44877  0.57353  0.20638  1.0000
  H   H1468     1.0  0.42199  0.55813  0.99680  1.0000
  H   H1469     1.0  0.46378  0.46123  0.43760  1.0000
  H   H1470     1.0  0.27577  0.41941  0.36308  1.0000
  H   H1471     1.0  0.28028  0.44082  0.32597  1.0000
  H   H1472     1.0  0.30088  0.43065  0.33610  1.0000
  H   H1473     1.0  0.29031  0.42427  0.30400  1.0000
  C   C837      1.0  0.35305  0.47440  0.18765  1.0000
  H   H1474     1.0  0.35205  0.46827  0.26587  1.0000
  N   N44       1.0  0.35849  0.43498  0.23903  1.0000
  H   H1475     1.0  0.41293  0.60014  0.13746  1.0000
  C   C838      1.0  0.26211  0.38004  0.34986  1.0000
  Fe  Fe97      1.0  0.25635  0.65652  0.19835  1.0000
  C   C839      1.0  0.41834  0.55233  0.01705  1.0000
  H   H1476     1.0  0.26362  0.36310  0.31297  1.0000
  H   H1477     1.0  0.28386  0.35984  0.40621  1.0000
  H   H1478     1.0  0.30670  0.55958  0.07990  1.0000
  H   H1479     1.0  0.44194  0.53631  0.18616  1.0000
  H   H1480     1.0  0.44854  0.54272  0.22060  1.0000
  C   C840      1.0  0.28235  0.61994  0.10508  1.0000
  N   N45       1.0  0.34588  0.54827  0.22954  1.0000
  C   C841      1.0  0.33425  0.54097  0.20721  1.0000
  C   C842      1.0  0.33717  0.56422  0.24290  1.0000
  C   C843      1.0  0.36244  0.55394  0.21569  1.0000
  C   C844      1.0  0.35089  0.53470  0.25104  1.0000
  C   C845      1.0  0.33585  0.52659  0.26739  1.0000
  C   C846      1.0  0.34218  0.52593  0.18910  1.0000
  C   C847      1.0  0.37567  0.56344  0.23451  1.0000
  C   C848      1.0  0.31692  0.56476  0.24493  1.0000
  C   C849      1.0  0.31034  0.58025  0.26250  1.0000
  C   C850      1.0  0.34282  0.51188  0.28626  1.0000
  C   C851      1.0  0.32870  0.51933  0.16840  1.0000
  C   C852      1.0  0.39029  0.57090  0.21703  1.0000
  H   H1481     1.0  0.33011  0.55155  0.19270  1.0000
  H   H1482     1.0  0.32193  0.53631  0.21607  1.0000
  H   H1483     1.0  0.34256  0.56629  0.26420  1.0000
  H   H1484     1.0  0.34016  0.57622  0.23090  1.0000
  H   H1485     1.0  0.35913  0.56261  0.19779  1.0000
  H   H1486     1.0  0.36990  0.54260  0.20684  1.0000
  H   H1487     1.0  0.35869  0.52391  0.24125  1.0000
  H   H1488     1.0  0.35960  0.54028  0.26710  1.0000
  H   H1489     1.0  0.32604  0.52094  0.25333  1.0000
  H   H1490     1.0  0.32945  0.53657  0.28102  1.0000
  H   H1491     1.0  0.35328  0.53043  0.17652  1.0000
  H   H1492     1.0  0.34673  0.51477  0.20215  1.0000
  H   H1493     1.0  0.38184  0.55418  0.24964  1.0000
  H   H1494     1.0  0.36944  0.57441  0.24626  1.0000
  H   H1495     1.0  0.31106  0.56637  0.22383  1.0000
  H   H1496     1.0  0.31188  0.55274  0.25416  1.0000
  H   H1497     1.0  0.31503  0.57896  0.28434  1.0000
  H   H1498     1.0  0.31486  0.59268  0.25366  1.0000
  H   H1499     1.0  0.29583  0.58082  0.26255  1.0000
  H   H1500     1.0  0.34927  0.50132  0.27373  1.0000
  H   H1501     1.0  0.35245  0.51684  0.30147  1.0000
  H   H1502     1.0  0.33190  0.50628  0.29804  1.0000
  H   H1503     1.0  0.31765  0.51350  0.17956  1.0000
  H   H1504     1.0  0.32366  0.53015  0.15493  1.0000
  H   H1505     1.0  0.33492  0.50922  0.15473  1.0000
  H   H1506     1.0  0.39670  0.56053  0.20411  1.0000
  H   H1507     1.0  0.38497  0.58136  0.20312  1.0000
  H   H1508     1.0  0.41427  0.49822  0.03133  1.0000
  H   H1509     1.0  0.46143  0.48377  0.44778  1.0000
  H   H1510     1.0  0.47094  0.58626  0.10060  1.0000
  H   H1511     1.0  0.41581  0.47343  0.06954  1.0000
  C   C853      1.0  0.24779  0.65362  0.33405  1.0000
  H   H1512     1.0  0.44720  0.63166  0.19919  1.0000
  H   H1513     1.0  0.30239  0.64922  0.11408  1.0000
  H   H1514     1.0  0.43812  0.47816  0.07882  1.0000
  H   H1515     1.0  0.43626  0.47981  0.98053  1.0000
  C   C854      1.0  0.42871  0.49646  0.03005  1.0000
  H   H1516     1.0  0.48942  0.53072  0.16726  1.0000
  C   C855      1.0  0.25882  0.37649  0.31845  1.0000
  H   H1517     1.0  0.28794  0.61763  0.08410  1.0000
  N   N46       1.0  0.26971  0.60609  0.11292  1.0000
  H   H1518     1.0  0.42072  0.56197  0.03383  1.0000
  C   C856      1.0  0.24872  0.65633  0.09054  1.0000
  H   H1519     1.0  0.44303  0.53933  0.02366  1.0000
  C   C857      1.0  0.38428  0.47121  0.99201  1.0000
  H   H1520     1.0  0.26199  0.62275  0.05749  1.0000
  H   H1521     1.0  0.26079  0.65792  0.07935  1.0000
  H   H1522     1.0  0.49031  0.51304  0.04723  1.0000
  C   C858      1.0  0.28898  0.58116  0.09088  1.0000
  H   H1523     1.0  0.31013  0.56824  0.11426  1.0000
  C   C859      1.0  0.49331  0.45767  0.35490  1.0000
  C   C860      1.0  0.27873  0.58843  0.11631  1.0000
  C   C861      1.0  0.25226  0.65630  0.36225  1.0000
  H   H1524     1.0  0.25389  0.39151  0.35658  1.0000
  H   H1525     1.0  0.46104  0.49323  0.99361  1.0000
  H   H1526     1.0  0.24845  0.33091  0.07058  1.0000
  H   H1527     1.0  0.45881  0.51598  0.98843  1.0000
  H   H1528     1.0  0.27169  0.60969  0.15776  1.0000
  H   H1529     1.0  0.43130  0.52828  0.98003  1.0000
  H   H1530     1.0  0.24760  0.60747  0.01975  1.0000
  C   C862      1.0  0.26182  0.61114  0.14080  1.0000
  H   H1531     1.0  0.25762  0.62518  0.14089  1.0000
  H   H1532     1.0  0.49355  0.48654  0.44747  1.0000
  C   C863      1.0  0.25504  0.60551  0.09175  1.0000
  C   C864      1.0  0.42954  0.49288  0.97950  1.0000
  H   H1533     1.0  0.24865  0.58649  0.14996  1.0000
  H   H1534     1.0  0.25064  0.60239  0.19468  1.0000
  C   C865      1.0  0.49478  0.59142  0.12212  1.0000
  H   H1535     1.0  0.24639  0.60640  0.43415  1.0000
  H   H1536     1.0  0.24833  0.59289  0.09325  1.0000
  C   C866      1.0  0.24575  0.60072  0.15004  1.0000
  C   C867      1.0  0.45206  0.54589  0.53558  1.0000
  C   C868      1.0  0.29748  0.33994  0.87385  1.0000
  H   H1537     1.0  0.28818  0.32910  0.87265  1.0000
  H   H1538     1.0  0.26325  0.35239  0.89655  1.0000
  Fe  Fe98      1.0  0.28923  0.34212  0.76526  1.0000
  S   S198      1.0  0.30193  0.36686  0.78383  1.0000
  S   S199      1.0  0.26131  0.34654  0.75029  1.0000
  Fe  Fe99      1.0  0.38306  0.42792  0.84283  1.0000
  S   S200      1.0  0.36577  0.45034  0.85763  1.0000
  S   S201      1.0  0.37312  0.40151  0.82636  1.0000
  Fe  Fe100     1.0  0.41678  0.45014  0.84806  1.0000
  S   S202      1.0  0.40079  0.47363  0.86229  1.0000
  S   S203      1.0  0.44489  0.45891  0.84163  1.0000
  Fe  Fe101     1.0  0.38665  0.45544  0.89020  1.0000
  S   S204      1.0  0.38394  0.45852  0.93800  1.0000
  Fe  Fe102     1.0  0.38188  0.46644  0.82857  1.0000
  S   S205      1.0  0.37026  0.48626  0.79781  1.0000
  S   S206      1.0  0.40327  0.43186  0.87708  1.0000
  S   S207      1.0  0.39842  0.44406  0.81277  1.0000
  Fe  Fe103     1.0  0.39748  0.51634  0.64741  1.0000
  S   S208      1.0  0.40050  0.54347  0.66371  1.0000
  S   S209      1.0  0.40120  0.49259  0.67536  1.0000
  Fe  Fe104     1.0  0.39575  0.52774  0.58544  1.0000
  S   S210      1.0  0.39840  0.55599  0.59839  1.0000
  S   S211      1.0  0.39661  0.52251  0.53764  1.0000
  Fe  Fe105     1.0  0.41942  0.54596  0.62802  1.0000
  S   S212      1.0  0.44609  0.55815  0.63325  1.0000
  Fe  Fe106     1.0  0.37913  0.55127  0.63311  1.0000
  S   S213      1.0  0.35349  0.56700  0.64413  1.0000
  S   S214      1.0  0.41765  0.51842  0.61365  1.0000
  S   S215      1.0  0.37518  0.52346  0.61831  1.0000
  H   H1539     1.0  0.32169  0.34675  0.85221  1.0000
  C   C869      1.0  0.35974  0.56625  0.74099  1.0000
  Fe  Fe107     1.0  0.25715  0.65276  0.70110  1.0000
  S   S216      1.0  0.26617  0.64832  0.80977  1.0000
  H   H1540     1.0  0.34771  0.57383  0.77986  1.0000
  H   H1541     1.0  0.48638  0.52388  0.77983  1.0000
  Fe  Fe108     1.0  0.29582  0.64969  0.71497  1.0000
  S   S217      1.0  0.32279  0.63694  0.70407  1.0000
  S   S218      1.0  0.27289  0.63439  0.72886  1.0000
  C   C870      1.0  0.34547  0.58670  0.66074  1.0000
  C   C871      1.0  0.32727  0.58987  0.66259  1.0000
  C   C872      1.0  0.32010  0.60521  0.67517  1.0000
  C   C873      1.0  0.33105  0.61764  0.68658  1.0000
  C   C874      1.0  0.34925  0.61441  0.68498  1.0000
  C   C875      1.0  0.35642  0.59913  0.67216  1.0000
  H   H1542     1.0  0.31870  0.58024  0.65432  1.0000
  H   H1543     1.0  0.30613  0.60732  0.67638  1.0000
  H   H1544     1.0  0.35794  0.62383  0.69372  1.0000
  H   H1545     1.0  0.37043  0.59700  0.67106  1.0000
  C   C876      1.0  0.46679  0.54712  0.62975  1.0000
  C   C877      1.0  0.48211  0.55668  0.63202  1.0000
  C   C878      1.0  0.46836  0.52917  0.62475  1.0000
  H   H1546     1.0  0.48105  0.57057  0.63586  1.0000
  H   H1547     1.0  0.45675  0.52163  0.62305  1.0000
  C   C879      1.0  0.38278  0.47560  0.96354  1.0000
  H   H1548     1.0  0.33283  0.58964  0.72516  1.0000
  C   C880      1.0  0.39143  0.48869  0.51671  1.0000
  C   C881      1.0  0.39446  0.50621  0.51088  1.0000
  H   H1549     1.0  0.48213  0.46744  0.70072  1.0000
  C   C882      1.0  0.38039  0.49322  0.95651  1.0000
  H   H1550     1.0  0.25210  0.61869  0.60927  1.0000
  H   H1551     1.0  0.38977  0.48464  0.53806  1.0000
  H   H1552     1.0  0.26614  0.64317  0.86926  1.0000
  H   H1553     1.0  0.37914  0.49688  0.93483  1.0000
  C   C883      1.0  0.37884  0.48802  0.76372  1.0000
  C   C884      1.0  0.37404  0.50248  0.74710  1.0000
  C   C885      1.0  0.38088  0.50424  0.72002  1.0000
  C   C886      1.0  0.39241  0.49140  0.70929  1.0000
  C   C887      1.0  0.39709  0.47694  0.72585  1.0000
  C   C888      1.0  0.39035  0.47527  0.75286  1.0000
  H   H1554     1.0  0.36509  0.51242  0.75525  1.0000
  H   H1555     1.0  0.37713  0.51543  0.70739  1.0000
  H   H1556     1.0  0.40590  0.46690  0.71764  1.0000
  H   H1557     1.0  0.39406  0.46403  0.76515  1.0000
  C   C889      1.0  0.46811  0.43104  0.85288  1.0000
  C   C890      1.0  0.46587  0.44860  0.84562  1.0000
  C   C891      1.0  0.48077  0.45848  0.84112  1.0000
  H   H1558     1.0  0.45679  0.42328  0.85636  1.0000
  H   H1559     1.0  0.47918  0.47207  0.83547  1.0000
  C   C892      1.0  0.32194  0.37598  0.79605  1.0000
  C   C893      1.0  0.32129  0.39234  0.80963  1.0000
  C   C894      1.0  0.33666  0.40032  0.81908  1.0000
  C   C895      1.0  0.35307  0.39209  0.81511  1.0000
  C   C896      1.0  0.35369  0.37564  0.80191  1.0000
  C   C897      1.0  0.33832  0.36764  0.79250  1.0000
  H   H1560     1.0  0.30877  0.39893  0.81291  1.0000
  H   H1561     1.0  0.33580  0.41276  0.82967  1.0000
  H   H1562     1.0  0.36622  0.36900  0.79884  1.0000
  H   H1563     1.0  0.33920  0.35507  0.78226  1.0000
  H   H1564     1.0  0.45515  0.44787  0.78242  1.0000
  H   H1565     1.0  0.26626  0.63963  0.52179  1.0000
  H   H1566     1.0  0.42463  0.52328  0.77305  1.0000
  H   H1567     1.0  0.37292  0.56430  0.75037  1.0000
  C   C898      1.0  0.26248  0.37373  0.84745  1.0000
  C   C899      1.0  0.24904  0.65049  0.83518  1.0000
  H   H1568     1.0  0.48876  0.47020  0.95755  1.0000
  C   C900      1.0  0.44106  0.52143  0.72280  1.0000
  H   H1569     1.0  0.43145  0.49148  0.90648  1.0000
  H   H1570     1.0  0.30522  0.60721  0.72865  1.0000
  C   C901      1.0  0.28298  0.34992  0.92760  1.0000
  N   N47       1.0  0.28745  0.35725  0.87474  1.0000
  C   C902      1.0  0.31434  0.62359  0.78705  1.0000
  H   H1571     1.0  0.44779  0.48566  0.52287  1.0000
  H   H1572     1.0  0.43041  0.50056  0.53129  1.0000
  N   N48       1.0  0.43946  0.49941  0.76377  1.0000
  H   H1573     1.0  0.46222  0.44062  0.91111  1.0000
  C   C903      1.0  0.43798  0.48020  0.77014  1.0000
  C   C904      1.0  0.42304  0.50893  0.77380  1.0000
  C   C905      1.0  0.45466  0.50689  0.77930  1.0000
  C   C906      1.0  0.32376  0.64070  0.79060  1.0000
  H   H1574     1.0  0.27313  0.59919  0.56381  1.0000
  C   C907      1.0  0.44765  0.46696  0.75058  1.0000
  H   H1575     1.0  0.27637  0.63581  0.61648  1.0000
  C   C908      1.0  0.44375  0.48942  0.56703  1.0000
  H   H1576     1.0  0.33611  0.63858  0.80248  1.0000
  H   H1577     1.0  0.44428  0.54810  0.51630  1.0000
  H   H1578     1.0  0.44215  0.47749  0.79195  1.0000
  H   H1579     1.0  0.42415  0.47639  0.76913  1.0000
  H   H1580     1.0  0.41191  0.50634  0.75956  1.0000
  H   H1581     1.0  0.45446  0.52134  0.77737  1.0000
  H   H1582     1.0  0.45347  0.50448  0.80202  1.0000
  H   H1583     1.0  0.25365  0.59640  0.60027  1.0000
  H   H1584     1.0  0.27687  0.63897  0.56999  1.0000
  H   H1585     1.0  0.45739  0.47829  0.67314  1.0000
  H   H1586     1.0  0.42935  0.49624  0.72211  1.0000
  H   H1587     1.0  0.41113  0.49135  0.80412  1.0000
  H   H1588     1.0  0.44090  0.46665  0.73005  1.0000
  H   H1589     1.0  0.46137  0.47028  0.74689  1.0000
  C   C909      1.0  0.37925  0.50613  0.97761  1.0000
  H   H1590     1.0  0.33622  0.38827  0.90672  1.0000
  C   C910      1.0  0.42749  0.47888  0.57203  1.0000
  H   H1591     1.0  0.26673  0.59042  0.73298  1.0000
  Fe  Fe109     1.0  0.26880  0.65465  0.76289  1.0000
  N   N49       1.0  0.31754  0.59318  0.76280  1.0000
  H   H1592     1.0  0.42763  0.50441  0.81916  1.0000
  H   H1593     1.0  0.45374  0.43916  0.74764  1.0000
  H   H1594     1.0  0.42793  0.47328  0.59335  1.0000
  H   H1595     1.0  0.39759  0.51330  0.83413  1.0000
  H   H1596     1.0  0.40831  0.53068  0.81646  1.0000
  C   C911      1.0  0.44761  0.44853  0.76261  1.0000
  C   C912      1.0  0.27600  0.35861  0.90040  1.0000
  C   C913      1.0  0.34888  0.57924  0.75856  1.0000
  C   C914      1.0  0.48506  0.42347  0.85559  1.0000
  H   H1597     1.0  0.48124  0.46531  0.90931  1.0000
  H   H1598     1.0  0.43399  0.52717  0.54959  1.0000
  N   N50       1.0  0.34574  0.43499  0.74440  1.0000
  C   C915      1.0  0.34696  0.44101  0.71458  1.0000
  C   C916      1.0  0.33417  0.41949  0.74517  1.0000
  C   C917      1.0  0.33837  0.44991  0.76179  1.0000
  C   C918      1.0  0.36342  0.42965  0.75609  1.0000
  C   C919      1.0  0.37389  0.41547  0.73948  1.0000
  C   C920      1.0  0.36061  0.45494  0.70863  1.0000
  C   C921      1.0  0.33332  0.44533  0.79214  1.0000
  C   C922      1.0  0.31495  0.42303  0.73589  1.0000
  C   C923      1.0  0.30408  0.40688  0.73955  1.0000
  C   C924      1.0  0.39240  0.41300  0.75112  1.0000
  C   C925      1.0  0.36004  0.46039  0.67800  1.0000
  C   C926      1.0  0.32588  0.46135  0.80755  1.0000
  H   H1599     1.0  0.33417  0.44675  0.70754  1.0000
  H   H1600     1.0  0.34962  0.42976  0.70035  1.0000
  H   H1601     1.0  0.33944  0.40895  0.73129  1.0000
  H   H1602     1.0  0.33430  0.41352  0.76621  1.0000
  H   H1603     1.0  0.32674  0.45618  0.75152  1.0000
  H   H1604     1.0  0.34798  0.46044  0.76339  1.0000
  H   H1605     1.0  0.37165  0.44122  0.75868  1.0000
  H   H1606     1.0  0.36209  0.42432  0.77749  1.0000
  H   H1607     1.0  0.37505  0.41888  0.71717  1.0000
  H   H1608     1.0  0.36749  0.40274  0.74108  1.0000
  H   H1609     1.0  0.35804  0.46681  0.72138  1.0000
  H   H1610     1.0  0.37401  0.44981  0.71312  1.0000
  H   H1611     1.0  0.34489  0.44041  0.80403  1.0000
  H   H1612     1.0  0.32322  0.43533  0.79265  1.0000
  H   H1613     1.0  0.30859  0.43372  0.74812  1.0000
  H   H1614     1.0  0.31436  0.42658  0.71351  1.0000
  H   H1615     1.0  0.31031  0.39536  0.72903  1.0000
  H   H1616     1.0  0.30249  0.40395  0.76198  1.0000
  H   H1617     1.0  0.29088  0.40923  0.73043  1.0000
  H   H1618     1.0  0.39961  0.42527  0.74937  1.0000
  H   H1619     1.0  0.39204  0.40900  0.77334  1.0000
  H   H1620     1.0  0.39957  0.40262  0.73922  1.0000
  H   H1621     1.0  0.34701  0.46618  0.67250  1.0000
  H   H1622     1.0  0.36992  0.47033  0.67416  1.0000
  H   H1623     1.0  0.36303  0.44902  0.66425  1.0000
  H   H1624     1.0  0.33563  0.47172  0.80844  1.0000
  H   H1625     1.0  0.31385  0.46652  0.79707  1.0000
  H   H1626     1.0  0.32258  0.45773  0.82925  1.0000
  H   H1627     1.0  0.26620  0.61619  0.52039  1.0000
  C   C927      1.0  0.44688  0.56043  0.55599  1.0000
  H   H1628     1.0  0.29673  0.35292  0.93199  1.0000
  H   H1629     1.0  0.48535  0.53122  0.55559  1.0000
  H   H1630     1.0  0.47120  0.49100  0.65161  1.0000
  H   H1631     1.0  0.32092  0.39967  0.88406  1.0000
  H   H1632     1.0  0.43341  0.51563  0.67996  1.0000
  H   H1633     1.0  0.28665  0.62727  0.52395  1.0000
  H   H1634     1.0  0.30503  0.33750  0.89324  1.0000
  C   C928      1.0  0.39630  0.51105  0.48270  1.0000
  H   H1635     1.0  0.27731  0.59763  0.70157  1.0000
  C   C929      1.0  0.24802  0.65823  0.62309  1.0000
  C   C930      1.0  0.47069  0.47891  0.66412  1.0000
  H   H1636     1.0  0.37715  0.51966  0.97181  1.0000
  N   N51       1.0  0.45591  0.51192  0.53229  1.0000
  H   H1637     1.0  0.31524  0.65019  0.80220  1.0000
  C   C931      1.0  0.27213  0.35584  0.95279  1.0000
  H   H1638     1.0  0.48608  0.50712  0.61790  1.0000
  H   H1639     1.0  0.41599  0.48139  0.92893  1.0000
  C   C932      1.0  0.43270  0.49994  0.94971  1.0000
  H   H1640     1.0  0.27363  0.36997  0.95675  1.0000
  C   C933      1.0  0.33064  0.58287  0.74527  1.0000
  H   H1641     1.0  0.41554  0.48743  0.57029  1.0000
  H   H1642     1.0  0.25403  0.37487  0.86613  1.0000
  C   C934      1.0  0.25983  0.60643  0.61348  1.0000
  C   C935      1.0  0.29404  0.58177  0.72899  1.0000
  H   H1643     1.0  0.42345  0.51103  0.94517  1.0000
  H   H1644     1.0  0.26384  0.33697  0.60814  1.0000
  C   C936      1.0  0.39026  0.47635  0.49479  1.0000
  C   C937      1.0  0.44848  0.52765  0.54790  1.0000
  H   H1645     1.0  0.47471  0.48594  0.77819  1.0000
  H   H1646     1.0  0.43315  0.55922  0.56290  1.0000
  H   H1647     1.0  0.25810  0.35332  0.94939  1.0000
  C   C938      1.0  0.30184  0.59743  0.74465  1.0000
  H   H1648     1.0  0.30546  0.63157  0.58922  1.0000
  H   H1649     1.0  0.26949  0.38603  0.84491  1.0000
  H   H1650     1.0  0.33115  0.61645  0.75234  1.0000
  H   H1651     1.0  0.26406  0.59023  0.65132  1.0000
  H   H1652     1.0  0.33488  0.38208  0.87066  1.0000
  H   H1653     1.0  0.30194  0.62676  0.77598  1.0000
  H   H1654     1.0  0.44401  0.50000  0.58269  1.0000
  H   H1655     1.0  0.29182  0.38497  0.87383  1.0000
  C   C939      1.0  0.45700  0.51479  0.50123  1.0000
  H   H1656     1.0  0.27111  0.57528  0.70488  1.0000
  H   H1657     1.0  0.43403  0.44457  0.76668  1.0000
  C   C940      1.0  0.41685  0.50446  0.80375  1.0000
  H   H1658     1.0  0.43881  0.47466  0.93027  1.0000
  H   H1659     1.0  0.26787  0.34592  0.84840  1.0000
  C   C941      1.0  0.31092  0.33753  0.84985  1.0000
  C   C942      1.0  0.48501  0.52096  0.62205  1.0000
  H   H1660     1.0  0.45233  0.49542  0.72381  1.0000
  H   H1661     1.0  0.38768  0.46293  0.49970  1.0000
  C   C943      1.0  0.31338  0.37353  0.89627  1.0000
  H   H1662     1.0  0.30604  0.37247  0.85243  1.0000
  H   H1663     1.0  0.36129  0.57124  0.71942  1.0000
  H   H1664     1.0  0.29134  0.59970  0.80408  1.0000
  H   H1665     1.0  0.27993  0.57888  0.83772  1.0000
  H   H1666     1.0  0.29607  0.56251  0.82737  1.0000
  C   C944      1.0  0.29941  0.37240  0.87303  1.0000
  H   H1667     1.0  0.48663  0.40985  0.86118  1.0000
  C   C945      1.0  0.29472  0.58570  0.80108  1.0000
  H   H1668     1.0  0.30272  0.57762  0.71151  1.0000
  H   H1669     1.0  0.32671  0.64640  0.76993  1.0000
  C   C946      1.0  0.48812  0.52038  0.54070  1.0000
  C   C947      1.0  0.32712  0.38673  0.88889  1.0000
  C   C948      1.0  0.25650  0.60203  0.64453  1.0000
  S   S219      1.0  0.26236  0.33184  0.66750  1.0000
  H   H1670     1.0  0.46596  0.54737  0.53031  1.0000
  H   H1671     1.0  0.42846  0.52841  0.72739  1.0000
  C   C949      1.0  0.44413  0.49676  0.53695  1.0000
  C   C950      1.0  0.30886  0.64658  0.62626  1.0000
  H   H1672     1.0  0.45565  0.55995  0.57443  1.0000
  H   H1673     1.0  0.44811  0.57331  0.54582  1.0000
  C   C951      1.0  0.27558  0.35789  0.84950  1.0000
  H   H1674     1.0  0.29118  0.60392  0.75673  1.0000
  H   H1675     1.0  0.28458  0.58028  0.78730  1.0000
  H   H1676     1.0  0.42669  0.46809  0.55666  1.0000
  H   H1677     1.0  0.31150  0.61879  0.80828  1.0000
  H   H1678     1.0  0.26005  0.61308  0.65813  1.0000
  C   C952      1.0  0.32592  0.60996  0.77117  1.0000
  C   C953      1.0  0.29334  0.57677  0.82938  1.0000
  H   H1679     1.0  0.47860  0.49445  0.53262  1.0000
  H   H1680     1.0  0.28323  0.35797  0.83002  1.0000
  H   H1681     1.0  0.43342  0.50369  0.48350  1.0000
  H   H1682     1.0  0.45180  0.52842  0.73293  1.0000
  H   H1683     1.0  0.35345  0.55343  0.74007  1.0000
  H   H1684     1.0  0.47293  0.46742  0.65032  1.0000
  H   H1685     1.0  0.27660  0.34851  0.97158  1.0000
  H   H1686     1.0  0.45677  0.51653  0.68547  1.0000
  H   H1687     1.0  0.27265  0.37255  0.90507  1.0000
  H   H1688     1.0  0.44625  0.50435  0.94740  1.0000
  C   C954      1.0  0.31314  0.58252  0.78815  1.0000
  N   N52       1.0  0.27867  0.60849  0.60536  1.0000
  C   C955      1.0  0.28989  0.59289  0.61397  1.0000
  C   C956      1.0  0.48426  0.47906  0.68752  1.0000
  C   C957      1.0  0.28538  0.62438  0.61990  1.0000
  C   C958      1.0  0.47385  0.50667  0.54313  1.0000
  C   C959      1.0  0.28370  0.57489  0.60388  1.0000
  C   C960      1.0  0.29571  0.56016  0.61495  1.0000
  C   C961      1.0  0.27959  0.61028  0.57409  1.0000
  C   C962      1.0  0.25289  0.64687  0.86340  1.0000
  H   H1689     1.0  0.29337  0.60935  0.56682  1.0000
  H   H1690     1.0  0.30341  0.59405  0.60593  1.0000
  H   H1691     1.0  0.29136  0.59246  0.63700  1.0000
  C   C963      1.0  0.40279  0.51759  0.81378  1.0000
  H   H1692     1.0  0.28547  0.62246  0.64287  1.0000
  H   H1693     1.0  0.28211  0.33552  0.92583  1.0000
  H   H1694     1.0  0.46178  0.45133  0.94453  1.0000
  C   C964      1.0  0.47012  0.44359  0.92987  1.0000
  H   H1695     1.0  0.27030  0.57239  0.61114  1.0000
  H   H1696     1.0  0.28388  0.57411  0.58080  1.0000
  H   H1697     1.0  0.29533  0.55976  0.63808  1.0000
  H   H1698     1.0  0.29137  0.54745  0.60683  1.0000
  H   H1699     1.0  0.30940  0.56190  0.60813  1.0000
  H   H1700     1.0  0.30268  0.58233  0.84447  1.0000
  H   H1701     1.0  0.32551  0.56992  0.73969  1.0000
  H   H1702     1.0  0.47535  0.50065  0.74870  1.0000
  C   C965      1.0  0.47305  0.49970  0.77137  1.0000
  H   H1703     1.0  0.25669  0.62777  0.56644  1.0000
  H   H1704     1.0  0.32302  0.58443  0.80487  1.0000
  C   C966      1.0  0.25049  0.37191  0.82215  1.0000
  H   H1705     1.0  0.35626  0.59144  0.75964  1.0000
  C   C967      1.0  0.42956  0.48598  0.92761  1.0000
  H   H1706     1.0  0.48156  0.49086  0.70026  1.0000
  H   H1707     1.0  0.45314  0.52748  0.56990  1.0000
  H   H1708     1.0  0.29262  0.57047  0.74310  1.0000
  H   H1709     1.0  0.30707  0.37794  0.91596  1.0000
  H   H1710     1.0  0.32038  0.36088  0.89987  1.0000
  H   H1711     1.0  0.33736  0.60729  0.78500  1.0000
  H   H1712     1.0  0.45536  0.48062  0.57057  1.0000
  C   C968      1.0  0.44066  0.50222  0.73269  1.0000
  H   H1713     1.0  0.47338  0.50363  0.56576  1.0000
  H   H1714     1.0  0.39179  0.51850  0.79868  1.0000
  H   H1715     1.0  0.44346  0.53628  0.68468  1.0000
  C   C969      1.0  0.27620  0.58662  0.71638  1.0000
  H   H1716     1.0  0.31409  0.56831  0.78330  1.0000
  H   H1717     1.0  0.31388  0.61941  0.61865  1.0000
  C   C970      1.0  0.30412  0.62958  0.61197  1.0000
  C   C971      1.0  0.27084  0.62708  0.56170  1.0000
  H   H1718     1.0  0.48905  0.52571  0.51936  1.0000
  C   C972      1.0  0.44386  0.52242  0.69132  1.0000
  H   H1719     1.0  0.30022  0.65748  0.61878  1.0000
  H   H1720     1.0  0.25828  0.37145  0.80265  1.0000
  C   C973      1.0  0.27267  0.62748  0.53002  1.0000
  C   C974      1.0  0.48605  0.45375  0.92134  1.0000
  H   H1721     1.0  0.42983  0.52516  0.49782  1.0000
  H   H1722     1.0  0.30488  0.33967  0.82916  1.0000
  H   H1723     1.0  0.46467  0.52635  0.49623  1.0000
  H   H1724     1.0  0.47427  0.43106  0.93982  1.0000
  C   C975      1.0  0.25110  0.33198  0.61253  1.0000
  H   H1725     1.0  0.30761  0.64543  0.64920  1.0000
  H   H1726     1.0  0.48581  0.50899  0.80907  1.0000
  H   H1727     1.0  0.46429  0.50366  0.49118  1.0000
  C   C976      1.0  0.43919  0.51671  0.48592  1.0000
  C   C977      1.0  0.48720  0.50994  0.78608  1.0000
  H   H1728     1.0  0.32259  0.64961  0.62144  1.0000
  H   H1729     1.0  0.49419  0.44544  0.90723  1.0000
  C   C978      1.0  0.24665  0.32826  0.64035  1.0000
  Fe  Fe110     1.0  0.26710  0.32772  0.71487  1.0000
  Fe  Fe111     1.0  0.39104  0.96429  0.13794  1.0000
  S   S220      1.0  0.39520  0.93728  0.15488  1.0000
  H   H1730     1.0  0.26021  0.66137  0.13083  1.0000
  Fe  Fe112     1.0  0.39309  0.95270  0.07612  1.0000
  S   S221      1.0  0.39696  0.92455  0.08974  1.0000
  S   S222      1.0  0.39523  0.95735  0.02842  1.0000
  Fe  Fe113     1.0  0.37589  0.92933  0.12204  1.0000
  S   S223      1.0  0.35132  0.91300  0.12912  1.0000
  Fe  Fe114     1.0  0.41585  0.93486  0.12144  1.0000
  S   S224      1.0  0.44277  0.92235  0.13013  1.0000
  S   S225      1.0  0.37073  0.95690  0.10630  1.0000
  S   S226      1.0  0.41291  0.96242  0.10669  1.0000
  H   H1731     1.0  0.34163  0.95072  0.14584  1.0000
  S   S227      1.0  0.30383  0.70010  0.21397  1.0000
  H   H1732     1.0  0.26153  0.84755  0.13545  1.0000
  Fe  Fe115     1.0  0.25608  0.83782  0.20140  1.0000
  S   S228      1.0  0.28044  0.82402  0.18620  1.0000
  H   H1733     1.0  0.43164  0.97758  0.15409  1.0000
  Fe  Fe116     1.0  0.26654  0.83482  0.26366  1.0000
  S   S229      1.0  0.29187  0.82070  0.25221  1.0000
  H   H1734     1.0  0.38098  0.96698  0.47102  1.0000
  Fe  Fe117     1.0  0.29425  0.84086  0.21759  1.0000
  S   S230      1.0  0.32034  0.85468  0.21048  1.0000
  Fe  Fe118     1.0  0.27617  0.80517  0.22145  1.0000
  S   S231      1.0  0.26890  0.77672  0.21494  1.0000
  S   S232      1.0  0.26979  0.85574  0.23092  1.0000
  H   H1735     1.0  0.33588  0.95840  0.47491  1.0000
  C   C979      1.0  0.29407  0.72138  0.21373  1.0000
  C   C980      1.0  0.30461  0.73590  0.21717  1.0000
  C   C981      1.0  0.29723  0.75299  0.21759  1.0000
  C   C982      1.0  0.27919  0.75569  0.21450  1.0000
  C   C983      1.0  0.26868  0.74118  0.21086  1.0000
  C   C984      1.0  0.27606  0.72413  0.21038  1.0000
  H   H1736     1.0  0.31858  0.73391  0.21965  1.0000
  H   H1737     1.0  0.30548  0.76404  0.22032  1.0000
  H   H1738     1.0  0.25472  0.74314  0.20834  1.0000
  H   H1739     1.0  0.26784  0.71310  0.20732  1.0000
  C   C985      1.0  0.34323  0.89634  0.15147  1.0000
  C   C986      1.0  0.32567  0.89157  0.14881  1.0000
  C   C987      1.0  0.31848  0.87882  0.16631  1.0000
  C   C988      1.0  0.32874  0.87054  0.18691  1.0000
  C   C989      1.0  0.34633  0.87524  0.18947  1.0000
  C   C990      1.0  0.35352  0.88801  0.17197  1.0000
  H   H1740     1.0  0.31752  0.89782  0.13305  1.0000
  H   H1741     1.0  0.30497  0.87542  0.16387  1.0000
  H   H1742     1.0  0.35449  0.86892  0.20514  1.0000
  H   H1743     1.0  0.36705  0.89133  0.17429  1.0000
  C   C991      1.0  0.46302  0.93244  0.12490  1.0000
  C   C992      1.0  0.46386  0.95002  0.11759  1.0000
  C   C993      1.0  0.47870  0.92263  0.12858  1.0000
  H   H1744     1.0  0.45194  0.95778  0.11513  1.0000
  H   H1745     1.0  0.47820  0.90903  0.13436  1.0000
  H   H1746     1.0  0.35539  0.97751  0.28323  1.0000
  H   H1747     1.0  0.47097  0.96341  0.98257  1.0000
  C   C994      1.0  0.39406  0.97465  0.00321  1.0000
  H   H1748     1.0  0.24752  0.89128  0.25258  1.0000
  H   H1749     1.0  0.28230  0.73289  0.26840  1.0000
  C   C995      1.0  0.43701  0.98426  0.04330  1.0000
  C   C996      1.0  0.25065  0.71875  0.27794  1.0000
  H   H1750     1.0  0.25862  0.74725  0.10542  1.0000
  C   C997      1.0  0.43942  0.98845  0.23570  1.0000
  H   H1751     1.0  0.27053  0.72704  0.33981  1.0000
  C   C998      1.0  0.39313  0.97054  0.24620  1.0000
  C   C999      1.0  0.39211  0.97088  0.21685  1.0000
  H   H1752     1.0  0.39557  0.95829  0.25686  1.0000
  H   H1753     1.0  0.39370  0.95896  0.20507  1.0000
  Fe  Fe119     1.0  0.28823  0.67543  0.21708  1.0000
  C   C1000     1.0  0.47455  0.95995  0.19693  1.0000
  C   C1001     1.0  0.39127  0.99220  0.01056  1.0000
  H   H1754     1.0  0.46258  0.97823  0.15776  1.0000
  C   C1002     1.0  0.42853  0.92887  0.21178  1.0000
  S   S233      1.0  0.25958  0.84204  0.30931  1.0000
  H   H1755     1.0  0.47714  0.95152  0.21542  1.0000
  H   H1756     1.0  0.26258  0.84665  0.08370  1.0000
  C   C1003     1.0  0.28012  0.76716  0.29178  1.0000
  C   C1004     1.0  0.48017  0.95760  0.11368  1.0000
  C   C1005     1.0  0.27697  0.73422  0.28989  1.0000
  C   C1006     1.0  0.29499  0.70068  0.30772  1.0000
  H   H1757     1.0  0.27279  0.77990  0.29127  1.0000
  C   C1007     1.0  0.25177  0.87544  0.99445  1.0000
  C   C1008     1.0  0.26067  0.88401  0.04359  1.0000
  C   C1009     1.0  0.31110  0.70330  0.28968  1.0000
  H   H1758     1.0  0.25503  0.71799  0.25587  1.0000
  H   H1759     1.0  0.25653  0.77436  0.08029  1.0000
  C   C1010     1.0  0.25688  0.76807  0.13683  1.0000
  H   H1760     1.0  0.46469  0.98591  0.04629  1.0000
  S   S234      1.0  0.38815  0.98807  0.16608  1.0000
  N   N53       1.0  0.34049  0.92918  0.22686  1.0000
  C   C1011     1.0  0.34574  0.93812  0.20030  1.0000
  C   C1012     1.0  0.35441  0.91581  0.23565  1.0000
  C   C1013     1.0  0.32392  0.91965  0.22076  1.0000
  C   C1014     1.0  0.33665  0.94206  0.25002  1.0000
  C   C1015     1.0  0.35122  0.95482  0.25728  1.0000
  C   C1016     1.0  0.33256  0.95208  0.18868  1.0000
  C   C1017     1.0  0.31778  0.90699  0.24377  1.0000
  C   C1018     1.0  0.37371  0.91972  0.22905  1.0000
  C   C1019     1.0  0.38613  0.90632  0.24286  1.0000
  C   C1020     1.0  0.39114  0.98599  0.26184  1.0000
  C   C1021     1.0  0.49086  0.97133  0.19367  1.0000
  C   C1022     1.0  0.30021  0.89933  0.23619  1.0000
  H   H1761     1.0  0.34814  0.92820  0.18367  1.0000
  H   H1762     1.0  0.35835  0.94465  0.20271  1.0000
  H   H1763     1.0  0.35336  0.91299  0.25834  1.0000
  H   H1764     1.0  0.35232  0.90314  0.22506  1.0000
  H   H1765     1.0  0.32544  0.91183  0.20125  1.0000
  H   H1766     1.0  0.31282  0.92903  0.21687  1.0000
  H   H1767     1.0  0.32450  0.94989  0.24536  1.0000
  H   H1768     1.0  0.33383  0.93513  0.26972  1.0000
  H   H1769     1.0  0.28830  0.76665  0.31092  1.0000
  H   H1770     1.0  0.36240  0.94767  0.26721  1.0000
  H   H1771     1.0  0.32007  0.94619  0.18270  1.0000
  H   H1772     1.0  0.32993  0.96256  0.20419  1.0000
  H   H1773     1.0  0.31615  0.91371  0.26408  1.0000
  H   H1774     1.0  0.32726  0.89586  0.24653  1.0000
  H   H1775     1.0  0.37594  0.91888  0.20619  1.0000
  H   H1776     1.0  0.37734  0.93283  0.23608  1.0000
  H   H1777     1.0  0.38318  0.89293  0.23582  1.0000
  H   H1778     1.0  0.39977  0.90894  0.23701  1.0000
  H   H1779     1.0  0.38503  0.90710  0.26591  1.0000
  H   H1780     1.0  0.27045  0.69053  0.29475  1.0000
  C   C1023     1.0  0.26077  0.71993  0.32726  1.0000
  H   H1781     1.0  0.44383  0.95064  0.17488  1.0000
  H   H1782     1.0  0.42662  0.97459  0.04349  1.0000
  H   H1783     1.0  0.29648  0.88984  0.25239  1.0000
  H   H1784     1.0  0.28984  0.90976  0.23484  1.0000
  C   C1024     1.0  0.25031  0.84493  0.09426  1.0000
  H   H1785     1.0  0.24809  0.87942  0.05182  1.0000
  H   H1786     1.0  0.45573  0.93324  0.21565  1.0000
  H   H1787     1.0  0.28059  0.70180  0.26820  1.0000
  H   H1788     1.0  0.42931  0.92357  0.19023  1.0000
  S   S235      1.0  0.26059  0.67644  0.23203  1.0000
  N   N54       1.0  0.26634  0.71860  0.29710  1.0000
  C   C1025     1.0  0.26601  0.87369  0.01752  1.0000
  H   H1789     1.0  0.29535  0.70963  0.32586  1.0000
  H   H1790     1.0  0.46509  0.98394  0.99757  1.0000
  N   N55       1.0  0.46015  0.96188  0.02429  1.0000
  C   C1026     1.0  0.44780  0.94692  0.02393  1.0000
  C   C1027     1.0  0.43713  0.98849  0.16614  1.0000
  H   H1791     1.0  0.47441  0.95099  0.17858  1.0000
  C   C1028     1.0  0.45525  0.97524  0.04621  1.0000
  H   H1792     1.0  0.38635  0.98763  0.43228  1.0000
  C   C1029     1.0  0.44600  0.93659  0.05147  1.0000
  H   H1793     1.0  0.42977  0.96264  0.19740  1.0000
  H   H1794     1.0  0.35580  0.96185  0.23869  1.0000
  H   H1795     1.0  0.26672  0.90045  0.29102  1.0000
  H   H1796     1.0  0.48067  0.97121  0.10804  1.0000
  C   C1030     1.0  0.43421  0.92114  0.04731  1.0000
  S   S236      1.0  0.39220  0.98511  0.29873  1.0000
  H   H1797     1.0  0.45185  0.93744  0.00735  1.0000
  H   H1798     1.0  0.43432  0.95139  0.01833  1.0000
  H   H1799     1.0  0.31045  0.71616  0.27913  1.0000
  C   C1031     1.0  0.27760  0.70256  0.29092  1.0000
  C   C1032     1.0  0.44303  0.95644  0.19619  1.0000
  H   H1800     1.0  0.32304  0.70252  0.30284  1.0000
  H   H1801     1.0  0.25933  0.89816  0.03891  1.0000
  H   H1802     1.0  0.25268  0.77527  0.38429  1.0000
  H   H1803     1.0  0.34042  0.96244  0.29774  1.0000
  C   C1033     1.0  0.33971  0.96061  0.16257  1.0000
  H   H1804     1.0  0.45868  0.93110  0.05909  1.0000
  H   H1805     1.0  0.44011  0.94506  0.06792  1.0000
  C   C1034     1.0  0.45648  0.97817  0.22807  1.0000
  H   H1806     1.0  0.41570  0.93575  0.21475  1.0000
  C   C1035     1.0  0.34469  0.96863  0.27812  1.0000
  N   N56       1.0  0.25001  0.78422  0.12170  1.0000
  H   H1807     1.0  0.33368  0.97659  0.26913  1.0000
  C   C1036     1.0  0.47817  0.95442  0.03128  1.0000
  N   N57       1.0  0.45709  0.96963  0.19969  1.0000
  C   C1037     1.0  0.38903  0.98670  0.20291  1.0000
  H   H1808     1.0  0.42953  0.91776  0.22653  1.0000
  H   H1809     1.0  0.45625  0.96936  0.06731  1.0000
  H   H1810     1.0  0.42102  0.92567  0.04017  1.0000
  H   H1811     1.0  0.43990  0.91188  0.03173  1.0000
  H   H1812     1.0  0.43289  0.91409  0.06734  1.0000
  H   H1813     1.0  0.45931  0.96839  0.24469  1.0000
  H   H1814     1.0  0.28872  0.76640  0.27322  1.0000
  H   H1815     1.0  0.27867  0.87852  0.01017  1.0000
  H   H1816     1.0  0.43615  0.99204  0.02389  1.0000
  H   H1817     1.0  0.42789  0.99174  0.18315  1.0000
  H   H1818     1.0  0.49196  0.98077  0.21102  1.0000
  S   S237      1.0  0.25099  0.81841  0.23495  1.0000
  C   C1038     1.0  0.26301  0.79850  0.12311  1.0000
  C   C1039     1.0  0.28060  0.79508  0.10804  1.0000
  C   C1040     1.0  0.24975  0.84543  0.12360  1.0000
  H   H1819     1.0  0.27325  0.84757  0.98412  1.0000
  C   C1041     1.0  0.26754  0.75429  0.11953  1.0000
  C   C1042     1.0  0.27670  0.74075  0.13831  1.0000
  C   C1043     1.0  0.29121  0.81159  0.10708  1.0000
  H   H1820     1.0  0.42777  0.98059  0.23236  1.0000
  C   C1044     1.0  0.44341  0.94117  0.21731  1.0000
  H   H1821     1.0  0.49352  0.97454  0.00995  1.0000
  C   C1045     1.0  0.38771  0.97887  0.47526  1.0000
  H   H1822     1.0  0.26499  0.77185  0.15506  1.0000
  H   H1823     1.0  0.43968  0.98250  0.28018  1.0000
  C   C1046     1.0  0.46088  0.97023  0.99571  1.0000
  H   H1824     1.0  0.35234  0.96679  0.16707  1.0000
  H   H1825     1.0  0.34770  0.98759  0.47200  1.0000
  H   H1826     1.0  0.26645  0.80126  0.14511  1.0000
  H   H1827     1.0  0.27876  0.79077  0.08624  1.0000
  H   H1828     1.0  0.28854  0.78512  0.11960  1.0000
  C   C1047     1.0  0.25802  0.70253  0.34295  1.0000
  H   H1829     1.0  0.25878  0.75429  0.27294  1.0000
  H   H1830     1.0  0.30106  0.89232  0.21596  1.0000
  H   H1831     1.0  0.49242  0.97682  0.04727  1.0000
  H   H1832     1.0  0.48917  0.94929  0.46987  1.0000
  H   H1833     1.0  0.27763  0.76020  0.10655  1.0000
  H   H1834     1.0  0.28404  0.73100  0.12540  1.0000
  H   H1835     1.0  0.28612  0.74708  0.15245  1.0000
  H   H1836     1.0  0.26707  0.73380  0.15097  1.0000
  H   H1837     1.0  0.28411  0.82199  0.09514  1.0000
  H   H1838     1.0  0.29389  0.81641  0.12845  1.0000
  H   H1839     1.0  0.30391  0.80871  0.09668  1.0000
  H   H1840     1.0  0.44195  0.94608  0.23896  1.0000
  H   H1841     1.0  0.47865  0.94926  0.05291  1.0000
  H   H1842     1.0  0.25545  0.85326  0.36624  1.0000
  H   H1843     1.0  0.28860  0.73483  0.30371  1.0000
  H   H1844     1.0  0.27076  0.69586  0.34760  1.0000
  H   H1845     1.0  0.29616  0.68724  0.31640  1.0000
  H   H1846     1.0  0.43450  0.99015  0.08752  1.0000
  H   H1847     1.0  0.25093  0.84227  0.98075  1.0000
  H   H1848     1.0  0.31840  0.97454  0.47121  1.0000
  H   H1849     1.0  0.48144  0.94313  0.01736  1.0000
  H   H1850     1.0  0.25704  0.81089  0.11516  1.0000
  H   H1851     1.0  0.24850  0.72807  0.32893  1.0000
  C   C1048     1.0  0.49340  0.96728  0.02987  1.0000
  H   H1852     1.0  0.46702  0.98768  0.23015  1.0000
  H   H1853     1.0  0.25545  0.88669  0.31499  1.0000
  H   H1854     1.0  0.31221  0.69288  0.27361  1.0000
  H   H1855     1.0  0.33029  0.97083  0.15493  1.0000
  H   H1856     1.0  0.24841  0.88962  0.99288  1.0000
  C   C1049     1.0  0.39073  0.99060  0.45315  1.0000
  C   C1050     1.0  0.24874  0.70578  0.37070  1.0000
  C   C1051     1.0  0.45570  0.98313  0.17678  1.0000
  H   H1857     1.0  0.25631  0.71464  0.38409  1.0000
  H   H1858     1.0  0.49037  0.97870  0.17379  1.0000
  C   C1052     1.0  0.26730  0.75232  0.29153  1.0000
  H   H1859     1.0  0.26768  0.87718  0.28630  1.0000
  H   H1860     1.0  0.25914  0.75356  0.31051  1.0000
  H   H1861     1.0  0.43222  0.97449  0.98930  1.0000
  C   C1053     1.0  0.25914  0.88843  0.29282  1.0000
  H   H1862     1.0  0.24653  0.70727  0.02996  1.0000
  H   H1863     1.0  0.25026  0.69328  0.33082  1.0000
  H   H1864     1.0  0.26794  0.85990  0.02407  1.0000
  H   H1865     1.0  0.27078  0.88205  0.06003  1.0000
  C   C1054     1.0  0.49504  0.93021  0.12468  1.0000
  H   H1866     1.0  0.24590  0.76074  0.14577  1.0000
  H   H1867     1.0  0.49464  0.98612  0.43342  1.0000
  H   H1868     1.0  0.24726  0.80553  0.07201  1.0000
  H   H1869     1.0  0.24745  0.69322  0.38184  1.0000
  C   C1055     1.0  0.43941  0.99407  0.26630  1.0000
  Fe  Fe120     1.0  0.39119  0.97623  0.63818  1.0000
  S   S238      1.0  0.40522  0.95252  0.65546  1.0000
  C   C1056     1.0  0.43497  0.98946  0.67709  1.0000
  Fe  Fe121     1.0  0.39394  0.96341  0.57712  1.0000
  S   S239      1.0  0.40803  0.93852  0.59110  1.0000
  S   S240      1.0  0.38756  0.96769  0.53023  1.0000
  Fe  Fe122     1.0  0.38797  0.93752  0.62608  1.0000
  S   S241      1.0  0.37569  0.91144  0.63943  1.0000
  Fe  Fe123     1.0  0.42387  0.95545  0.61960  1.0000
  S   S242      1.0  0.45302  0.96117  0.62392  1.0000
  S   S243      1.0  0.37302  0.96141  0.61036  1.0000
  S   S244      1.0  0.41052  0.98017  0.60392  1.0000
  C   C1057     1.0  0.34911  0.93185  0.73994  1.0000
  S   S245      1.0  0.26764  0.71422  0.71802  1.0000
  H   H1870     1.0  0.26367  0.82788  0.63040  1.0000
  Fe  Fe124     1.0  0.26201  0.83750  0.69760  1.0000
  S   S246      1.0  0.28926  0.83404  0.68111  1.0000
  C   C1058     1.0  0.32887  0.96949  0.48538  1.0000
  Fe  Fe125     1.0  0.27327  0.83453  0.75975  1.0000
  S   S247      1.0  0.30165  0.83178  0.74661  1.0000
  S   S248      1.0  0.26722  0.82793  0.80599  1.0000
  Fe  Fe126     1.0  0.29660  0.85310  0.71463  1.0000
  S   S249      1.0  0.31139  0.87854  0.70560  1.0000
  Fe  Fe127     1.0  0.29207  0.81307  0.71402  1.0000
  S   S250      1.0  0.30598  0.78650  0.70857  1.0000
  S   S251      1.0  0.26882  0.85732  0.73034  1.0000
  S   S252      1.0  0.26425  0.81519  0.72785  1.0000
  C   C1059     1.0  0.27897  0.73379  0.71337  1.0000
  C   C1060     1.0  0.29709  0.73458  0.71609  1.0000
  C   C1061     1.0  0.30522  0.75077  0.71408  1.0000
  C   C1062     1.0  0.29533  0.76630  0.70955  1.0000
  C   C1063     1.0  0.27725  0.76540  0.70618  1.0000
  C   C1064     1.0  0.26914  0.74925  0.70812  1.0000
  H   H1871     1.0  0.30482  0.72280  0.72015  1.0000
  H   H1872     1.0  0.31924  0.75132  0.71648  1.0000
  H   H1873     1.0  0.26951  0.77719  0.70227  1.0000
  C   C1065     1.0  0.26176  0.87789  0.59122  1.0000
  C   C1066     1.0  0.35659  0.90258  0.65518  1.0000
  C   C1067     1.0  0.35544  0.88432  0.65759  1.0000
  C   C1068     1.0  0.34133  0.87667  0.67160  1.0000
  C   C1069     1.0  0.32820  0.88716  0.68402  1.0000
  C   C1070     1.0  0.32908  0.90540  0.68093  1.0000
  C   C1071     1.0  0.34300  0.91304  0.66646  1.0000
  H   H1874     1.0  0.36571  0.87598  0.64889  1.0000
  H   H1875     1.0  0.34099  0.86265  0.67364  1.0000
  H   H1876     1.0  0.31903  0.91374  0.69022  1.0000
  H   H1877     1.0  0.34344  0.92706  0.66464  1.0000
  C   C1072     1.0  0.47352  0.94972  0.62582  1.0000
  C   C1073     1.0  0.47510  0.93191  0.63183  1.0000
  H   H1878     1.0  0.45763  0.99115  0.72136  1.0000
  H   H1879     1.0  0.46349  0.92454  0.63501  1.0000
  H   H1880     1.0  0.25440  0.77425  0.65286  1.0000
  H   H1881     1.0  0.25060  0.77673  0.61580  1.0000
  H   H1882     1.0  0.29796  0.76299  0.80643  1.0000
  C   C1074     1.0  0.39320  0.98238  0.50275  1.0000
  H   H1883     1.0  0.27346  0.81210  0.93078  1.0000
  H   H1884     1.0  0.43345  0.98144  0.93934  1.0000
  H   H1885     1.0  0.28930  0.79597  0.77175  1.0000
  H   H1886     1.0  0.25512  0.74877  0.70585  1.0000
  H   H1887     1.0  0.29086  0.88801  0.89058  1.0000
  H   H1888     1.0  0.25698  0.90278  0.56920  1.0000
  H   H1889     1.0  0.48504  0.89623  0.58447  1.0000
  C   C1075     1.0  0.38362  0.97781  0.74261  1.0000
  C   C1076     1.0  0.38402  0.97991  0.71355  1.0000
  H   H1890     1.0  0.38279  0.96497  0.75134  1.0000
  H   H1891     1.0  0.38324  0.96868  0.70005  1.0000
  H   H1892     1.0  0.25510  0.69761  0.61529  1.0000
  C   C1077     1.0  0.27760  0.73434  0.80879  1.0000
  H   H1893     1.0  0.40868  0.92282  0.80611  1.0000
  H   H1894     1.0  0.47789  0.94120  0.69289  1.0000
  C   C1078     1.0  0.47566  0.95087  0.70991  1.0000
  C   C1079     1.0  0.27359  0.71562  0.80058  1.0000
  H   H1895     1.0  0.26482  0.71552  0.59897  1.0000
  H   H1896     1.0  0.26326  0.82690  0.57854  1.0000
  N   N58       1.0  0.27061  0.76671  0.79529  1.0000
  C   C1080     1.0  0.27419  0.70969  0.64073  1.0000
  H   H1897     1.0  0.39334  0.90349  0.77312  1.0000
  H   H1898     1.0  0.25193  0.88425  0.63966  1.0000
  H   H1899     1.0  0.27080  0.74439  0.76791  1.0000
  S   S253      1.0  0.25106  0.67140  0.73619  1.0000
  C   C1081     1.0  0.25289  0.82262  0.85819  1.0000
  H   H1900     1.0  0.41200  0.91195  0.67334  1.0000
  H   H1901     1.0  0.43422  0.96138  0.79669  1.0000
  H   H1902     1.0  0.47859  0.93105  0.48577  1.0000
  H   H1903     1.0  0.41695  0.97293  0.77822  1.0000
  C   C1082     1.0  0.28883  0.69733  0.63040  1.0000
  H   H1904     1.0  0.28058  0.70631  0.81475  1.0000
  H   H1905     1.0  0.25785  0.66788  0.58416  1.0000
  H   H1906     1.0  0.42227  0.98677  0.66710  1.0000
  H   H1907     1.0  0.26937  0.70442  0.66062  1.0000
  C   C1083     1.0  0.34176  0.98371  0.49199  1.0000
  H   H1908     1.0  0.26332  0.81289  0.86041  1.0000
  H   H1909     1.0  0.37547  0.93843  0.72909  1.0000
  C   C1084     1.0  0.34288  0.95022  0.73153  1.0000
  H   H1910     1.0  0.24920  0.89422  0.69010  1.0000
  H   H1911     1.0  0.44495  0.97606  0.75432  1.0000
  H   H1912     1.0  0.27176  0.86667  0.91181  1.0000
  H   H1913     1.0  0.35756  0.89538  0.71641  1.0000
  C   C1085     1.0  0.39546  0.98365  0.95393  1.0000
  H   H1914     1.0  0.37179  0.90926  0.78340  1.0000
  H   H1915     1.0  0.39813  0.89346  0.72759  1.0000
  C   C1086     1.0  0.41873  0.91299  0.69381  1.0000
  H   H1916     1.0  0.35214  0.97776  0.50538  1.0000
  C   C1087     1.0  0.26682  0.83860  0.94366  1.0000
  C   C1088     1.0  0.39129  0.90552  0.71992  1.0000
  H   H1917     1.0  0.28659  0.85130  0.58272  1.0000
  N   N59       1.0  0.25660  0.86808  0.96613  1.0000
  H   H1918     1.0  0.27383  0.73618  0.83093  1.0000
  C   C1089     1.0  0.26479  0.89058  0.63756  1.0000
  C   C1090     1.0  0.36720  0.92695  0.72716  1.0000
  H   H1919     1.0  0.44180  0.95686  0.96966  1.0000
  H   H1920     1.0  0.26251  0.88825  0.91400  1.0000
  H   H1921     1.0  0.29384  0.76351  0.76990  1.0000
  H   H1922     1.0  0.26831  0.87234  0.57241  1.0000
  H   H1923     1.0  0.31902  0.80347  0.78475  1.0000
  C   C1091     1.0  0.26668  0.77189  0.82500  1.0000
  C   C1092     1.0  0.39641  0.93094  0.80650  1.0000
  C   C1093     1.0  0.38776  0.93129  0.77777  1.0000
  C   C1094     1.0  0.48879  0.95912  0.62200  1.0000
  H   H1924     1.0  0.32296  0.96458  0.50483  1.0000
  C   C1095     1.0  0.26172  0.84906  0.97015  1.0000
  H   H1925     1.0  0.25713  0.81368  0.95758  1.0000
  C   C1096     1.0  0.44541  0.98226  0.95237  1.0000
  H   H1926     1.0  0.29472  0.70244  0.61109  1.0000
  H   H1927     1.0  0.39696  0.98014  0.93222  1.0000
  H   H1928     1.0  0.29209  0.79580  0.80892  1.0000
  C   C1097     1.0  0.40579  0.91890  0.71640  1.0000
  H   H1929     1.0  0.39962  0.94443  0.81272  1.0000
  C   C1098     1.0  0.29550  0.78878  0.78941  1.0000
  H   H1930     1.0  0.32219  0.78342  0.80382  1.0000
  C   C1099     1.0  0.36337  0.89619  0.73759  1.0000
  H   H1931     1.0  0.25788  0.74483  0.61109  1.0000
  N   N60       1.0  0.37622  0.91071  0.73876  1.0000
  H   H1932     1.0  0.27803  0.71284  0.77895  1.0000
  C   C1100     1.0  0.26946  0.81919  0.95006  1.0000
  H   H1933     1.0  0.37901  0.87243  0.72785  1.0000
  H   H1934     1.0  0.42581  0.98199  0.80990  1.0000
  Fe  Fe128     1.0  0.27503  0.68511  0.72199  1.0000
  H   H1935     1.0  0.25337  0.86748  0.59931  1.0000
  H   H1936     1.0  0.42910  0.92269  0.69177  1.0000
  C   C1101     1.0  0.27302  0.87940  0.92233  1.0000
  C   C1102     1.0  0.31528  0.78964  0.78587  1.0000
  C   C1103     1.0  0.27319  0.88882  0.66689  1.0000
  H   H1937     1.0  0.29209  0.89989  0.92295  1.0000
  H   H1938     1.0  0.42497  0.90016  0.69915  1.0000
  H   H1939     1.0  0.35141  0.96010  0.74081  1.0000
  H   H1940     1.0  0.40045  0.93192  0.71025  1.0000
  H   H1941     1.0  0.26733  0.77944  0.75528  1.0000
  H   H1942     1.0  0.27577  0.76488  0.83959  1.0000
  H   H1943     1.0  0.36528  0.92556  0.70430  1.0000
  H   H1944     1.0  0.34725  0.86912  0.76631  1.0000
  H   H1945     1.0  0.36142  0.85172  0.75342  1.0000
  H   H1946     1.0  0.32939  0.95279  0.73924  1.0000
  H   H1947     1.0  0.38742  0.92571  0.82233  1.0000
  H   H1948     1.0  0.35224  0.89897  0.75197  1.0000
  N   N61       1.0  0.27492  0.88280  0.61319  1.0000
  C   C1104     1.0  0.28471  0.86631  0.62201  1.0000
  C   C1105     1.0  0.25155  0.83226  0.83322  1.0000
  S   S254      1.0  0.38242  0.98871  0.79683  1.0000
  C   C1106     1.0  0.28684  0.89588  0.60057  1.0000
  C   C1107     1.0  0.30306  0.90081  0.61787  1.0000
  C   C1108     1.0  0.29533  0.85655  0.59893  1.0000
  H   H1949     1.0  0.46959  0.96292  0.70087  1.0000
  H   H1950     1.0  0.25135  0.78482  0.87292  1.0000
  C   C1109     1.0  0.31540  0.91161  0.60047  1.0000
  C   C1110     1.0  0.30585  0.84102  0.61090  1.0000
  H   H1951     1.0  0.27542  0.85705  0.63102  1.0000
  H   H1952     1.0  0.29402  0.86883  0.63920  1.0000
  H   H1953     1.0  0.26917  0.78593  0.82829  1.0000
  H   H1954     1.0  0.27980  0.81707  0.96610  1.0000
  C   C1111     1.0  0.42905  0.97452  0.79063  1.0000
  H   H1955     1.0  0.29141  0.89126  0.57973  1.0000
  H   H1956     1.0  0.27955  0.90837  0.59642  1.0000
  H   H1957     1.0  0.31072  0.88922  0.62530  1.0000
  H   H1958     1.0  0.29900  0.90896  0.63596  1.0000
  H   H1959     1.0  0.30469  0.86527  0.58892  1.0000
  C   C1112     1.0  0.25917  0.71115  0.61905  1.0000
  H   H1960     1.0  0.27357  0.87495  0.67353  1.0000
  H   H1961     1.0  0.28663  0.89350  0.66721  1.0000
  H   H1962     1.0  0.49290  0.90990  0.63874  1.0000
  H   H1963     1.0  0.27938  0.84314  0.93540  1.0000
  H   H1964     1.0  0.28372  0.68422  0.62619  1.0000
  H   H1965     1.0  0.32672  0.91537  0.61338  1.0000
  H   H1966     1.0  0.32048  0.90389  0.58244  1.0000
  H   H1967     1.0  0.30861  0.92369  0.59281  1.0000
  H   H1968     1.0  0.31371  0.83463  0.59414  1.0000
  H   H1969     1.0  0.31488  0.84532  0.62754  1.0000
  H   H1970     1.0  0.29696  0.83127  0.61954  1.0000
  H   H1971     1.0  0.25350  0.74466  0.79204  1.0000
  C   C1113     1.0  0.38399  0.99222  0.76051  1.0000
  C   C1114     1.0  0.29045  0.88678  0.91364  1.0000
  C   C1115     1.0  0.26265  0.89914  0.68870  1.0000
  C   C1116     1.0  0.37064  0.87766  0.74500  1.0000
  H   H1972     1.0  0.48771  0.97291  0.61740  1.0000
  C   C1117     1.0  0.35587  0.86496  0.74879  1.0000
  H   H1973     1.0  0.31952  0.78301  0.76633  1.0000
  H   H1974     1.0  0.45686  0.97835  0.93941  1.0000
  C   C1118     1.0  0.28978  0.76954  0.79013  1.0000
  H   H1975     1.0  0.29918  0.69604  0.64661  1.0000
  H   H1976     1.0  0.26904  0.89751  0.70939  1.0000
  H   H1977     1.0  0.38622  0.90230  0.69873  1.0000
  H   H1978     1.0  0.25950  0.74196  0.64783  1.0000
  S   S255      1.0  0.29275  0.66921  0.75054  1.0000
  H   H1979     1.0  0.48735  0.94150  0.53266  1.0000
  H   H1980     1.0  0.34790  0.86419  0.72948  1.0000
  C   C1119     1.0  0.26748  0.74764  0.78994  1.0000
  H   H1981     1.0  0.39838  0.95708  0.96863  1.0000
  C   C1120     1.0  0.48260  0.94469  0.48896  1.0000
  H   H1982     1.0  0.47064  0.95300  0.49243  1.0000
  H   H1983     1.0  0.34283  0.95160  0.70848  1.0000
  H   H1984     1.0  0.44237  0.97688  0.67971  1.0000
  S   S256      1.0  0.28012  0.66707  0.68547  1.0000
  H   H1985     1.0  0.28012  0.72243  0.64480  1.0000
  H   H1986     1.0  0.37842  0.87777  0.76453  1.0000
  H   H1987     1.0  0.28425  0.87245  0.96268  1.0000
  C   C1121     1.0  0.26006  0.77802  0.77510  1.0000
  C   C1122     1.0  0.49180  0.92367  0.63400  1.0000
  C   C1123     1.0  0.38226  0.91283  0.76860  1.0000
  C   C1124     1.0  0.44400  0.97024  0.97757  1.0000
  H   H1988     1.0  0.29191  0.73557  0.80684  1.0000
  H   H1989     1.0  0.37610  0.94022  0.77921  1.0000
  H   H1990     1.0  0.34947  0.93106  0.76302  1.0000
  H   H1991     1.0  0.33919  0.92276  0.73226  1.0000
  H   H1992     1.0  0.30146  0.87795  0.92030  1.0000
  H   H1993     1.0  0.25834  0.79153  0.78348  1.0000
  H   H1994     1.0  0.46644  0.94536  0.72509  1.0000
  H   H1995     1.0  0.41328  0.92001  0.73609  1.0000
  H   H1996     1.0  0.39699  0.93704  0.76304  1.0000
  H   H1997     1.0  0.49132  0.91332  0.54230  1.0000
  C   C1125     1.0  0.44264  0.98386  0.77348  1.0000
  C   C1126     1.0  0.24945  0.89293  0.58046  1.0000
  H   H1998     1.0  0.42461  0.98892  0.71834  1.0000
  H   H1999     1.0  0.25938  0.71335  0.80195  1.0000
  C   C1127     1.0  0.25209  0.83218  0.61911  1.0000
  H   H2000     1.0  0.25351  0.76144  0.87759  1.0000
  H   H2001     1.0  0.45487  0.98381  0.78596  1.0000
  C   C1128     1.0  0.49291  0.95473  0.72443  1.0000
  C   C1129     1.0  0.27164  0.87807  0.95459  1.0000
  H   H2002     1.0  0.25997  0.69063  0.94214  1.0000
  C   C1130     1.0  0.39622  0.97055  0.97472  1.0000
  H   H2003     1.0  0.32624  0.99415  0.52569  1.0000
  H   H2004     1.0  0.27110  0.89180  0.96227  1.0000
  H   H2005     1.0  0.26166  0.90465  0.63388  1.0000
  C   C1131     1.0  0.25178  0.83151  0.58975  1.0000
  H   H2006     1.0  0.25665  0.83985  0.92734  1.0000
  C   C1132     1.0  0.25032  0.74120  0.62991  1.0000
  H   H2007     1.0  0.26205  0.91323  0.68348  1.0000
  H   H2008     1.0  0.48990  0.96327  0.74259  1.0000
  C   C1133     1.0  0.24715  0.66163  0.59430  1.0000
  H   H2009     1.0  0.25933  0.66187  0.63494  1.0000
  C   C1134     1.0  0.49467  0.94586  0.51426  1.0000
  C   C1135     1.0  0.24773  0.76961  0.83492  1.0000
  C   C1136     1.0  0.24623  0.77208  0.86642  1.0000
  C   C1137     1.0  0.24555  0.69054  0.94429  1.0000
  Fe  Fe129     1.0  0.70324  0.13884  0.20818  1.0000
  S   S257      1.0  0.67515  0.14714  0.21531  1.0000
  S   S258      1.0  0.71023  0.13261  0.16228  1.0000
  Fe  Fe130     1.0  0.71070  0.14344  0.27070  1.0000
  S   S259      1.0  0.68328  0.15272  0.28103  1.0000
  H   H2010     1.0  0.49757  0.00499  0.45374  1.0000
  Fe  Fe131     1.0  0.67521  0.13022  0.25381  1.0000
  S   S260      1.0  0.65073  0.11351  0.25969  1.0000
  Fe  Fe132     1.0  0.68538  0.16872  0.24184  1.0000
  S   S261      1.0  0.67366  0.19606  0.23337  1.0000
  S   S262      1.0  0.70282  0.12026  0.24495  1.0000
  S   S263      1.0  0.71331  0.16104  0.23338  1.0000
  Fe  Fe133     1.0  0.70019  0.29790  0.25322  1.0000
  S   S264      1.0  0.72675  0.30406  0.23689  1.0000
  S   S265      1.0  0.69896  0.27045  0.27195  1.0000
  H   H2011     1.0  0.57252  0.13382  0.35002  1.0000
  Fe  Fe134     1.0  0.54838  0.04209  0.35116  1.0000
  S   S266      1.0  0.54925  0.01376  0.36192  1.0000
  S   S267      1.0  0.52355  0.05923  0.35541  1.0000
  Fe  Fe135     1.0  0.58871  0.04334  0.34694  1.0000
  S   S268      1.0  0.59200  0.01467  0.35846  1.0000
  S   S269      1.0  0.61227  0.06156  0.34374  1.0000
  Fe  Fe136     1.0  0.56960  0.01128  0.32828  1.0000
  C   C1138     1.0  0.61110  0.02245  0.13750  1.0000
  Fe  Fe137     1.0  0.57119  0.01913  0.39153  1.0000
  H   H2012     1.0  0.52485  0.05776  0.41629  1.0000
  S   S270      1.0  0.56728  0.03945  0.31527  1.0000
  S   S271      1.0  0.56952  0.04791  0.38207  1.0000
  H   H2013     1.0  0.71750  0.27602  0.01052  1.0000
  C   C1139     1.0  0.73316  0.26862  0.13163  1.0000
  H   H2014     1.0  0.60907  0.10016  0.36047  1.0000
  H   H2015     1.0  0.72784  0.17267  0.06607  1.0000
  N   N62       1.0  0.69872  0.19821  0.34087  1.0000
  C   C1140     1.0  0.73185  0.09197  0.30627  1.0000
  C   C1141     1.0  0.72050  0.18652  0.37928  1.0000
  C   C1142     1.0  0.70684  0.20067  0.36935  1.0000
  H   H2016     1.0  0.68815  0.16914  0.37602  1.0000
  C   C1143     1.0  0.55239  0.01714  0.07295  1.0000
  N   N63       1.0  0.58145  0.10746  0.35960  1.0000
  H   H2017     1.0  0.57452  0.01767  0.04603  1.0000
  C   C1144     1.0  0.58699  0.00073  0.22425  1.0000
  C   C1145     1.0  0.64086  0.09833  0.28290  1.0000
  C   C1146     1.0  0.64769  0.09427  0.30930  1.0000
  C   C1147     1.0  0.63892  0.08285  0.32727  1.0000
  C   C1148     1.0  0.62329  0.07501  0.31914  1.0000
  C   C1149     1.0  0.61665  0.07876  0.29250  1.0000
  C   C1150     1.0  0.62528  0.09040  0.27470  1.0000
  H   H2018     1.0  0.65963  0.10013  0.31606  1.0000
  H   H2019     1.0  0.64428  0.08010  0.34772  1.0000
  H   H2020     1.0  0.60474  0.07286  0.28568  1.0000
  H   H2021     1.0  0.61984  0.09329  0.25435  1.0000
  C   C1151     1.0  0.68204  0.21686  0.24099  1.0000
  C   C1152     1.0  0.67170  0.23190  0.23515  1.0000
  C   C1153     1.0  0.67732  0.24861  0.24259  1.0000
  C   C1154     1.0  0.69337  0.25045  0.25605  1.0000
  C   C1155     1.0  0.70395  0.23544  0.26108  1.0000
  C   C1156     1.0  0.69842  0.21875  0.25325  1.0000
  H   H2022     1.0  0.65901  0.23060  0.22555  1.0000
  H   H2023     1.0  0.66886  0.25997  0.23907  1.0000
  H   H2024     1.0  0.71634  0.23674  0.27157  1.0000
  H   H2025     1.0  0.70658  0.20728  0.25728  1.0000
  H   H2026     1.0  0.58857  0.09309  0.32228  1.0000
  H   H2027     1.0  0.58419  0.08679  0.45298  1.0000
  H   H2028     1.0  0.71606  0.23220  0.15774  1.0000
  C   C1157     1.0  0.72636  0.13809  0.13701  1.0000
  C   C1158     1.0  0.72444  0.13230  0.10929  1.0000
  C   C1159     1.0  0.60709  0.03452  0.04494  1.0000
  H   H2029     1.0  0.71571  0.17318  0.37725  1.0000
  H   H2030     1.0  0.71335  0.12462  0.10387  1.0000
  H   H2031     1.0  0.62384  0.02884  0.00910  1.0000
  C   C1160     1.0  0.73225  0.14258  0.33772  1.0000
  H   H2032     1.0  0.61686  0.00949  0.14332  1.0000
  C   C1161     1.0  0.71829  0.13324  0.38036  1.0000
  C   C1162     1.0  0.71827  0.13490  0.35110  1.0000
  H   H2033     1.0  0.70749  0.12719  0.39058  1.0000
  H   H2034     1.0  0.70758  0.12999  0.33891  1.0000
  H   H2035     1.0  0.55067  0.00752  0.98499  1.0000
  H   H2036     1.0  0.54651  0.14085  0.40183  1.0000
  H   H2037     1.0  0.72238  0.26447  0.39355  1.0000
  H   H2038     1.0  0.60929  0.04765  0.00511  1.0000
  C   C1163     1.0  0.50323  0.00534  0.35532  1.0000
  S   S272      1.0  0.71721  0.31846  0.15691  1.0000
  C   C1164     1.0  0.50229  0.05320  0.34490  1.0000
  H   H2039     1.0  0.54731  0.11087  0.38231  1.0000
  H   H2040     1.0  0.67859  0.24791  0.16005  1.0000
  H   H2041     1.0  0.72597  0.29565  0.02533  1.0000
  H   H2042     1.0  0.56832  0.07922  0.28627  1.0000
  C   C1165     1.0  0.72961  0.28256  0.01681  1.0000
  H   H2043     1.0  0.72474  0.08365  0.32102  1.0000
  H   H2044     1.0  0.62732  0.02503  0.10082  1.0000
  H   H2045     1.0  0.54638  0.07496  0.29725  1.0000
  C   C1166     1.0  0.57711  0.10057  0.33091  1.0000
  H   H2046     1.0  0.60929  0.03966  0.10198  1.0000
  C   C1167     1.0  0.68415  0.16910  0.35381  1.0000
  C   C1168     1.0  0.56198  0.08766  0.32856  1.0000
  H   H2047     1.0  0.54511  0.11972  0.34747  1.0000
  C   C1169     1.0  0.50614  0.99736  0.38478  1.0000
  H   H2048     1.0  0.56630  0.07491  0.33748  1.0000
  H   H2049     1.0  0.58813  0.01058  0.26652  1.0000
  H   H2050     1.0  0.54843  0.01178  0.09338  1.0000
  H   H2051     1.0  0.70697  0.18408  0.06372  1.0000
  H   H2052     1.0  0.55202  0.09687  0.28839  1.0000
  H   H2053     1.0  0.62335  0.01234  0.05606  1.0000
  H   H2054     1.0  0.73089  0.20645  0.15441  1.0000
  H   H2055     1.0  0.60360  0.11958  0.37911  1.0000
  H   H2056     1.0  0.69369  0.16126  0.34142  1.0000
  H   H2057     1.0  0.73174  0.18249  0.11427  1.0000
  C   C1170     1.0  0.60677  0.12314  0.33478  1.0000
  N   N64       1.0  0.60291  0.01404  0.08694  1.0000
  H   H2058     1.0  0.72348  0.21036  0.29761  1.0000
  C   C1171     1.0  0.72563  0.18929  0.40974  1.0000
  C   C1172     1.0  0.58377  0.01923  0.08963  1.0000
  H   H2059     1.0  0.54391  0.01167  0.05654  1.0000
  H   H2060     1.0  0.72751  0.18428  0.16137  1.0000
  C   C1173     1.0  0.74024  0.32515  0.08062  1.0000
  C   C1174     1.0  0.57149  0.01221  0.06677  1.0000
  H   H2061     1.0  0.52619  0.02000  0.40892  1.0000
  C   C1175     1.0  0.73192  0.26406  0.41095  1.0000
  S   S273      1.0  0.73193  0.13687  0.43313  1.0000
  S   S274      1.0  0.68581  0.31353  0.21989  1.0000
  H   H2062     1.0  0.57450  0.11156  0.31620  1.0000
  S   S275      1.0  0.73357  0.14405  0.30103  1.0000
  H   H2063     1.0  0.73606  0.18167  0.28027  1.0000
  H   H2064     1.0  0.70196  0.23538  0.12811  1.0000
  H   H2065     1.0  0.71418  0.18782  0.42356  1.0000
  H   H2066     1.0  0.73259  0.18691  0.36677  1.0000
  H   H2067     1.0  0.73211  0.28234  0.30175  1.0000
  C   C1176     1.0  0.61049  0.03420  0.01357  1.0000
  C   C1177     1.0  0.73946  0.27153  0.03857  1.0000
  H   H2068     1.0  0.73303  0.20633  0.33096  1.0000
  H   H2069     1.0  0.51141  0.01681  0.35254  1.0000
  C   C1178     1.0  0.73191  0.32041  0.37122  1.0000
  C   C1179     1.0  0.56265  0.99968  0.98469  1.0000
  C   C1180     1.0  0.74147  0.18862  0.29853  1.0000
  C   C1181     1.0  0.55693  0.08455  0.29819  1.0000
  C   C1182     1.0  0.60920  0.01595  0.05745  1.0000
  S   S276      1.0  0.56753  0.01292  0.43848  1.0000
  H   H2070     1.0  0.71684  0.21551  0.19899  1.0000
  C   C1183     1.0  0.50970  0.03708  0.43449  1.0000
  C   C1184     1.0  0.74086  0.14800  0.14356  1.0000
  H   H2071     1.0  0.61069  0.32226  0.27033  1.0000
  H   H2072     1.0  0.61467  0.04935  0.15061  1.0000
  H   H2073     1.0  0.59636  0.00974  0.21643  1.0000
  C   C1185     1.0  0.62039  0.03611  0.15474  1.0000
  H   H2074     1.0  0.52235  0.05907  0.45352  1.0000
  H   H2075     1.0  0.66153  0.15970  0.33097  1.0000
  C   C1186     1.0  0.66674  0.15993  0.35258  1.0000
  H   H2076     1.0  0.73502  0.13162  0.06737  1.0000
  H   H2077     1.0  0.71024  0.19371  0.20532  1.0000
  H   H2078     1.0  0.61882  0.03325  0.17727  1.0000
  C   C1187     1.0  0.58232  0.00126  0.25264  1.0000
  H   H2079     1.0  0.58972  0.07170  0.42534  1.0000
  S   S277      1.0  0.69892  0.32048  0.28368  1.0000
  H   H2080     1.0  0.57279  0.99786  0.06524  1.0000
  H   H2081     1.0  0.58754  0.08176  0.37557  1.0000
  H   H2082     1.0  0.57865  0.01479  0.11004  1.0000
  H   H2083     1.0  0.59383  0.04031  0.04824  1.0000
  C   C1188     1.0  0.60048  0.11219  0.35986  1.0000
  H   H2084     1.0  0.73780  0.28404  0.99797  1.0000
  H   H2085     1.0  0.71368  0.21325  0.37036  1.0000
  C   C1189     1.0  0.72029  0.20154  0.19526  1.0000
  H   H2086     1.0  0.51017  0.03231  0.39078  1.0000
  C   C1190     1.0  0.71110  0.18934  0.32046  1.0000
  C   C1191     1.0  0.69358  0.21587  0.32887  1.0000
  C   C1192     1.0  0.49945  0.04443  0.31980  1.0000
  H   H2087     1.0  0.73014  0.26879  0.05550  1.0000
  C   C1193     1.0  0.67798  0.24542  0.33350  1.0000
  H   H2088     1.0  0.70412  0.18636  0.30065  1.0000
  H   H2089     1.0  0.71580  0.17642  0.32825  1.0000
  H   H2090     1.0  0.68842  0.21436  0.30728  1.0000
  H   H2091     1.0  0.70517  0.22415  0.32716  1.0000
  H   H2092     1.0  0.73642  0.32354  0.05908  1.0000
  H   H2093     1.0  0.50960  0.03026  0.45478  1.0000
  C   C1194     1.0  0.58372  0.09835  0.41167  1.0000
  H   H2094     1.0  0.52750  0.13673  0.38095  1.0000
  H   H2095     1.0  0.58180  0.03367  0.09002  1.0000
  C   C1195     1.0  0.73224  0.13926  0.39643  1.0000
  H   H2096     1.0  0.69052  0.25220  0.33522  1.0000
  H   H2097     1.0  0.67399  0.24506  0.31121  1.0000
  C   C1196     1.0  0.62484  0.13031  0.34033  1.0000
  H   H2098     1.0  0.59778  0.13435  0.33016  1.0000
  H   H2099     1.0  0.63422  0.11970  0.34669  1.0000
  H   H2100     1.0  0.62983  0.13637  0.32104  1.0000
  H   H2101     1.0  0.62416  0.14033  0.35704  1.0000
  N   N65       1.0  0.70417  0.19859  0.14802  1.0000
  C   C1197     1.0  0.70794  0.19914  0.11723  1.0000
  C   C1198     1.0  0.69351  0.21472  0.15599  1.0000
  H   H2102     1.0  0.71560  0.31683  0.09700  1.0000
  C   C1199     1.0  0.69385  0.18281  0.15546  1.0000
  C   C1200     1.0  0.67773  0.17941  0.13670  1.0000
  C   C1201     1.0  0.71834  0.18308  0.10545  1.0000
  C   C1202     1.0  0.72131  0.19755  0.16364  1.0000
  C   C1203     1.0  0.69262  0.24726  0.16598  1.0000
  H   H2103     1.0  0.72684  0.19610  0.06769  1.0000
  C   C1204     1.0  0.66709  0.16456  0.14806  1.0000
  H   H2104     1.0  0.53728  0.04298  0.43866  1.0000
  H   H2105     1.0  0.67583  0.18746  0.32182  1.0000
  H   H2106     1.0  0.71091  0.26410  0.44123  1.0000
  H   H2107     1.0  0.69564  0.20111  0.10507  1.0000
  H   H2108     1.0  0.68102  0.21545  0.14420  1.0000
  H   H2109     1.0  0.68942  0.21406  0.17824  1.0000
  H   H2110     1.0  0.73580  0.17937  0.41596  1.0000
  C   C1205     1.0  0.72839  0.32143  0.10225  1.0000
  H   H2111     1.0  0.70228  0.17071  0.15518  1.0000
  H   H2112     1.0  0.68911  0.18383  0.17734  1.0000
  H   H2113     1.0  0.68188  0.17564  0.11534  1.0000
  H   H2114     1.0  0.66886  0.19106  0.13524  1.0000
  Fe  Fe138     1.0  0.71270  0.32074  0.20468  1.0000
  H   H2115     1.0  0.71201  0.17070  0.11043  1.0000
  H   H2116     1.0  0.72685  0.10566  0.30831  1.0000
  H   H2117     1.0  0.60273  0.00648  0.04346  1.0000
  H   H2118     1.0  0.71850  0.28549  0.43301  1.0000
  C   C1206     1.0  0.72266  0.27166  0.43663  1.0000
  H   H2119     1.0  0.74078  0.23683  0.37649  1.0000
  H   H2120     1.0  0.71583  0.21062  0.11224  1.0000
  H   H2121     1.0  0.69378  0.24544  0.18887  1.0000
  H   H2122     1.0  0.65624  0.16180  0.13348  1.0000
  H   H2123     1.0  0.67539  0.15250  0.15036  1.0000
  H   H2124     1.0  0.66136  0.16827  0.16854  1.0000
  C   C1207     1.0  0.58101  0.08298  0.43126  1.0000
  H   H2125     1.0  0.73105  0.20241  0.41285  1.0000
  C   C1208     1.0  0.72729  0.19994  0.31254  1.0000
  H   H2126     1.0  0.60775  0.11492  0.31574  1.0000
  H   H2127     1.0  0.56572  0.08873  0.38145  1.0000
  H   H2128     1.0  0.66786  0.25306  0.34523  1.0000
  H   H2129     1.0  0.74178  0.18366  0.20715  1.0000
  H   H2130     1.0  0.69843  0.25988  0.16061  1.0000
  H   H2131     1.0  0.68330  0.22786  0.36765  1.0000
  H   H2132     1.0  0.66866  0.14624  0.35976  1.0000
  H   H2133     1.0  0.59714  0.02291  0.14360  1.0000
  C   C1209     1.0  0.61316  0.02574  0.10580  1.0000
  H   H2134     1.0  0.66669  0.22118  0.34344  1.0000
  H   H2135     1.0  0.69644  0.20181  0.38548  1.0000
  C   C1210     1.0  0.55073  0.12178  0.36852  1.0000
  H   H2136     1.0  0.60079  0.02609  0.00272  1.0000
  H   H2137     1.0  0.55010  0.09203  0.33988  1.0000
  H   H2138     1.0  0.55036  0.03154  0.07322  1.0000
  H   H2139     1.0  0.65697  0.16662  0.36631  1.0000
  H   H2140     1.0  0.57542  0.12981  0.38583  1.0000
  C   C1211     1.0  0.67974  0.22693  0.34528  1.0000
  H   H2141     1.0  0.56723  0.07893  0.43057  1.0000
  H   H2142     1.0  0.59756  0.10192  0.41373  1.0000
  C   C1212     1.0  0.68225  0.18798  0.34272  1.0000
  H   H2143     1.0  0.57519  0.10938  0.41899  1.0000
  H   H2144     1.0  0.67267  0.19455  0.35691  1.0000
  C   C1213     1.0  0.57069  0.12376  0.36624  1.0000
  H   H2145     1.0  0.73148  0.27094  0.45503  1.0000
  C   C1214     1.0  0.51220  0.02431  0.40975  1.0000
  C   C1215     1.0  0.70227  0.23235  0.15073  1.0000
  H   H2146     1.0  0.51044  0.04065  0.30678  1.0000
  C   C1216     1.0  0.52447  0.04998  0.43573  1.0000
  C   C1217     1.0  0.57924  0.09342  0.38119  1.0000
  C   C1218     1.0  0.72004  0.18414  0.07379  1.0000
  C   C1219     1.0  0.54185  0.13834  0.38029  1.0000
  H   H2147     1.0  0.61659  0.04327  0.05481  1.0000
  C   C1220     1.0  0.73675  0.13624  0.08847  1.0000
  H   H2148     1.0  0.54453  0.14974  0.36693  1.0000
  H   H2149     1.0  0.63457  0.03587  0.14990  1.0000
  H   H2150     1.0  0.51260  0.02363  0.00942  1.0000
  H   H2151     1.0  0.73535  0.26293  0.35311  1.0000
  N   N66       1.0  0.50063  0.00879  0.40914  1.0000
  H   H2152     1.0  0.72912  0.08752  0.28470  1.0000
  H   H2153     1.0  0.58821  0.32275  0.28131  1.0000
  H   H2154     1.0  0.74268  0.15247  0.16471  1.0000
  C   C1221     1.0  0.73781  0.19763  0.20965  1.0000
  H   H2155     1.0  0.73378  0.25874  0.30255  1.0000
  H   H2156     1.0  0.50645  0.99850  0.31176  1.0000
  H   H2157     1.0  0.63431  0.99773  0.09660  1.0000
  H   H2158     1.0  0.73567  0.25033  0.41590  1.0000
  H   H2159     1.0  0.73663  0.20053  0.23226  1.0000
  C   C1222     1.0  0.49876  0.02112  0.00420  1.0000
  C   C1223     1.0  0.73280  0.32377  0.13056  1.0000
  H   H2160     1.0  0.49622  0.00717  0.00802  1.0000
  H   H2161     1.0  0.72407  0.25971  0.12120  1.0000
  H   H2162     1.0  0.74343  0.25903  0.02843  1.0000
  H   H2163     1.0  0.59366  0.32714  0.24531  1.0000
  H   H2164     1.0  0.72080  0.31432  0.38049  1.0000
  H   H2165     1.0  0.74139  0.26121  0.14692  1.0000
  H   H2166     1.0  0.73561  0.28493  0.09597  1.0000
  H   H2167     1.0  0.72220  0.31789  0.32927  1.0000
  H   H2168     1.0  0.53008  0.00315  0.44605  1.0000
  C   C1224     1.0  0.57124  0.99610  0.46406  1.0000
  H   H2169     1.0  0.69182  0.32453  0.35241  1.0000
  C   C1225     1.0  0.50270  0.99791  0.43520  1.0000
  C   C1226     1.0  0.73259  0.32256  0.34217  1.0000
  H   H2170     1.0  0.73919  0.28535  0.35497  1.0000
  H   H2171     1.0  0.72531  0.27872  0.14312  1.0000
  H   H2172     1.0  0.49730  0.04480  0.43179  1.0000
  C   C1227     1.0  0.74130  0.27082  0.30088  1.0000
  S   S278      1.0  0.74322  0.32459  0.42482  1.0000
  H   H2173     1.0  0.74445  0.28850  0.40361  1.0000
  C   C1228     1.0  0.60527  0.99513  0.09507  1.0000
  C   C1229     1.0  0.74450  0.27745  0.11009  1.0000
  Fe  Fe139     1.0  0.72468  0.32727  0.26555  1.0000
  C   C1230     1.0  0.74532  0.32638  0.38837  1.0000
  Fe  Fe140     1.0  0.70333  0.14367  0.71552  1.0000
  S   S279      1.0  0.67944  0.15930  0.72992  1.0000
  S   S280      1.0  0.70623  0.14026  0.66779  1.0000
  Fe  Fe141     1.0  0.71565  0.13881  0.77656  1.0000
  S   S281      1.0  0.69288  0.15430  0.79389  1.0000
  H   H2174     1.0  0.72694  0.21717  0.63965  1.0000
  Fe  Fe142     1.0  0.67681  0.13876  0.76379  1.0000
  S   S282      1.0  0.65029  0.12805  0.77807  1.0000
  Fe  Fe143     1.0  0.69763  0.17314  0.75895  1.0000
  S   S283      1.0  0.70598  0.20129  0.76529  1.0000
  S   S284      1.0  0.69957  0.12239  0.74765  1.0000
  S   S285      1.0  0.72138  0.15821  0.74318  1.0000
  Fe  Fe144     1.0  0.68684  0.30331  0.74671  1.0000
  S   S286      1.0  0.71467  0.30408  0.73301  1.0000
  S   S287      1.0  0.67235  0.27814  0.75343  1.0000
  H   H2175     1.0  0.53834  0.00026  0.90698  1.0000
  Fe  Fe145     1.0  0.55223  0.04239  0.84381  1.0000
  S   S288      1.0  0.55345  0.01471  0.85800  1.0000
  S   S289      1.0  0.52584  0.05687  0.83956  1.0000
  Fe  Fe146     1.0  0.59247  0.04486  0.84150  1.0000
  S   S290      1.0  0.59590  0.01691  0.85688  1.0000
  S   S291      1.0  0.61828  0.05832  0.82973  1.0000
  Fe  Fe147     1.0  0.57461  0.01104  0.82603  1.0000
  C   C1231     1.0  0.70581  0.26101  0.85829  1.0000
  Fe  Fe148     1.0  0.57437  0.02271  0.88812  1.0000
  S   S292      1.0  0.56852  0.01617  0.93442  1.0000
  S   S293      1.0  0.57200  0.03834  0.80936  1.0000
  S   S294      1.0  0.57236  0.05108  0.87495  1.0000
  H   H2176     1.0  0.72693  0.18290  0.63211  1.0000
  H   H2177     1.0  0.72572  0.29927  0.87418  1.0000
  H   H2178     1.0  0.74280  0.18951  0.73033  1.0000
  N   N67       1.0  0.70950  0.28009  0.85448  1.0000
  H   H2179     1.0  0.70506  0.17858  0.66342  1.0000
  H   H2180     1.0  0.69595  0.15271  0.95043  1.0000
  C   C1232     1.0  0.57508  0.00133  0.74767  1.0000
  H   H2181     1.0  0.66019  0.17381  0.63815  1.0000
  H   H2182     1.0  0.73979  0.28102  0.50204  1.0000
  C   C1233     1.0  0.50562  0.04624  0.83861  1.0000
  C   C1234     1.0  0.50487  0.02820  0.83510  1.0000
  H   H2183     1.0  0.58648  0.07624  0.71562  1.0000
  H   H2184     1.0  0.51684  0.02048  0.83269  1.0000
  C   C1235     1.0  0.64183  0.10857  0.79290  1.0000
  C   C1236     1.0  0.65224  0.09353  0.79795  1.0000
  C   C1237     1.0  0.64480  0.07842  0.80923  1.0000
  C   C1238     1.0  0.62686  0.07800  0.81579  1.0000
  C   C1239     1.0  0.61648  0.09304  0.81074  1.0000
  C   C1240     1.0  0.62391  0.10814  0.79943  1.0000
  H   H2185     1.0  0.66598  0.09346  0.79287  1.0000
  H   H2186     1.0  0.65303  0.06690  0.81273  1.0000
  H   H2187     1.0  0.60270  0.09307  0.81555  1.0000
  H   H2188     1.0  0.61565  0.11960  0.79563  1.0000
  C   C1241     1.0  0.69622  0.22233  0.75995  1.0000
  C   C1242     1.0  0.70710  0.23672  0.75869  1.0000
  C   C1243     1.0  0.70001  0.25383  0.75596  1.0000
  C   C1244     1.0  0.68192  0.25677  0.75517  1.0000
  C   C1245     1.0  0.67104  0.24237  0.75616  1.0000
  C   C1246     1.0  0.67814  0.22521  0.75826  1.0000
  H   H2189     1.0  0.72110  0.23464  0.75999  1.0000
  H   H2190     1.0  0.70850  0.26477  0.75493  1.0000
  H   H2191     1.0  0.65702  0.24451  0.75548  1.0000
  H   H2192     1.0  0.66960  0.21429  0.75938  1.0000
  H   H2193     1.0  0.63510  0.01787  0.79253  1.0000
  H   H2194     1.0  0.73218  0.18609  0.95010  1.0000
  H   H2195     1.0  0.73395  0.29118  0.93205  1.0000
  C   C1247     1.0  0.72193  0.14439  0.64109  1.0000
  C   C1248     1.0  0.71673  0.14350  0.61292  1.0000
  C   C1249     1.0  0.72860  0.14637  0.59097  1.0000
  H   H2196     1.0  0.60768  0.03516  0.78398  1.0000
  H   H2197     1.0  0.70339  0.14045  0.60798  1.0000
  H   H2198     1.0  0.72431  0.14551  0.56953  1.0000
  S   S295      1.0  0.73832  0.14870  0.93304  1.0000
  H   H2199     1.0  0.65610  0.09590  0.73885  1.0000
  C   C1250     1.0  0.72507  0.14924  0.88029  1.0000
  C   C1251     1.0  0.72454  0.14466  0.85200  1.0000
  H   H2200     1.0  0.71441  0.15692  0.88921  1.0000
  H   H2201     1.0  0.71341  0.14861  0.83962  1.0000
  C   C1252     1.0  0.73930  0.14827  0.64694  1.0000
  C   C1253     1.0  0.69745  0.19037  0.67018  1.0000
  H   H2202     1.0  0.73640  0.18137  0.85641  1.0000
  C   C1254     1.0  0.56660  0.99946  0.49205  1.0000
  C   C1255     1.0  0.69635  0.22194  0.67604  1.0000
  H   H2203     1.0  0.68113  0.19765  0.63356  1.0000
  H   H2204     1.0  0.65518  0.06352  0.74805  1.0000
  H   H2205     1.0  0.66984  0.19838  0.66629  1.0000
  H   H2206     1.0  0.49698  0.03999  0.97136  1.0000
  H   H2207     1.0  0.73975  0.20723  0.89570  1.0000
  H   H2208     1.0  0.70688  0.18677  0.61400  1.0000
  H   H2209     1.0  0.68546  0.28650  0.83200  1.0000
  N   N68       1.0  0.70807  0.20651  0.66787  1.0000
  H   H2210     1.0  0.69432  0.18779  0.69244  1.0000
  C   C1256     1.0  0.61462  0.02917  0.76592  1.0000
  S   S296      1.0  0.67752  0.32292  0.71463  1.0000
  H   H2211     1.0  0.52154  0.03465  0.89451  1.0000
  H   H2212     1.0  0.68359  0.25813  0.82915  1.0000
  C   C1257     1.0  0.69245  0.31001  0.85299  1.0000
  H   H2213     1.0  0.70934  0.29109  0.89625  1.0000
  C   C1258     1.0  0.72283  0.20542  0.68879  1.0000
  H   H2214     1.0  0.72514  0.26439  0.90604  1.0000
  C   C1259     1.0  0.50618  0.01448  0.95361  1.0000
  N   N69       1.0  0.67425  0.11604  0.87942  1.0000
  C   C1260     1.0  0.67474  0.12211  0.90934  1.0000
  C   C1261     1.0  0.65977  0.10331  0.87639  1.0000
  C   C1262     1.0  0.69178  0.10766  0.87230  1.0000
  C   C1263     1.0  0.67075  0.13102  0.85960  1.0000
  C   C1264     1.0  0.65462  0.14305  0.86624  1.0000
  C   C1265     1.0  0.68773  0.13661  0.91596  1.0000
  C   C1266     1.0  0.69300  0.09846  0.84352  1.0000
  C   C1267     1.0  0.66202  0.08620  0.89345  1.0000
  C   C1268     1.0  0.64744  0.07369  0.88703  1.0000
  C   C1269     1.0  0.65315  0.15825  0.84575  1.0000
  C   C1270     1.0  0.68622  0.14259  0.94626  1.0000
  C   C1271     1.0  0.71126  0.09041  0.83884  1.0000
  H   H2215     1.0  0.67858  0.11108  0.92330  1.0000
  H   H2216     1.0  0.66149  0.12649  0.91645  1.0000
  H   H2217     1.0  0.64711  0.10948  0.88303  1.0000
  H   H2218     1.0  0.65772  0.09990  0.85414  1.0000
  H   H2219     1.0  0.69609  0.09818  0.88864  1.0000
  H   H2220     1.0  0.70201  0.11763  0.87227  1.0000
  H   H2221     1.0  0.68238  0.13928  0.85798  1.0000
  H   H2222     1.0  0.66863  0.12605  0.83807  1.0000
  H   H2223     1.0  0.65541  0.14873  0.88743  1.0000
  H   H2224     1.0  0.64241  0.13572  0.86457  1.0000
  H   H2225     1.0  0.70133  0.13160  0.91294  1.0000
  H   H2226     1.0  0.68537  0.14822  0.90260  1.0000
  H   H2227     1.0  0.69035  0.10788  0.82638  1.0000
  H   H2228     1.0  0.68364  0.08780  0.84185  1.0000
  H   H2229     1.0  0.67457  0.07922  0.88881  1.0000
  H   H2230     1.0  0.66147  0.08903  0.91611  1.0000
  H   H2231     1.0  0.64876  0.06864  0.86547  1.0000
  H   H2232     1.0  0.64834  0.06239  0.90143  1.0000
  H   H2233     1.0  0.63437  0.08022  0.88947  1.0000
  H   H2234     1.0  0.65171  0.15339  0.82409  1.0000
  H   H2235     1.0  0.64148  0.16663  0.85078  1.0000
  H   H2236     1.0  0.66490  0.16632  0.84701  1.0000
  H   H2237     1.0  0.50372  0.03662  0.74519  1.0000
  H   H2238     1.0  0.69851  0.26724  0.68423  1.0000
  C   C1272     1.0  0.73176  0.28539  0.52014  1.0000
  H   H2239     1.0  0.72125  0.10054  0.84015  1.0000
  H   H2240     1.0  0.71429  0.08014  0.85457  1.0000
  H   H2241     1.0  0.71196  0.08444  0.81775  1.0000
  H   H2242     1.0  0.61659  0.00433  0.78725  1.0000
  H   H2243     1.0  0.59175  0.04704  0.66064  1.0000
  C   C1273     1.0  0.73979  0.27845  0.54726  1.0000
  H   H2244     1.0  0.65044  0.06008  0.71190  1.0000
  H   H2245     1.0  0.69764  0.25932  0.87721  1.0000
  N   N70       1.0  0.50626  0.01976  0.92327  1.0000
  C   C1274     1.0  0.73220  0.27471  0.89494  1.0000
  C   C1275     1.0  0.73598  0.18979  0.68606  1.0000
  H   H2246     1.0  0.71465  0.31399  0.59680  1.0000
  H   H2247     1.0  0.71160  0.28041  0.80941  1.0000
  H   H2248     1.0  0.57486  0.01247  0.70648  1.0000
  C   C1276     1.0  0.74272  0.28448  0.91674  1.0000
  C   C1277     1.0  0.72919  0.19748  0.59443  1.0000
  H   H2249     1.0  0.72237  0.29732  0.82606  1.0000
  H   H2250     1.0  0.74357  0.18472  0.90174  1.0000
  H   H2251     1.0  0.60880  0.02471  0.70699  1.0000
  H   H2252     1.0  0.50069  0.01887  0.76902  1.0000
  C   C1278     1.0  0.73757  0.27352  0.82558  1.0000
  H   H2253     1.0  0.68587  0.23114  0.85827  1.0000
  H   H2254     1.0  0.53445  0.07370  0.93454  1.0000
  H   H2255     1.0  0.71415  0.24197  0.66086  1.0000
  H   H2256     1.0  0.68219  0.25282  0.69651  1.0000
  H   H2257     1.0  0.59796  0.09066  0.73862  1.0000
  H   H2258     1.0  0.60461  0.02421  0.75166  1.0000
  H   H2259     1.0  0.68990  0.21944  0.69643  1.0000
  H   H2260     1.0  0.68556  0.22383  0.66067  1.0000
  H   H2261     1.0  0.52231  0.04758  0.95544  1.0000
  C   C1279     1.0  0.74440  0.27391  0.79571  1.0000
  C   C1280     1.0  0.71495  0.20939  0.63875  1.0000
  H   H2262     1.0  0.68226  0.16528  0.63471  1.0000
  C   C1281     1.0  0.52084  0.03198  0.91733  1.0000
  H   H2263     1.0  0.67297  0.14828  0.95049  1.0000
  H   H2264     1.0  0.65250  0.09159  0.70233  1.0000
  H   H2265     1.0  0.73566  0.26675  0.78155  1.0000
  H   H2266     1.0  0.73134  0.18558  0.58147  1.0000
  H   H2267     1.0  0.57639  0.08558  0.77606  1.0000
  H   H2268     1.0  0.71791  0.25314  0.86237  1.0000
  S   S297      1.0  0.68907  0.32380  0.78023  1.0000
  C   C1282     1.0  0.67988  0.19101  0.65392  1.0000
  H   H2269     1.0  0.56468  0.07129  0.75309  1.0000
  C   C1283     1.0  0.67404  0.31821  0.85072  1.0000
  H   H2270     1.0  0.69820  0.31479  0.87270  1.0000
  H   H2271     1.0  0.73701  0.25963  0.83149  1.0000
  H   H2272     1.0  0.74518  0.07508  0.81752  1.0000
  C   C1284     1.0  0.60237  0.03713  0.70007  1.0000
  H   H2273     1.0  0.70545  0.21746  0.62625  1.0000
  C   C1285     1.0  0.73833  0.13498  0.84000  1.0000
  H   H2274     1.0  0.72175  0.20733  0.58185  1.0000
  H   H2275     1.0  0.74150  0.26828  0.88038  1.0000
  H   H2276     1.0  0.57247  0.01364  0.75807  1.0000
  H   H2277     1.0  0.73082  0.21722  0.68776  1.0000
  H   H2278     1.0  0.67197  0.08312  0.71937  1.0000
  H   H2279     1.0  0.72681  0.20899  0.94439  1.0000
  H   H2280     1.0  0.66604  0.31455  0.86893  1.0000
  H   H2281     1.0  0.71739  0.20518  0.71026  1.0000
  H   H2282     1.0  0.53842  0.99893  0.63415  1.0000
  C   C1286     1.0  0.71911  0.19291  0.62072  1.0000
  C   C1287     1.0  0.69187  0.25488  0.67978  1.0000
  H   H2283     1.0  0.68724  0.22674  0.82144  1.0000
  H   H2284     1.0  0.71842  0.28040  0.51751  1.0000
  H   H2285     1.0  0.67175  0.16560  0.66840  1.0000
  H   H2286     1.0  0.50962  0.00720  0.88308  1.0000
  H   H2287     1.0  0.51983  0.01378  0.96182  1.0000
  C   C1288     1.0  0.70532  0.23972  0.67867  1.0000
  C   C1289     1.0  0.71891  0.28714  0.87975  1.0000
  C   C1290     1.0  0.52027  0.04969  0.93280  1.0000
  C   C1291     1.0  0.57662  0.00067  0.71847  1.0000
  H   H2288     1.0  0.70467  0.25269  0.81440  1.0000
  H   H2289     1.0  0.66381  0.31934  0.59364  1.0000
  C   C1292     1.0  0.69204  0.28979  0.85199  1.0000
  C   C1293     1.0  0.71963  0.28327  0.82816  1.0000
  H   H2290     1.0  0.56624  0.09409  0.74477  1.0000
  C   C1294     1.0  0.59875  0.03522  0.66886  1.0000
  Fe  Fe149     1.0  0.71651  0.32582  0.76452  1.0000
  C   C1295     1.0  0.67315  0.17280  0.64852  1.0000
  C   C1296     1.0  0.69401  0.23272  0.83940  1.0000
  H   H2291     1.0  0.63220  0.00659  0.75959  1.0000
  H   H2292     1.0  0.71307  0.24011  0.69824  1.0000
  H   H2293     1.0  0.70679  0.22567  0.84228  1.0000
  H   H2294     1.0  0.59047  0.02383  0.66517  1.0000
  S   S298      1.0  0.73762  0.12842  0.80465  1.0000
  H   H2295     1.0  0.53364  0.02589  0.92309  1.0000
  H   H2296     1.0  0.66750  0.31393  0.83130  1.0000
  H   H2297     1.0  0.54790  0.05458  0.92693  1.0000
  C   C1297     1.0  0.57402  0.00098  0.96177  1.0000
  H   H2298     1.0  0.53363  0.06400  0.90039  1.0000
  H   H2299     1.0  0.68488  0.25625  0.65956  1.0000
  H   H2300     1.0  0.73139  0.28331  0.56457  1.0000
  N   N71       1.0  0.61726  0.05746  0.73586  1.0000
  C   C1298     1.0  0.60038  0.06285  0.75014  1.0000
  C   C1299     1.0  0.62635  0.04283  0.75202  1.0000
  C   C1300     1.0  0.62885  0.07305  0.73593  1.0000
  C   C1301     1.0  0.61445  0.05244  0.70578  1.0000
  H   H2301     1.0  0.56096  0.01211  0.49754  1.0000
  C   C1302     1.0  0.59015  0.07875  0.73761  1.0000
  C   C1303     1.0  0.64852  0.06929  0.72948  1.0000
  C   C1304     1.0  0.69664  0.25202  0.83347  1.0000
  C   C1305     1.0  0.53497  0.06115  0.92300  1.0000
  H   H2302     1.0  0.68311  0.28572  0.86891  1.0000
  C   C1306     1.0  0.57335  0.08261  0.75392  1.0000
  C   C1307     1.0  0.65778  0.08601  0.72209  1.0000
  H   H2303     1.0  0.60307  0.06594  0.77242  1.0000
  H   H2304     1.0  0.59120  0.05201  0.75076  1.0000
  H   H2305     1.0  0.63610  0.03579  0.73858  1.0000
  H   H2306     1.0  0.63386  0.04829  0.76978  1.0000
  H   H2307     1.0  0.62831  0.07974  0.75647  1.0000
  H   H2308     1.0  0.62397  0.08302  0.72070  1.0000
  H   H2309     1.0  0.60940  0.06388  0.69362  1.0000
  H   H2310     1.0  0.62707  0.04871  0.69577  1.0000
  H   H2311     1.0  0.58961  0.03907  0.71059  1.0000
  C   C1308     1.0  0.62539  0.01356  0.77694  1.0000
  H   H2312     1.0  0.52504  0.00872  0.66121  1.0000
  H   H2313     1.0  0.70021  0.31497  0.83554  1.0000
  C   C1309     1.0  0.73713  0.19950  0.95150  1.0000
  H   H2314     1.0  0.51435  0.99557  0.79850  1.0000
  H   H2315     1.0  0.61114  0.03300  0.65722  1.0000
  H   H2316     1.0  0.54822  0.00486  0.66682  1.0000
  H   H2317     1.0  0.74222  0.09387  0.59721  1.0000
  H   H2318     1.0  0.72937  0.17719  0.68697  1.0000
  H   H2319     1.0  0.68898  0.13151  0.96065  1.0000
  H   H2320     1.0  0.67829  0.31627  0.62301  1.0000
  C   C1310     1.0  0.50955  0.00365  0.90558  1.0000
  H   H2321     1.0  0.73077  0.29986  0.52050  1.0000
  C   C1311     1.0  0.73927  0.14400  0.89708  1.0000
  H   H2322     1.0  0.73927  0.26404  0.54649  1.0000
  H   H2323     1.0  0.74217  0.20253  0.59997  1.0000
  S   S299      1.0  0.74059  0.32444  0.79233  1.0000
  H   H2324     1.0  0.50780  0.05708  0.92916  1.0000
  H   H2325     1.0  0.74340  0.19065  0.66636  1.0000
  C   C1312     1.0  0.53632  0.99964  0.65703  1.0000
  H   H2326     1.0  0.73659  0.19444  0.80887  1.0000
  H   H2327     1.0  0.50137  0.00102  0.95591  1.0000
  H   H2328     1.0  0.73671  0.17100  0.80798  1.0000
  Fe  Fe150     1.0  0.70590  0.32492  0.70248  1.0000
  S   S300      1.0  0.71163  0.32184  0.65527  1.0000
  C   C1313     1.0  0.74448  0.18242  0.81383  1.0000
  H   H2329     1.0  0.74018  0.20225  0.97369  1.0000
  H   H2330     1.0  0.74365  0.14886  0.66837  1.0000
  H   H2331     1.0  0.73497  0.32304  0.55954  1.0000
  C   C1314     1.0  0.72507  0.32263  0.60185  1.0000
  H   H2332     1.0  0.52831  0.99492  0.75275  1.0000
  C   C1315     1.0  0.67262  0.32607  0.60824  1.0000
  H   H2333     1.0  0.74423  0.11326  0.57659  1.0000
  H   H2334     1.0  0.49883  0.99439  0.90812  1.0000
  H   H2335     1.0  0.74529  0.28752  0.78827  1.0000
  Fe  Fe151     1.0  0.68685  0.33679  0.24932  1.0000
  S   S301      1.0  0.71289  0.34468  0.23211  1.0000
  S   S302      1.0  0.66646  0.35977  0.25452  1.0000
  H   H2336     1.0  0.52818  0.39114  0.25416  1.0000
  H   H2337     1.0  0.50048  0.59737  0.10328  1.0000
  C   C1316     1.0  0.52812  0.44535  0.42377  1.0000
  H   H2338     1.0  0.58056  0.41255  0.26051  1.0000
  H   H2339     1.0  0.54247  0.44531  0.42754  1.0000
  Fe  Fe152     1.0  0.58414  0.46434  0.32664  1.0000
  S   S303      1.0  0.58002  0.43763  0.30935  1.0000
  S   S304      1.0  0.58476  0.48835  0.29910  1.0000
  Fe  Fe153     1.0  0.58035  0.45326  0.38786  1.0000
  S   S305      1.0  0.57604  0.42548  0.37398  1.0000
  S   S306      1.0  0.57606  0.45860  0.43510  1.0000
  Fe  Fe154     1.0  0.59831  0.42816  0.34348  1.0000
  S   S307      1.0  0.61806  0.40446  0.34061  1.0000
  Fe  Fe155     1.0  0.55836  0.43684  0.34078  1.0000
  S   S308      1.0  0.53276  0.42511  0.32706  1.0000
  S   S309      1.0  0.60380  0.45535  0.35945  1.0000
  S   S310      1.0  0.56127  0.46414  0.35597  1.0000
  Fe  Fe156     1.0  0.71083  0.64679  0.20178  1.0000
  H   H2340     1.0  0.51199  0.48615  0.40221  1.0000
  C   C1317     1.0  0.57948  0.46978  0.98861  1.0000
  Fe  Fe157     1.0  0.70343  0.64249  0.26455  1.0000
  H   H2341     1.0  0.73041  0.64039  0.40903  1.0000
  C   C1318     1.0  0.51189  0.43422  0.33602  1.0000
  Fe  Fe158     1.0  0.67535  0.63371  0.21822  1.0000
  S   S311      1.0  0.65038  0.61751  0.21277  1.0000
  S   S312      1.0  0.70287  0.62374  0.22783  1.0000
  Fe  Fe159     1.0  0.58848  0.54564  0.12327  1.0000
  S   S313      1.0  0.59641  0.51912  0.10561  1.0000
  S   S314      1.0  0.61129  0.56472  0.12971  1.0000
  Fe  Fe160     1.0  0.54967  0.53458  0.12701  1.0000
  S   S315      1.0  0.55569  0.50763  0.11057  1.0000
  S   S316      1.0  0.52285  0.54041  0.14643  1.0000
  Fe  Fe161     1.0  0.57913  0.50833  0.13898  1.0000
  S   S317      1.0  0.58769  0.48543  0.16662  1.0000
  Fe  Fe162     1.0  0.57227  0.52068  0.07840  1.0000
  S   S318      1.0  0.56987  0.51612  0.03058  1.0000
  S   S319      1.0  0.57227  0.53442  0.15742  1.0000
  S   S320      1.0  0.56517  0.54806  0.09389  1.0000
  C   C1319     1.0  0.72331  0.36833  0.37448  1.0000
  C   C1320     1.0  0.58605  0.38050  0.30684  1.0000
  H   H2342     1.0  0.54992  0.42563  0.25168  1.0000
  H   H2343     1.0  0.51113  0.54587  0.08898  1.0000
  C   C1321     1.0  0.71680  0.64543  0.12029  1.0000
  C   C1322     1.0  0.63986  0.60285  0.18917  1.0000
  C   C1323     1.0  0.62299  0.59723  0.19556  1.0000
  C   C1324     1.0  0.61400  0.58584  0.17764  1.0000
  C   C1325     1.0  0.62178  0.57961  0.15300  1.0000
  C   C1326     1.0  0.63862  0.58531  0.14655  1.0000
  C   C1327     1.0  0.64757  0.59681  0.16437  1.0000
  H   H2344     1.0  0.61673  0.60183  0.21449  1.0000
  H   H2345     1.0  0.60098  0.58199  0.18275  1.0000
  H   H2346     1.0  0.64485  0.58074  0.12757  1.0000
  H   H2347     1.0  0.66047  0.60095  0.15891  1.0000
  H   H2348     1.0  0.52922  0.40031  0.41144  1.0000
  S   S321      1.0  0.73138  0.64888  0.03885  1.0000
  C   C1328     1.0  0.57777  0.48231  0.01023  1.0000
  C   C1329     1.0  0.57248  0.49956  0.00422  1.0000
  H   H2349     1.0  0.62063  0.64360  0.21878  1.0000
  C   C1330     1.0  0.49988  0.45935  0.43461  1.0000
  C   C1331     1.0  0.53404  0.41376  0.40990  1.0000
  H   H2350     1.0  0.58054  0.47864  0.03158  1.0000
  H   H2351     1.0  0.52223  0.42180  0.44839  1.0000
  H   H2352     1.0  0.59229  0.49315  0.43569  1.0000
  C   C1332     1.0  0.58478  0.48680  0.26234  1.0000
  C   C1333     1.0  0.57838  0.50106  0.24663  1.0000
  C   C1334     1.0  0.57868  0.50055  0.21734  1.0000
  C   C1335     1.0  0.58593  0.48603  0.20342  1.0000
  C   C1336     1.0  0.59218  0.47169  0.21915  1.0000
  C   C1337     1.0  0.59149  0.47200  0.24849  1.0000
  H   H2353     1.0  0.57303  0.51250  0.25718  1.0000
  H   H2354     1.0  0.57323  0.51137  0.20552  1.0000
  H   H2355     1.0  0.59773  0.46035  0.20857  1.0000
  H   H2356     1.0  0.59655  0.46098  0.26037  1.0000
  H   H2357     1.0  0.60022  0.40990  0.28052  1.0000
  H   H2358     1.0  0.66807  0.41664  0.30223  1.0000
  C   C1338     1.0  0.54661  0.37356  0.27595  1.0000
  H   H2359     1.0  0.58362  0.45655  0.99372  1.0000
  H   H2360     1.0  0.52143  0.45830  0.35187  1.0000
  C   C1339     1.0  0.65289  0.37181  0.27879  1.0000
  C   C1340     1.0  0.64643  0.38861  0.27148  1.0000
  C   C1341     1.0  0.63597  0.39882  0.29003  1.0000
  C   C1342     1.0  0.63154  0.39234  0.31623  1.0000
  C   C1343     1.0  0.63798  0.37552  0.32355  1.0000
  C   C1344     1.0  0.64846  0.36532  0.30501  1.0000
  H   H2361     1.0  0.64978  0.39391  0.25139  1.0000
  H   H2362     1.0  0.63161  0.41185  0.28419  1.0000
  H   H2363     1.0  0.63469  0.37026  0.34368  1.0000
  H   H2364     1.0  0.65299  0.35237  0.31090  1.0000
  C   C1345     1.0  0.68833  0.63167  0.99383  1.0000
  C   C1346     1.0  0.50481  0.47700  0.25608  1.0000
  H   H2365     1.0  0.63606  0.63103  0.12911  1.0000
  H   H2366     1.0  0.53100  0.51347  0.33223  1.0000
  H   H2367     1.0  0.54476  0.43043  0.21551  1.0000
  H   H2368     1.0  0.57661  0.56522  0.20045  1.0000
  H   H2369     1.0  0.56679  0.43221  0.22798  1.0000
  H   H2370     1.0  0.61818  0.63256  0.26703  1.0000
  C   C1347     1.0  0.71659  0.64599  0.09088  1.0000
  C   C1348     1.0  0.53255  0.47984  0.28284  1.0000
  H   H2371     1.0  0.72281  0.61211  0.06114  1.0000
  C   C1349     1.0  0.72584  0.64031  0.33764  1.0000
  H   H2372     1.0  0.54051  0.48140  0.01472  1.0000
  H   H2373     1.0  0.64035  0.65375  0.22780  1.0000
  H   H2374     1.0  0.54534  0.48854  0.23424  1.0000
  H   H2375     1.0  0.67386  0.43365  0.32609  1.0000
  H   H2376     1.0  0.58516  0.38749  0.36375  1.0000
  C   C1350     1.0  0.52938  0.38415  0.27436  1.0000
  N   N72       1.0  0.51898  0.45867  0.44240  1.0000
  H   H2377     1.0  0.57588  0.36733  0.37443  1.0000
  H   H2378     1.0  0.67052  0.35915  0.35607  1.0000
  H   H2379     1.0  0.54704  0.47948  0.28130  1.0000
  H   H2380     1.0  0.73467  0.36916  0.36035  1.0000
  H   H2381     1.0  0.73406  0.38643  0.40468  1.0000
  H   H2382     1.0  0.53602  0.45325  0.98948  1.0000
  H   H2383     1.0  0.56126  0.39000  0.24981  1.0000
  H   H2384     1.0  0.69759  0.38063  0.38091  1.0000
  C   C1351     1.0  0.62730  0.64840  0.16233  1.0000
  H   H2385     1.0  0.61469  0.65110  0.15144  1.0000
  H   H2386     1.0  0.50870  0.42515  0.41794  1.0000
  C   C1352     1.0  0.58393  0.37353  0.35827  1.0000
  H   H2387     1.0  0.53028  0.51072  0.18885  1.0000
  H   H2388     1.0  0.66044  0.41630  0.33790  1.0000
  H   H2389     1.0  0.56212  0.37812  0.33105  1.0000
  H   H2390     1.0  0.66673  0.64473  0.01587  1.0000
  C   C1353     1.0  0.52161  0.45277  0.47231  1.0000
  H   H2391     1.0  0.60927  0.35343  0.26039  1.0000
  H   H2392     1.0  0.71321  0.39418  0.36606  1.0000
  H   H2393     1.0  0.59658  0.51464  0.47382  1.0000
  H   H2394     1.0  0.52606  0.50143  0.23820  1.0000
  S   S322      1.0  0.68342  0.65616  0.19098  1.0000
  C   C1354     1.0  0.73416  0.64097  0.38736  1.0000
  H   H2395     1.0  0.61789  0.64781  0.29571  1.0000
  H   H2396     1.0  0.69340  0.61801  0.99187  1.0000
  C   C1355     1.0  0.52740  0.49807  0.29484  1.0000
  C   C1356     1.0  0.73100  0.60260  0.04903  1.0000
  C   C1357     1.0  0.52472  0.46246  0.99289  1.0000
  H   H2397     1.0  0.64282  0.65321  0.12518  1.0000
  C   C1358     1.0  0.52211  0.42629  0.42645  1.0000
  C   C1359     1.0  0.49682  0.42480  0.33046  1.0000
  C   C1360     1.0  0.60404  0.41415  0.23685  1.0000
  H   H2398     1.0  0.54913  0.49879  0.32423  1.0000
  H   H2399     1.0  0.61747  0.40826  0.23592  1.0000
  C   C1361     1.0  0.67953  0.33259  0.35144  1.0000
  H   H2400     1.0  0.52658  0.44801  0.26564  1.0000
  C   C1362     1.0  0.58996  0.50273  0.47818  1.0000
  C   C1363     1.0  0.57529  0.37168  0.32972  1.0000
  H   H2401     1.0  0.52963  0.46976  0.29870  1.0000
  H   H2402     1.0  0.70503  0.64266  0.13161  1.0000
  H   H2403     1.0  0.63784  0.64344  0.27681  1.0000
  S   S323      1.0  0.73383  0.64599  0.17167  1.0000
  H   H2404     1.0  0.53286  0.50848  0.28177  1.0000
  H   H2405     1.0  0.52210  0.48611  0.45206  1.0000
  H   H2406     1.0  0.62555  0.63720  0.17634  1.0000
  H   H2407     1.0  0.51299  0.45507  0.99790  1.0000
  C   C1364     1.0  0.73188  0.64918  0.07583  1.0000
  H   H2408     1.0  0.67060  0.32804  0.36788  1.0000
  H   H2409     1.0  0.52852  0.39378  0.29164  1.0000
  C   C1365     1.0  0.72944  0.37288  0.40386  1.0000
  H   H2410     1.0  0.67321  0.33064  0.33086  1.0000
  N   N73       1.0  0.52448  0.47541  0.25510  1.0000
  H   H2411     1.0  0.65338  0.63890  0.15062  1.0000
  H   H2412     1.0  0.66196  0.62326  0.00259  1.0000
  H   H2413     1.0  0.55760  0.45622  0.25961  1.0000
  H   H2414     1.0  0.53417  0.41751  0.38758  1.0000
  C   C1366     1.0  0.53496  0.50121  0.40679  1.0000
  H   H2415     1.0  0.56026  0.39725  0.28493  1.0000
  C   C1367     1.0  0.50238  0.53821  0.12955  1.0000
  H   H2416     1.0  0.51306  0.50022  0.29597  1.0000
  C   C1368     1.0  0.59906  0.34831  0.27418  1.0000
  H   H2417     1.0  0.52899  0.51071  0.42175  1.0000
  H   H2418     1.0  0.67573  0.62555  0.03283  1.0000
  H   H2419     1.0  0.60353  0.34928  0.29611  1.0000
  H   H2420     1.0  0.52842  0.49489  0.16140  1.0000
  C   C1369     1.0  0.57708  0.55967  0.22181  1.0000
  N   N74       1.0  0.62248  0.53461  0.21764  1.0000
  C   C1370     1.0  0.62726  0.52029  0.19710  1.0000
  C   C1371     1.0  0.62150  0.52726  0.24688  1.0000
  C   C1372     1.0  0.60455  0.54180  0.20977  1.0000
  C   C1373     1.0  0.63484  0.54947  0.21640  1.0000
  C   C1374     1.0  0.65435  0.54492  0.22167  1.0000
  C   C1375     1.0  0.62811  0.52569  0.16604  1.0000
  C   C1376     1.0  0.59590  0.55510  0.23044  1.0000
  C   C1377     1.0  0.63407  0.51165  0.25433  1.0000
  C   C1378     1.0  0.63345  0.50754  0.28545  1.0000
  C   C1379     1.0  0.66545  0.56075  0.21621  1.0000
  C   C1380     1.0  0.63443  0.51035  0.14791  1.0000
  H   H2421     1.0  0.61768  0.50969  0.19859  1.0000
  H   H2422     1.0  0.64010  0.51402  0.20216  1.0000
  H   H2423     1.0  0.62335  0.53775  0.26260  1.0000
  H   H2424     1.0  0.60825  0.52225  0.25089  1.0000
  H   H2425     1.0  0.59552  0.53093  0.20710  1.0000
  H   H2426     1.0  0.60485  0.54854  0.18927  1.0000
  H   H2427     1.0  0.63368  0.55623  0.19598  1.0000
  H   H2428     1.0  0.63113  0.55964  0.23203  1.0000
  H   H2429     1.0  0.65923  0.53426  0.20786  1.0000
  H   H2430     1.0  0.65639  0.54113  0.24376  1.0000
  H   H2431     1.0  0.61501  0.52986  0.15828  1.0000
  H   H2432     1.0  0.63722  0.53643  0.16287  1.0000
  H   H2433     1.0  0.60312  0.56739  0.23083  1.0000
  H   H2434     1.0  0.59547  0.54993  0.25196  1.0000
  H   H2435     1.0  0.63004  0.49978  0.24297  1.0000
  H   H2436     1.0  0.64776  0.51412  0.24879  1.0000
  H   H2437     1.0  0.63803  0.51872  0.29792  1.0000
  H   H2438     1.0  0.61995  0.50458  0.29182  1.0000
  H   H2439     1.0  0.64205  0.49595  0.29003  1.0000
  H   H2440     1.0  0.67937  0.55744  0.22091  1.0000
  H   H2441     1.0  0.66440  0.56476  0.19401  1.0000
  H   H2442     1.0  0.66118  0.57194  0.22959  1.0000
  H   H2443     1.0  0.62529  0.49945  0.14942  1.0000
  H   H2444     1.0  0.63497  0.51456  0.12581  1.0000
  H   H2445     1.0  0.64771  0.50569  0.15434  1.0000
  H   H2446     1.0  0.51772  0.48214  0.02425  1.0000
  H   H2447     1.0  0.59736  0.41198  0.21663  1.0000
  H   H2448     1.0  0.70271  0.36894  0.27821  1.0000
  C   C1381     1.0  0.58754  0.49051  0.45640  1.0000
  H   H2449     1.0  0.57736  0.35646  0.24755  1.0000
  H   H2450     1.0  0.60500  0.42842  0.24013  1.0000
  H   H2451     1.0  0.72646  0.58924  0.05295  1.0000
  H   H2452     1.0  0.71921  0.35465  0.37487  1.0000
  C   C1382     1.0  0.53349  0.49700  0.18282  1.0000
  H   H2453     1.0  0.49949  0.59846  0.14079  1.0000
  H   H2454     1.0  0.51826  0.37532  0.27631  1.0000
  N   N75       1.0  0.70082  0.37737  0.33632  1.0000
  C   C1383     1.0  0.71480  0.38075  0.31510  1.0000
  C   C1384     1.0  0.52970  0.45680  0.24802  1.0000
  C   C1385     1.0  0.69547  0.35871  0.33317  1.0000
  C   C1386     1.0  0.68491  0.38916  0.33185  1.0000
  C   C1387     1.0  0.68806  0.40902  0.33265  1.0000
  C   C1388     1.0  0.70877  0.38131  0.28423  1.0000
  C   C1389     1.0  0.68323  0.35182  0.35612  1.0000
  H   H2455     1.0  0.74042  0.36388  0.41008  1.0000
  H   H2456     1.0  0.57400  0.35756  0.32579  1.0000
  C   C1390     1.0  0.67157  0.41948  0.32421  1.0000
  H   H2457     1.0  0.72538  0.37045  0.31635  1.0000
  H   H2458     1.0  0.53220  0.47517  0.39245  1.0000
  C   C1391     1.0  0.72422  0.38403  0.26483  1.0000
  H   H2459     1.0  0.72135  0.39316  0.31972  1.0000
  H   H2460     1.0  0.71870  0.37142  0.41908  1.0000
  C   C1392     1.0  0.59376  0.40631  0.26072  1.0000
  H   H2461     1.0  0.70717  0.34975  0.33195  1.0000
  H   H2462     1.0  0.68855  0.35693  0.31297  1.0000
  H   H2463     1.0  0.67844  0.38603  0.31179  1.0000
  H   H2464     1.0  0.67490  0.38681  0.34801  1.0000
  H   H2465     1.0  0.69863  0.41265  0.31829  1.0000
  H   H2466     1.0  0.69161  0.41313  0.35406  1.0000
  C   C1393     1.0  0.70810  0.38080  0.36496  1.0000
  H   H2467     1.0  0.69913  0.39216  0.28043  1.0000
  C   C1394     1.0  0.53088  0.48792  0.23348  1.0000
  H   H2468     1.0  0.54639  0.36352  0.25923  1.0000
  C   C1395     1.0  0.53465  0.50026  0.32426  1.0000
  C   C1396     1.0  0.64075  0.64263  0.14045  1.0000
  H   H2469     1.0  0.62010  0.47324  0.98194  1.0000
  C   C1397     1.0  0.59324  0.38618  0.25819  1.0000
  H   H2470     1.0  0.52922  0.47092  0.19620  1.0000
  C   C1398     1.0  0.51002  0.45076  0.34809  1.0000
  C   C1399     1.0  0.55283  0.43415  0.23370  1.0000
  C   C1400     1.0  0.72136  0.63971  0.36611  1.0000
  C   C1401     1.0  0.58120  0.35817  0.26979  1.0000
  H   H2471     1.0  0.50029  0.49094  0.25671  1.0000
  H   H2472     1.0  0.53435  0.44539  0.47458  1.0000
  H   H2473     1.0  0.54706  0.36679  0.29627  1.0000
  H   H2474     1.0  0.59715  0.36710  0.35836  1.0000
  H   H2475     1.0  0.54789  0.49491  0.18240  1.0000
  C   C1402     1.0  0.52587  0.48380  0.40816  1.0000
  N   N76       1.0  0.58053  0.37735  0.27714  1.0000
  H   H2476     1.0  0.55361  0.46116  0.22346  1.0000
  C   C1403     1.0  0.57926  0.47485  0.46158  1.0000
  H   H2477     1.0  0.57131  0.56948  0.23642  1.0000
  S   S324      1.0  0.70893  0.63863  0.31179  1.0000
  H   H2478     1.0  0.54910  0.49933  0.41167  1.0000
  C   C1404     1.0  0.52898  0.47337  0.01858  1.0000
  H   H2479     1.0  0.70458  0.64371  0.07975  1.0000
  H   H2480     1.0  0.57154  0.35092  0.28190  1.0000
  C   C1405     1.0  0.56246  0.38536  0.27177  1.0000
  C   C1406     1.0  0.52524  0.48428  0.20297  1.0000
  H   H2481     1.0  0.60687  0.38143  0.26229  1.0000
  C   C1407     1.0  0.52746  0.47592  0.43780  1.0000
  H   H2482     1.0  0.53201  0.46466  0.03653  1.0000
  C   C1408     1.0  0.54931  0.45326  0.24134  1.0000
  H   H2483     1.0  0.60001  0.37660  0.30976  1.0000
  S   S325      1.0  0.67540  0.65080  0.25657  1.0000
  H   H2484     1.0  0.54162  0.47463  0.44308  1.0000
  H   H2485     1.0  0.72928  0.60560  0.02654  1.0000
  H   H2486     1.0  0.59043  0.38287  0.23601  1.0000
  C   C1409     1.0  0.59773  0.32894  0.26734  1.0000
  H   H2487     1.0  0.58531  0.39468  0.31173  1.0000
  H   H2488     1.0  0.68908  0.35291  0.37717  1.0000
  C   C1410     1.0  0.73233  0.64807  0.13489  1.0000
  H   H2489     1.0  0.52630  0.44870  0.40146  1.0000
  H   H2490     1.0  0.52189  0.45205  0.23012  1.0000
  H   H2491     1.0  0.56906  0.54788  0.22235  1.0000
  H   H2492     1.0  0.51086  0.48590  0.20072  1.0000
  H   H2493     1.0  0.49834  0.46100  0.41173  1.0000
  C   C1411     1.0  0.62343  0.64501  0.27476  1.0000
  C   C1412     1.0  0.67214  0.63130  0.01229  1.0000
  H   H2494     1.0  0.59867  0.65768  0.19197  1.0000
  H   H2495     1.0  0.69805  0.63952  0.00490  1.0000
  H   H2496     1.0  0.53368  0.50673  0.38552  1.0000
  C   C1413     1.0  0.50001  0.54238  0.10140  1.0000
  H   H2497     1.0  0.54758  0.41382  0.41826  1.0000
  H   H2498     1.0  0.52920  0.49043  0.33848  1.0000
  H   H2499     1.0  0.49953  0.45330  0.28032  1.0000
  H   H2500     1.0  0.71955  0.38449  0.24289  1.0000
  H   H2501     1.0  0.49948  0.57759  0.12323  1.0000
  H   H2502     1.0  0.73401  0.37308  0.26684  1.0000
  H   H2503     1.0  0.70786  0.63816  0.37182  1.0000
  H   H2504     1.0  0.72049  0.62049  0.97967  1.0000
  C   C1414     1.0  0.49596  0.46742  0.28043  1.0000
  H   H2505     1.0  0.73052  0.39651  0.26966  1.0000
  C   C1415     1.0  0.74343  0.64225  0.33080  1.0000
  C   C1416     1.0  0.62601  0.65623  0.22532  1.0000
  H   H2506     1.0  0.49809  0.41204  0.32094  1.0000
  C   C1417     1.0  0.61856  0.65996  0.25489  1.0000
  H   H2507     1.0  0.49980  0.47294  0.30080  1.0000
  H   H2508     1.0  0.49911  0.47178  0.23653  1.0000
  H   H2509     1.0  0.67755  0.66074  0.32866  1.0000
  H   H2510     1.0  0.51143  0.44345  0.47823  1.0000
  Fe  Fe163     1.0  0.68194  0.34366  0.74719  1.0000
  S   S326      1.0  0.70992  0.34687  0.73305  1.0000
  S   S327      1.0  0.66377  0.36837  0.75006  1.0000
  H   H2511     1.0  0.53736  0.40718  0.94325  1.0000
  H   H2512     1.0  0.60067  0.54687  0.70747  1.0000
  C   C1418     1.0  0.66774  0.39355  0.94155  1.0000
  C   C1419     1.0  0.62445  0.37080  0.70346  1.0000
  H   H2513     1.0  0.64935  0.50855  0.67538  1.0000
  Fe  Fe164     1.0  0.57035  0.46229  0.82486  1.0000
  S   S328      1.0  0.56447  0.43494  0.81157  1.0000
  S   S329      1.0  0.56690  0.48549  0.79587  1.0000
  Fe  Fe165     1.0  0.57481  0.45326  0.88689  1.0000
  S   S330      1.0  0.56968  0.42521  0.87691  1.0000
  S   S331      1.0  0.57905  0.45774  0.93413  1.0000
  Fe  Fe166     1.0  0.58729  0.42710  0.83945  1.0000
  S   S332      1.0  0.60707  0.40371  0.83426  1.0000
  Fe  Fe167     1.0  0.54752  0.43523  0.84995  1.0000
  S   S333      1.0  0.52095  0.42305  0.85501  1.0000
  S   S334      1.0  0.59402  0.45474  0.85113  1.0000
  S   S335      1.0  0.55187  0.46296  0.86140  1.0000
  Fe  Fe168     1.0  0.71461  0.64458  0.70148  1.0000
  H   H2514     1.0  0.51866  0.45294  0.77285  1.0000
  H   H2515     1.0  0.54077  0.45471  0.93417  1.0000
  Fe  Fe169     1.0  0.70113  0.64414  0.76216  1.0000
  C   C1420     1.0  0.51571  0.53124  0.70938  1.0000
  N   N77       1.0  0.69895  0.64322  0.94606  1.0000
  Fe  Fe170     1.0  0.68025  0.62643  0.71336  1.0000
  S   S336      1.0  0.66702  0.60155  0.69626  1.0000
  S   S337      1.0  0.70788  0.62286  0.73072  1.0000
  Fe  Fe171     1.0  0.58445  0.54590  0.62752  1.0000
  S   S338      1.0  0.60058  0.52253  0.61338  1.0000
  S   S339      1.0  0.59596  0.57167  0.64399  1.0000
  Fe  Fe172     1.0  0.54957  0.52618  0.61906  1.0000
  S   S340      1.0  0.56432  0.50185  0.60481  1.0000
  S   S341      1.0  0.52078  0.51900  0.62209  1.0000
  Fe  Fe173     1.0  0.58251  0.50726  0.64031  1.0000
  S   S342      1.0  0.59214  0.48606  0.67008  1.0000
  Fe  Fe174     1.0  0.58062  0.51922  0.57881  1.0000
  S   S343      1.0  0.58801  0.51555  0.53231  1.0000
  S   S344      1.0  0.56719  0.53056  0.65594  1.0000
  S   S345      1.0  0.56520  0.54366  0.59140  1.0000
  H   H2516     1.0  0.67098  0.37958  0.93727  1.0000
  H   H2517     1.0  0.50585  0.50619  0.56904  1.0000
  H   H2518     1.0  0.52515  0.49250  0.86816  1.0000
  H   H2519     1.0  0.51042  0.55594  0.63137  1.0000
  H   H2520     1.0  0.49703  0.44874  0.96231  1.0000
  C   C1421     1.0  0.64707  0.59365  0.68170  1.0000
  C   C1422     1.0  0.64712  0.57685  0.66961  1.0000
  C   C1423     1.0  0.63176  0.56993  0.65805  1.0000
  C   C1424     1.0  0.61589  0.57955  0.65871  1.0000
  C   C1425     1.0  0.61586  0.59634  0.67072  1.0000
  C   C1426     1.0  0.63124  0.60332  0.68215  1.0000
  H   H2521     1.0  0.65920  0.56916  0.66908  1.0000
  H   H2522     1.0  0.63226  0.55717  0.64851  1.0000
  H   H2523     1.0  0.60379  0.60406  0.67131  1.0000
  H   H2524     1.0  0.63081  0.61619  0.69142  1.0000
  C   C1427     1.0  0.57606  0.47419  0.96055  1.0000
  H   H2525     1.0  0.50395  0.48815  0.65887  1.0000
  C   C1428     1.0  0.57551  0.48411  0.51058  1.0000
  C   C1429     1.0  0.58406  0.49966  0.50552  1.0000
  H   H2526     1.0  0.67824  0.40145  0.93261  1.0000
  H   H2527     1.0  0.65304  0.35213  0.68880  1.0000
  C   C1430     1.0  0.51297  0.47972  0.91888  1.0000
  H   H2528     1.0  0.57092  0.48141  0.53137  1.0000
  S   S346      1.0  0.67297  0.64636  0.74676  1.0000
  C   C1431     1.0  0.66233  0.34032  0.62407  1.0000
  C   C1432     1.0  0.57264  0.48413  0.76035  1.0000
  C   C1433     1.0  0.58416  0.47113  0.75018  1.0000
  C   C1434     1.0  0.58980  0.47163  0.72228  1.0000
  C   C1435     1.0  0.58370  0.48491  0.70427  1.0000
  C   C1436     1.0  0.57154  0.49738  0.71419  1.0000
  C   C1437     1.0  0.56624  0.49715  0.74218  1.0000
  H   H2529     1.0  0.58918  0.46102  0.76402  1.0000
  H   H2530     1.0  0.59913  0.46184  0.71476  1.0000
  H   H2531     1.0  0.56649  0.50747  0.70054  1.0000
  H   H2532     1.0  0.55737  0.50728  0.74994  1.0000
  H   H2533     1.0  0.67548  0.62924  0.95451  1.0000
  H   H2534     1.0  0.53530  0.47915  0.96281  1.0000
  H   H2535     1.0  0.66946  0.61036  0.52254  1.0000
  H   H2536     1.0  0.56828  0.49519  0.93314  1.0000
  H   H2537     1.0  0.50906  0.45863  0.84035  1.0000
  C   C1438     1.0  0.64800  0.37786  0.77389  1.0000
  C   C1439     1.0  0.63933  0.39378  0.76685  1.0000
  C   C1440     1.0  0.62672  0.40179  0.78472  1.0000
  C   C1441     1.0  0.62256  0.39405  0.81017  1.0000
  C   C1442     1.0  0.63132  0.37820  0.81730  1.0000
  C   C1443     1.0  0.64386  0.37014  0.79936  1.0000
  H   H2538     1.0  0.64238  0.40002  0.74738  1.0000
  H   H2539     1.0  0.62026  0.41398  0.77883  1.0000
  H   H2540     1.0  0.62832  0.37203  0.83687  1.0000
  H   H2541     1.0  0.65031  0.35795  0.80526  1.0000
  H   H2542     1.0  0.72401  0.58691  0.66248  1.0000
  C   C1444     1.0  0.62509  0.56108  0.73545  1.0000
  H   H2543     1.0  0.53421  0.47464  0.49304  1.0000
  C   C1445     1.0  0.57075  0.49141  0.95451  1.0000
  H   H2544     1.0  0.61169  0.44498  0.96401  1.0000
  H   H2545     1.0  0.54512  0.47200  0.70086  1.0000
  C   C1446     1.0  0.53369  0.47013  0.68702  1.0000
  C   C1447     1.0  0.52209  0.47416  0.96689  1.0000
  H   H2546     1.0  0.61722  0.38200  0.71324  1.0000
  H   H2547     1.0  0.71708  0.35014  0.87927  1.0000
  H   H2548     1.0  0.64995  0.37753  0.62518  1.0000
  C   C1448     1.0  0.72305  0.64340  0.83596  1.0000
  C   C1449     1.0  0.66399  0.39931  0.64226  1.0000
  N   N78       1.0  0.61427  0.52906  0.73608  1.0000
  H   H2549     1.0  0.53960  0.50818  0.88268  1.0000
  H   H2550     1.0  0.63786  0.58583  0.73886  1.0000
  H   H2551     1.0  0.56470  0.45888  0.66252  1.0000
  H   H2552     1.0  0.52359  0.43258  0.96517  1.0000
  H   H2553     1.0  0.51028  0.50250  0.53246  1.0000
  C   C1450     1.0  0.72239  0.64106  0.62393  1.0000
  C   C1451     1.0  0.72201  0.64051  0.59461  1.0000
  H   H2554     1.0  0.71132  0.63685  0.63573  1.0000
  H   H2555     1.0  0.52637  0.53161  0.72510  1.0000
  C   C1452     1.0  0.73656  0.64525  0.57899  1.0000
  H   H2556     1.0  0.72248  0.38771  0.67889  1.0000
  H   H2557     1.0  0.73726  0.58021  0.52393  1.0000
  H   H2558     1.0  0.65256  0.62721  0.63413  1.0000
  H   H2559     1.0  0.51639  0.51066  0.88842  1.0000
  C   C1453     1.0  0.64168  0.61053  0.53256  1.0000
  C   C1454     1.0  0.65664  0.61205  0.51181  1.0000
  H   H2560     1.0  0.65569  0.60210  0.49507  1.0000
  C   C1455     1.0  0.69162  0.65154  0.91974  1.0000
  H   H2561     1.0  0.55901  0.46387  0.62696  1.0000
  C   C1456     1.0  0.52033  0.46715  0.77581  1.0000
  C   C1457     1.0  0.72747  0.34231  0.86979  1.0000
  H   H2562     1.0  0.50510  0.54064  0.71570  1.0000
  H   H2563     1.0  0.64067  0.35623  0.65791  1.0000
  C   C1458     1.0  0.65008  0.36215  0.67246  1.0000
  H   H2564     1.0  0.52078  0.53542  0.68884  1.0000
  H   H2565     1.0  0.50108  0.48086  0.73322  1.0000
  H   H2566     1.0  0.54717  0.48682  0.65742  1.0000
  C   C1459     1.0  0.62428  0.44997  0.95665  1.0000
  H   H2567     1.0  0.74528  0.59403  0.67267  1.0000
  H   H2568     1.0  0.66733  0.39548  0.96449  1.0000
  H   H2569     1.0  0.72012  0.59257  0.95286  1.0000
  H   H2570     1.0  0.54123  0.48149  0.91110  1.0000
  H   H2571     1.0  0.70883  0.38279  0.70819  1.0000
  H   H2572     1.0  0.67511  0.38517  0.68871  1.0000
  C   C1460     1.0  0.73576  0.65073  0.88172  1.0000
  H   H2573     1.0  0.58655  0.38131  0.91905  1.0000
  H   H2574     1.0  0.56488  0.51718  0.97110  1.0000
  H   H2575     1.0  0.61271  0.50544  0.81420  1.0000
  H   H2576     1.0  0.52587  0.44992  0.90733  1.0000
  H   H2577     1.0  0.62668  0.56046  0.71266  1.0000
  C   C1461     1.0  0.52433  0.43272  0.94221  1.0000
  C   C1462     1.0  0.52294  0.49964  0.69797  1.0000
  S   S347      1.0  0.70706  0.64839  0.80932  1.0000
  H   H2578     1.0  0.64167  0.52266  0.64766  1.0000
  N   N79       1.0  0.66668  0.36661  0.65752  1.0000
  C   C1463     1.0  0.52214  0.46712  0.49519  1.0000
  H   H2579     1.0  0.64782  0.38512  0.70038  1.0000
  C   C1464     1.0  0.67424  0.34996  0.64487  1.0000
  C   C1465     1.0  0.66304  0.37968  0.63450  1.0000
  C   C1466     1.0  0.67968  0.37282  0.67872  1.0000
  C   C1467     1.0  0.69852  0.37510  0.66771  1.0000
  H   H2580     1.0  0.73502  0.60147  0.92775  1.0000
  C   C1468     1.0  0.58417  0.54471  0.74377  1.0000
  C   C1469     1.0  0.62408  0.51843  0.71431  1.0000
  C   C1470     1.0  0.56891  0.50392  0.97615  1.0000
  C   C1471     1.0  0.70877  0.38736  0.68624  1.0000
  C   C1472     1.0  0.72690  0.33875  0.84100  1.0000
  C   C1473     1.0  0.64092  0.62528  0.62073  1.0000
  C   C1474     1.0  0.68378  0.63906  0.96460  1.0000
  C   C1475     1.0  0.72676  0.32873  0.62946  1.0000
  C   C1476     1.0  0.50608  0.51240  0.54818  1.0000
  C   C1477     1.0  0.72418  0.65455  0.85928  1.0000
  H   H2581     1.0  0.68651  0.35253  0.63347  1.0000
  H   H2582     1.0  0.67242  0.37758  0.61700  1.0000
  C   C1478     1.0  0.57321  0.47184  0.48885  1.0000
  H   H2583     1.0  0.64298  0.41854  0.95759  1.0000
  H   H2584     1.0  0.70290  0.40077  0.68540  1.0000
  H   H2585     1.0  0.70564  0.36222  0.66747  1.0000
  H   H2586     1.0  0.69852  0.38027  0.64615  1.0000
  H   H2587     1.0  0.71048  0.63610  0.58400  1.0000
  H   H2588     1.0  0.51587  0.52277  0.54874  1.0000
  H   H2589     1.0  0.61616  0.50716  0.70773  1.0000
  H   H2590     1.0  0.56082  0.56152  0.74403  1.0000
  H   H2591     1.0  0.59553  0.38829  0.95187  1.0000
  H   H2592     1.0  0.62938  0.36206  0.72038  1.0000
  H   H2593     1.0  0.67498  0.65077  0.96728  1.0000
  H   H2594     1.0  0.63644  0.51273  0.72305  1.0000
  H   H2595     1.0  0.63387  0.38616  0.66998  1.0000
  H   H2596     1.0  0.60728  0.48707  0.79257  1.0000
  H   H2597     1.0  0.67478  0.33264  0.85023  1.0000
  S   S348      1.0  0.68786  0.64715  0.68292  1.0000
  H   H2598     1.0  0.64166  0.58263  0.52934  1.0000
  N   N80       1.0  0.62799  0.58915  0.56757  1.0000
  C   C1479     1.0  0.64219  0.59230  0.54660  1.0000
  C   C1480     1.0  0.63257  0.57257  0.58312  1.0000
  C   C1481     1.0  0.61092  0.58775  0.55208  1.0000
  C   C1482     1.0  0.62631  0.60387  0.58838  1.0000
  H   H2599     1.0  0.67115  0.63277  0.90974  1.0000
  C   C1483     1.0  0.59487  0.58312  0.56991  1.0000
  C   C1484     1.0  0.63226  0.55547  0.56582  1.0000
  C   C1485     1.0  0.64001  0.54012  0.58249  1.0000
  H   H2600     1.0  0.50325  0.50952  0.72787  1.0000
  C   C1486     1.0  0.57864  0.58148  0.55160  1.0000
  H   H2601     1.0  0.65535  0.59007  0.55611  1.0000
  H   H2602     1.0  0.64582  0.57330  0.59255  1.0000
  H   H2603     1.0  0.62365  0.57100  0.60106  1.0000
  H   H2604     1.0  0.61219  0.57800  0.53492  1.0000
  H   H2605     1.0  0.60738  0.60031  0.54169  1.0000
  H   H2606     1.0  0.62086  0.61591  0.57823  1.0000
  H   H2607     1.0  0.61665  0.60076  0.60478  1.0000
  C   C1487     1.0  0.68201  0.63931  0.89931  1.0000
  H   H2608     1.0  0.71755  0.65062  0.97813  1.0000
  H   H2609     1.0  0.57729  0.53415  0.75454  1.0000
  H   H2610     1.0  0.59188  0.59342  0.58560  1.0000
  H   H2611     1.0  0.59701  0.57056  0.58094  1.0000
  H   H2612     1.0  0.61864  0.55235  0.56014  1.0000
  H   H2613     1.0  0.63991  0.55637  0.54638  1.0000
  H   H2614     1.0  0.63349  0.53918  0.60300  1.0000
  H   H2615     1.0  0.63814  0.52778  0.57086  1.0000
  H   H2616     1.0  0.65422  0.54169  0.58593  1.0000
  H   H2617     1.0  0.52925  0.48933  0.75348  1.0000
  H   H2618     1.0  0.53923  0.46859  0.74367  1.0000
  H   H2619     1.0  0.65638  0.34943  0.60855  1.0000
  H   H2620     1.0  0.57599  0.59362  0.53954  1.0000
  H   H2621     1.0  0.58033  0.57028  0.53703  1.0000
  H   H2622     1.0  0.56712  0.57922  0.56494  1.0000
  C   C1488     1.0  0.54042  0.47423  0.65730  1.0000
  H   H2623     1.0  0.64038  0.38992  0.93753  1.0000
  C   C1489     1.0  0.49773  0.45091  0.84386  1.0000
  H   H2624     1.0  0.62928  0.61287  0.52100  1.0000
  N   N81       1.0  0.62906  0.42541  0.91965  1.0000
  C   C1490     1.0  0.63045  0.42330  0.88844  1.0000
  C   C1491     1.0  0.61251  0.41742  0.93016  1.0000
  C   C1492     1.0  0.62781  0.44475  0.92580  1.0000
  C   C1493     1.0  0.64492  0.41787  0.93466  1.0000
  C   C1494     1.0  0.65010  0.39859  0.92836  1.0000
  C   C1495     1.0  0.64638  0.43163  0.87444  1.0000
  C   C1496     1.0  0.52746  0.50103  0.88643  1.0000
  C   C1497     1.0  0.60628  0.40077  0.91520  1.0000
  C   C1498     1.0  0.59120  0.39273  0.93087  1.0000
  H   H2625     1.0  0.70017  0.61586  0.93463  1.0000
  C   C1499     1.0  0.64746  0.42689  0.84354  1.0000
  H   H2626     1.0  0.66427  0.40838  0.59919  1.0000
  H   H2627     1.0  0.61846  0.42895  0.87830  1.0000
  H   H2628     1.0  0.63077  0.40937  0.88223  1.0000
  H   H2629     1.0  0.61359  0.41462  0.95288  1.0000
  H   H2630     1.0  0.60124  0.42690  0.92806  1.0000
  H   H2631     1.0  0.61724  0.45110  0.91289  1.0000
  H   H2632     1.0  0.64009  0.45112  0.91996  1.0000
  H   H2633     1.0  0.65647  0.42591  0.93067  1.0000
  H   H2634     1.0  0.72964  0.60917  0.65686  1.0000
  H   H2635     1.0  0.65126  0.39600  0.90571  1.0000
  H   H2636     1.0  0.66793  0.64046  0.85997  1.0000
  H   H2637     1.0  0.64530  0.44606  0.87572  1.0000
  H   H2638     1.0  0.65880  0.42707  0.88434  1.0000
  H   H2639     1.0  0.60214  0.52368  0.77583  1.0000
  C   C1500     1.0  0.73481  0.59548  0.65670  1.0000
  H   H2640     1.0  0.60141  0.40417  0.89406  1.0000
  H   H2641     1.0  0.65175  0.33381  0.63538  1.0000
  H   H2642     1.0  0.51081  0.47639  0.49387  1.0000
  C   C1501     1.0  0.65684  0.41090  0.61871  1.0000
  H   H2643     1.0  0.52334  0.46970  0.54019  1.0000
  H   H2644     1.0  0.64281  0.40850  0.61498  1.0000
  C   C1502     1.0  0.63961  0.37744  0.68625  1.0000
  H   H2645     1.0  0.63535  0.43132  0.83246  1.0000
  H   H2646     1.0  0.65871  0.43330  0.83386  1.0000
  H   H2647     1.0  0.64934  0.41257  0.84086  1.0000
  H   H2648     1.0  0.59052  0.55276  0.75988  1.0000
  C   C1503     1.0  0.52695  0.45130  0.93041  1.0000
  H   H2649     1.0  0.67773  0.40282  0.64596  1.0000
  H   H2650     1.0  0.73052  0.59195  0.61311  1.0000
  H   H2651     1.0  0.65600  0.62517  0.50202  1.0000
  H   H2652     1.0  0.54737  0.44744  0.64536  1.0000
  H   H2653     1.0  0.71617  0.34388  0.82843  1.0000
  H   H2654     1.0  0.69111  0.62914  0.89061  1.0000
  C   C1504     1.0  0.64327  0.60826  0.60438  1.0000
  H   H2655     1.0  0.71573  0.62864  0.91740  1.0000
  H   H2656     1.0  0.58012  0.40235  0.93303  1.0000
  H   H2657     1.0  0.52707  0.50408  0.67706  1.0000
  C   C1505     1.0  0.52245  0.45918  0.52437  1.0000
  H   H2658     1.0  0.65659  0.40270  0.66134  1.0000
  H   H2659     1.0  0.62925  0.62496  0.63435  1.0000
  C   C1506     1.0  0.53919  0.42012  0.93359  1.0000
  H   H2660     1.0  0.67804  0.34051  0.66154  1.0000
  C   C1507     1.0  0.70917  0.62679  0.93785  1.0000
  C   C1508     1.0  0.51299  0.47402  0.72521  1.0000
  H   H2661     1.0  0.66639  0.65979  0.59381  1.0000
  C   C1509     1.0  0.49995  0.43330  0.85103  1.0000
  H   H2662     1.0  0.70224  0.65755  0.90766  1.0000
  H   H2663     1.0  0.61811  0.53468  0.67724  1.0000
  H   H2664     1.0  0.68333  0.33174  0.59604  1.0000
  C   C1510     1.0  0.52950  0.49025  0.91308  1.0000
  H   H2665     1.0  0.65456  0.60974  0.59037  1.0000
  C   C1511     1.0  0.50854  0.51293  0.70725  1.0000
  H   H2666     1.0  0.64668  0.59773  0.61944  1.0000
  C   C1512     1.0  0.72417  0.62043  0.95747  1.0000
  C   C1513     1.0  0.63764  0.51541  0.66643  1.0000
  C   C1514     1.0  0.62414  0.50564  0.77253  1.0000
  H   H2667     1.0  0.62805  0.50562  0.65992  1.0000
  H   H2668     1.0  0.50968  0.46002  0.72341  1.0000
  C   C1515     1.0  0.71088  0.65613  0.95944  1.0000
  H   H2669     1.0  0.62932  0.49554  0.75785  1.0000
  H   H2670     1.0  0.50467  0.46544  0.66555  1.0000
  C   C1516     1.0  0.62946  0.52811  0.68763  1.0000
  H   H2671     1.0  0.63943  0.53777  0.69276  1.0000
  H   H2672     1.0  0.65809  0.42483  0.62451  1.0000
  H   H2673     1.0  0.53455  0.50115  0.71150  1.0000
  H   H2674     1.0  0.52977  0.47511  0.64164  1.0000
  C   C1517     1.0  0.57034  0.55603  0.72871  1.0000
  H   H2675     1.0  0.61330  0.47580  0.94624  1.0000
  H   H2676     1.0  0.56317  0.54812  0.71332  1.0000
  H   H2677     1.0  0.68493  0.65256  0.61438  1.0000
  H   H2678     1.0  0.59969  0.50717  0.75028  1.0000
  H   H2679     1.0  0.63496  0.51402  0.77902  1.0000
  H   H2680     1.0  0.59107  0.52660  0.71085  1.0000
  S   S349      1.0  0.73573  0.64358  0.54224  1.0000
  H   H2681     1.0  0.61677  0.39067  0.91277  1.0000
  H   H2682     1.0  0.53091  0.45596  0.68800  1.0000
  C   C1518     1.0  0.59777  0.53674  0.72309  1.0000
  H   H2683     1.0  0.64302  0.62111  0.54811  1.0000
  H   H2684     1.0  0.57647  0.56700  0.71776  1.0000
  C   C1519     1.0  0.74146  0.33598  0.88631  1.0000
  N   N82       1.0  0.51477  0.46576  0.94103  1.0000
  H   H2685     1.0  0.63959  0.53787  0.74918  1.0000
  C   C1520     1.0  0.55366  0.46020  0.64753  1.0000
  C   C1521     1.0  0.52673  0.47546  0.74891  1.0000
  H   H2686     1.0  0.74114  0.60294  0.51706  1.0000
  H   H2687     1.0  0.68080  0.36340  0.69632  1.0000
  H   H2688     1.0  0.61240  0.56792  0.73971  1.0000
  C   C1522     1.0  0.62571  0.54268  0.74888  1.0000
  H   H2689     1.0  0.61527  0.36361  0.69009  1.0000
  C   C1523     1.0  0.60907  0.51657  0.75868  1.0000
  C   C1524     1.0  0.61778  0.49606  0.79829  1.0000
  H   H2690     1.0  0.63866  0.57312  0.77031  1.0000
  C   C1525     1.0  0.63943  0.57238  0.74723  1.0000
  N   N83       1.0  0.51795  0.48083  0.69684  1.0000
  C   C1526     1.0  0.67431  0.64953  0.87460  1.0000
  H   H2691     1.0  0.51205  0.42736  0.93404  1.0000
  H   H2692     1.0  0.53178  0.49956  0.93037  1.0000
  H   H2693     1.0  0.65252  0.56709  0.74102  1.0000
  C   C1527     1.0  0.49667  0.45962  0.94716  1.0000
  H   H2694     1.0  0.62230  0.54489  0.77120  1.0000
  H   H2695     1.0  0.62875  0.48822  0.80762  1.0000
  H   H2696     1.0  0.53013  0.46887  0.79263  1.0000
  H   H2697     1.0  0.53914  0.41839  0.91063  1.0000
  H   H2698     1.0  0.63941  0.63652  0.60628  1.0000
  C   C1528     1.0  0.74036  0.32883  0.82850  1.0000
  C   C1529     1.0  0.73736  0.64638  0.63789  1.0000
  H   H2699     1.0  0.50774  0.47327  0.78269  1.0000
  C   C1530     1.0  0.50324  0.47839  0.67603  1.0000
  C   C1531     1.0  0.49879  0.54843  0.62942  1.0000
  H   H2700     1.0  0.73319  0.61948  0.81796  1.0000
  H   H2701     1.0  0.56686  0.45979  0.49331  1.0000
  H   H2702     1.0  0.73528  0.62922  0.95524  1.0000
  H   H2703     1.0  0.53400  0.45016  0.52690  1.0000
  H   H2704     1.0  0.55201  0.42500  0.94040  1.0000
  H   H2705     1.0  0.49785  0.51357  0.69158  1.0000
  H   H2706     1.0  0.50233  0.48937  0.92439  1.0000
  H   H2707     1.0  0.50032  0.50455  0.78031  1.0000
  C   C1532     1.0  0.50031  0.53048  0.62450  1.0000
  H   H2708     1.0  0.50903  0.47385  0.89862  1.0000
  C   C1533     1.0  0.73063  0.60198  0.94981  1.0000
  H   H2709     1.0  0.63628  0.47536  0.95505  1.0000
  C   C1534     1.0  0.74171  0.59049  0.62780  1.0000
  C   C1535     1.0  0.62347  0.46980  0.96006  1.0000
  S   S350      1.0  0.73897  0.64571  0.67460  1.0000
  H   H2710     1.0  0.63481  0.44486  0.97058  1.0000
  C   C1536     1.0  0.74028  0.33998  0.63549  1.0000
  C   C1537     1.0  0.73386  0.62831  0.83550  1.0000
  H   H2711     1.0  0.73654  0.65960  0.89915  1.0000
  H   H2712     1.0  0.74188  0.59803  0.96327  1.0000
  S   S351      1.0  0.74189  0.34123  0.92225  1.0000
  H   H2713     1.0  0.68474  0.65611  0.86301  1.0000
  H   H2714     1.0  0.72168  0.65907  0.94484  1.0000
  H   H2715     1.0  0.66441  0.65944  0.88172  1.0000
  H   H2716     1.0  0.74182  0.34484  0.65649  1.0000
  H   H2717     1.0  0.51036  0.45198  0.52820  1.0000
  C   C1538     1.0  0.73665  0.32767  0.58063  1.0000
  H   H2718     1.0  0.51372  0.48573  0.97286  1.0000
  H   H2719     1.0  0.74459  0.58458  0.57460  1.0000
  C   C1539     1.0  0.74525  0.62433  0.85815  1.0000
  Fe  Fe175     1.0  0.68557  0.67235  0.23020  1.0000
  S   S352      1.0  0.67475  0.69915  0.24401  1.0000
  H   H2720     1.0  0.70774  0.83508  0.08888  1.0000
  Fe  Fe176     1.0  0.71279  0.82922  0.20705  1.0000
  S   S353      1.0  0.68695  0.82457  0.18743  1.0000
  H   H2721     1.0  0.71894  0.71311  0.36306  1.0000
  Fe  Fe177     1.0  0.69833  0.82691  0.26694  1.0000
  S   S354      1.0  0.67104  0.82200  0.25003  1.0000
  S   S355      1.0  0.70263  0.82656  0.31506  1.0000
  Fe  Fe178     1.0  0.68476  0.80342  0.21971  1.0000
  S   S356      1.0  0.67973  0.77703  0.19908  1.0000
  Fe  Fe179     1.0  0.67543  0.84360  0.21865  1.0000
  S   S357      1.0  0.65935  0.86847  0.20430  1.0000
  S   S358      1.0  0.71133  0.80734  0.23797  1.0000
  S   S359      1.0  0.70195  0.84936  0.23721  1.0000
  Fe  Fe180     1.0  0.57741  0.95664  0.07934  1.0000
  S   S360      1.0  0.56205  0.93258  0.08787  1.0000
  S   S361      1.0  0.58851  0.96436  0.03631  1.0000
  Fe  Fe181     1.0  0.57670  0.96668  0.14191  1.0000
  S   S362      1.0  0.56085  0.94394  0.15416  1.0000
  H   H2722     1.0  0.52170  0.96705  0.03359  1.0000
  Fe  Fe182     1.0  0.57945  0.92834  0.12623  1.0000
  S   S363      1.0  0.59144  0.90157  0.14055  1.0000
  Fe  Fe183     1.0  0.54492  0.94996  0.11540  1.0000
  S   S364      1.0  0.51589  0.95818  0.11174  1.0000
  S   S365      1.0  0.59584  0.95108  0.11563  1.0000
  S   S366      1.0  0.55987  0.97394  0.10528  1.0000
  H   H2723     1.0  0.56178  0.96768  0.20267  1.0000
  H   H2724     1.0  0.51343  0.94877  0.01456  1.0000
  H   H2725     1.0  0.73838  0.70939  0.34419  1.0000
  H   H2726     1.0  0.70044  0.85913  0.02630  1.0000
  H   H2727     1.0  0.50698  0.92248  0.12747  1.0000
  C   C1540     1.0  0.61044  0.89271  0.15849  1.0000
  C   C1541     1.0  0.62465  0.90280  0.16581  1.0000
  C   C1542     1.0  0.63927  0.89523  0.18004  1.0000
  C   C1543     1.0  0.64013  0.87735  0.18701  1.0000
  C   C1544     1.0  0.62596  0.86723  0.17950  1.0000
  C   C1545     1.0  0.61131  0.87485  0.16542  1.0000
  H   H2728     1.0  0.62441  0.91640  0.16026  1.0000
  H   H2729     1.0  0.65009  0.90327  0.18549  1.0000
  H   H2730     1.0  0.62624  0.85351  0.18465  1.0000
  H   H2731     1.0  0.60050  0.86679  0.15991  1.0000
  C   C1546     1.0  0.67852  0.72065  0.23211  1.0000
  C   C1547     1.0  0.67404  0.73481  0.24967  1.0000
  C   C1548     1.0  0.67532  0.75217  0.24044  1.0000
  C   C1549     1.0  0.68062  0.75559  0.21320  1.0000
  C   C1550     1.0  0.68521  0.74142  0.19568  1.0000
  C   C1551     1.0  0.68441  0.72405  0.20517  1.0000
  H   H2732     1.0  0.66923  0.73235  0.27041  1.0000
  H   H2733     1.0  0.67145  0.76289  0.25400  1.0000
  H   H2734     1.0  0.68906  0.74388  0.17443  1.0000
  H   H2735     1.0  0.68766  0.71332  0.19128  1.0000
  H   H2736     1.0  0.71887  0.76333  0.99759  1.0000
  H   H2737     1.0  0.59575  0.67478  0.21635  1.0000
  C   C1552     1.0  0.58221  0.97831  0.00767  1.0000
  H   H2738     1.0  0.71932  0.68420  0.38215  1.0000
  H   H2739     1.0  0.50737  0.95033  0.17612  1.0000
  C   C1553     1.0  0.71457  0.74484  0.28875  1.0000
  N   N84       1.0  0.62254  0.67014  0.20350  1.0000
  H   H2740     1.0  0.68159  0.87377  0.02426  1.0000
  C   C1554     1.0  0.73557  0.83691  0.08503  1.0000
  C   C1555     1.0  0.56762  0.97698  0.21646  1.0000
  C   C1556     1.0  0.52168  0.99184  0.44278  1.0000
  C   C1557     1.0  0.65734  0.84117  0.12922  1.0000
  H   H2741     1.0  0.67966  0.85332  0.14653  1.0000
  C   C1558     1.0  0.71940  0.82830  0.34129  1.0000
  C   C1559     1.0  0.71470  0.82799  0.36972  1.0000
  C   C1560     1.0  0.72736  0.82917  0.39123  1.0000
  H   H2742     1.0  0.70109  0.82697  0.37516  1.0000
  H   H2743     1.0  0.72337  0.82915  0.41280  1.0000
  H   H2744     1.0  0.74205  0.70339  0.40234  1.0000
  C   C1561     1.0  0.72027  0.83345  0.12920  1.0000
  C   C1562     1.0  0.72001  0.83521  0.10000  1.0000
  H   H2745     1.0  0.70820  0.83213  0.14038  1.0000
  C   C1563     1.0  0.72856  0.73073  0.09888  1.0000
  S   S367      1.0  0.73471  0.84044  0.04860  1.0000
  C   C1564     1.0  0.73713  0.82968  0.33484  1.0000
  H   H2746     1.0  0.64849  0.84574  0.14616  1.0000
  H   H2747     1.0  0.72487  0.75407  0.28336  1.0000
  H   H2748     1.0  0.62580  0.94916  0.15654  1.0000
  H   H2749     1.0  0.69981  0.72293  0.32544  1.0000
  H   H2750     1.0  0.51406  0.96974  0.46775  1.0000
  H   H2751     1.0  0.71682  0.80424  0.44361  1.0000
  C   C1565     1.0  0.72516  0.68745  0.30380  1.0000
  C   C1566     1.0  0.68540  0.68581  0.31237  1.0000
  H   H2752     1.0  0.64360  0.96145  0.17008  1.0000
  H   H2753     1.0  0.64796  0.69801  0.18753  1.0000
  H   H2754     1.0  0.53584  0.97695  0.47435  1.0000
  H   H2755     1.0  0.57633  0.66791  0.15789  1.0000
  H   H2756     1.0  0.50951  0.95306  0.21345  1.0000
  H   H2757     1.0  0.63305  0.67536  0.16219  1.0000
  H   H2758     1.0  0.62011  0.95936  0.30939  1.0000
  H   H2759     1.0  0.64268  0.97067  0.07333  1.0000
  H   H2760     1.0  0.64098  0.72872  0.19422  1.0000
  C   C1567     1.0  0.73135  0.75553  0.13345  1.0000
  H   H2761     1.0  0.49914  0.98486  0.38536  1.0000
  H   H2762     1.0  0.74026  0.77148  0.00407  1.0000
  H   H2763     1.0  0.60568  0.97195  0.98463  1.0000
  C   C1568     1.0  0.62442  0.98759  0.09615  1.0000
  C   C1569     1.0  0.74218  0.77314  0.21947  1.0000
  H   H2764     1.0  0.70775  0.80077  0.10924  1.0000
  H   H2765     1.0  0.73892  0.77063  0.32384  1.0000
  C   C1570     1.0  0.70248  0.78819  0.11611  1.0000
  H   H2766     1.0  0.73495  0.76893  0.23817  1.0000
  H   H2767     1.0  0.74522  0.78711  0.22206  1.0000
  H   H2768     1.0  0.52236  0.98811  0.33446  1.0000
  H   H2769     1.0  0.60308  0.97505  0.29931  1.0000
  H   H2770     1.0  0.70364  0.67632  0.34321  1.0000
  S   S368      1.0  0.73721  0.83116  0.18044  1.0000
  H   H2771     1.0  0.74110  0.82996  0.31325  1.0000
  H   H2772     1.0  0.61807  0.69325  0.22887  1.0000
  C   C1571     1.0  0.57797  0.68117  0.16667  1.0000
  H   H2773     1.0  0.71968  0.68968  0.28255  1.0000
  H   H2774     1.0  0.51906  0.96835  0.18999  1.0000
  H   H2775     1.0  0.74208  0.79172  0.17069  1.0000
  C   C1572     1.0  0.62877  0.97512  0.07201  1.0000
  H   H2776     1.0  0.62650  0.98154  0.05156  1.0000
  H   H2777     1.0  0.62624  0.98010  0.11583  1.0000
  C   C1573     1.0  0.72964  0.77071  0.98836  1.0000
  C   C1574     1.0  0.56655  0.98827  0.00719  1.0000
  H   H2778     1.0  0.72380  0.74842  0.14929  1.0000
  H   H2779     1.0  0.59924  0.95971  0.32674  1.0000
  C   C1575     1.0  0.74508  0.83060  0.38476  1.0000
  C   C1576     1.0  0.73083  0.68756  0.36944  1.0000
  H   H2780     1.0  0.62158  0.97026  0.17245  1.0000
  C   C1577     1.0  0.67258  0.85335  0.12634  1.0000
  N   N85       1.0  0.60485  0.93680  0.23526  1.0000
  C   C1578     1.0  0.60625  0.95170  0.25567  1.0000
  C   C1579     1.0  0.60910  0.94341  0.20653  1.0000
  C   C1580     1.0  0.58603  0.93144  0.23473  1.0000
  C   C1581     1.0  0.61628  0.92106  0.24290  1.0000
  C   C1582     1.0  0.63374  0.92443  0.25824  1.0000
  C   C1583     1.0  0.59889  0.94844  0.28521  1.0000
  C   C1584     1.0  0.58148  0.91697  0.21347  1.0000
  H   H2781     1.0  0.58715  0.95435  0.47307  1.0000
  H   H2782     1.0  0.66134  0.67202  0.30755  1.0000
  C   C1585     1.0  0.64506  0.90770  0.26045  1.0000
  C   C1586     1.0  0.60581  0.96144  0.30639  1.0000
  C   C1587     1.0  0.56293  0.91081  0.21781  1.0000
  H   H2783     1.0  0.59920  0.96357  0.24750  1.0000
  H   H2784     1.0  0.61993  0.95570  0.25799  1.0000
  H   H2785     1.0  0.60717  0.93321  0.19058  1.0000
  H   H2786     1.0  0.59988  0.95439  0.20080  1.0000
  H   H2787     1.0  0.57719  0.94293  0.23046  1.0000
  H   H2788     1.0  0.58215  0.92649  0.25550  1.0000
  H   H2789     1.0  0.60914  0.91212  0.25676  1.0000
  H   H2790     1.0  0.61933  0.91317  0.22393  1.0000
  H   H2791     1.0  0.63116  0.92913  0.27976  1.0000
  H   H2792     1.0  0.64150  0.93433  0.24768  1.0000
  H   H2793     1.0  0.58442  0.95012  0.28481  1.0000
  H   H2794     1.0  0.60226  0.93505  0.29258  1.0000
  H   H2795     1.0  0.59057  0.90546  0.21524  1.0000
  H   H2796     1.0  0.58202  0.92194  0.19188  1.0000
  H   H2797     1.0  0.70744  0.74171  0.26931  1.0000
  H   H2798     1.0  0.67846  0.69816  0.30631  1.0000
  N   N86       1.0  0.71534  0.69886  0.32466  1.0000
  N   N87       1.0  0.73083  0.77483  0.13963  1.0000
  C   C1588     1.0  0.59706  0.68382  0.17443  1.0000
  H   H2799     1.0  0.63797  0.89739  0.27151  1.0000
  H   H2800     1.0  0.64881  0.90282  0.23943  1.0000
  H   H2801     1.0  0.65719  0.91030  0.27226  1.0000
  H   H2802     1.0  0.72445  0.76471  0.44035  1.0000
  C   C1589     1.0  0.52217  0.98137  0.46978  1.0000
  C   C1590     1.0  0.68299  0.79122  0.12164  1.0000
  H   H2803     1.0  0.55332  0.92190  0.21565  1.0000
  H   H2804     1.0  0.55994  0.90087  0.20177  1.0000
  H   H2805     1.0  0.56162  0.90483  0.23872  1.0000
  C   C1591     1.0  0.71612  0.79065  0.45133  1.0000
  H   H2806     1.0  0.55399  0.96816  0.25283  1.0000
  C   C1592     1.0  0.72532  0.77791  0.43130  1.0000
  C   C1593     1.0  0.57850  0.97962  0.45747  1.0000
  C   C1594     1.0  0.57976  0.98850  0.20610  1.0000
  H   H2807     1.0  0.50015  0.98065  0.33350  1.0000
  H   H2808     1.0  0.68091  0.80061  0.13902  1.0000
  C   C1595     1.0  0.69132  0.86869  0.06643  1.0000
  H   H2809     1.0  0.60488  0.68224  0.15516  1.0000
  N   N88       1.0  0.67971  0.88501  0.11075  1.0000
  C   C1596     1.0  0.69711  0.88154  0.12491  1.0000
  C   C1597     1.0  0.68228  0.88505  0.07953  1.0000
  C   C1598     1.0  0.67330  0.90315  0.11899  1.0000
  C   C1599     1.0  0.66609  0.87217  0.11904  1.0000
  C   C1600     1.0  0.69734  0.88466  0.15688  1.0000
  C   C1601     1.0  0.65597  0.90985  0.10520  1.0000
  C   C1602     1.0  0.71278  0.87509  0.17094  1.0000
  C   C1603     1.0  0.65059  0.92798  0.11609  1.0000
  H   H2810     1.0  0.70721  0.88994  0.11578  1.0000
  H   H2811     1.0  0.70209  0.86803  0.12099  1.0000
  H   H2812     1.0  0.66952  0.88659  0.06858  1.0000
  H   H2813     1.0  0.69005  0.89647  0.07343  1.0000
  H   H2814     1.0  0.68350  0.91279  0.11455  1.0000
  H   H2815     1.0  0.67093  0.90387  0.14184  1.0000
  H   H2816     1.0  0.65889  0.87686  0.13785  1.0000
  H   H2817     1.0  0.65587  0.87138  0.10257  1.0000
  H   H2818     1.0  0.69842  0.89881  0.16127  1.0000
  H   H2819     1.0  0.68520  0.88028  0.16671  1.0000
  H   H2820     1.0  0.64523  0.90092  0.10975  1.0000
  H   H2821     1.0  0.65730  0.91103  0.08230  1.0000
  H   H2822     1.0  0.64987  0.84048  0.10940  1.0000
  H   H2823     1.0  0.72528  0.87833  0.16085  1.0000
  H   H2824     1.0  0.71338  0.87887  0.19326  1.0000
  H   H2825     1.0  0.71110  0.86081  0.16988  1.0000
  H   H2826     1.0  0.64985  0.92801  0.13918  1.0000
  H   H2827     1.0  0.66014  0.93771  0.10944  1.0000
  H   H2828     1.0  0.63754  0.93192  0.10761  1.0000
  H   H2829     1.0  0.70303  0.88212  0.03145  1.0000
  C   C1604     1.0  0.56316  0.97733  0.24488  1.0000
  C   C1605     1.0  0.70883  0.71562  0.31106  1.0000
  H   H2830     1.0  0.72894  0.75764  0.08749  1.0000
  H   H2831     1.0  0.70415  0.77190  0.15309  1.0000
  C   C1606     1.0  0.73613  0.83336  0.14374  1.0000
  C   C1607     1.0  0.62846  0.68730  0.21533  1.0000
  C   C1608     1.0  0.72608  0.70318  0.35004  1.0000
  H   H2832     1.0  0.67643  0.79660  0.10271  1.0000
  C   C1609     1.0  0.74012  0.77753  0.16711  1.0000
  H   H2833     1.0  0.70102  0.71280  0.29205  1.0000
  H   H2834     1.0  0.71828  0.77758  0.19702  1.0000
  H   H2835     1.0  0.56944  0.68294  0.18521  1.0000
  H   H2836     1.0  0.72357  0.72222  0.11557  1.0000
  H   H2837     1.0  0.62607  0.70245  0.17573  1.0000
  H   H2838     1.0  0.71786  0.77834  0.41148  1.0000
  H   H2839     1.0  0.62085  0.72431  0.21188  1.0000
  H   H2840     1.0  0.72258  0.72685  0.07879  1.0000
  H   H2841     1.0  0.70389  0.77894  0.09855  1.0000
  H   H2842     1.0  0.67689  0.77877  0.12721  1.0000
  H   H2843     1.0  0.59763  0.98677  0.08101  1.0000
  H   H2844     1.0  0.70435  0.86593  0.07579  1.0000
  H   H2845     1.0  0.62061  0.96347  0.07305  1.0000
  C   C1610     1.0  0.69421  0.87118  0.03520  1.0000
  H   H2846     1.0  0.68154  0.84772  0.11055  1.0000
  H   H2847     1.0  0.58217  0.97672  0.43618  1.0000
  H   H2848     1.0  0.69304  0.69661  0.35203  1.0000
  H   H2849     1.0  0.74042  0.79902  0.12399  1.0000
  H   H2850     1.0  0.63716  0.93791  0.20226  1.0000
  H   H2851     1.0  0.72175  0.67942  0.00031  1.0000
  C   C1611     1.0  0.51107  0.95756  0.03267  1.0000
  H   H2852     1.0  0.68302  0.85725  0.06868  1.0000
  C   C1612     1.0  0.69957  0.68932  0.33463  1.0000
  C   C1613     1.0  0.72291  0.72824  0.30128  1.0000
  H   H2853     1.0  0.72308  0.67340  0.30787  1.0000
  C   C1614     1.0  0.50767  0.96001  0.19333  1.0000
  H   H2854     1.0  0.71842  0.77256  0.34266  1.0000
  H   H2855     1.0  0.66537  0.67942  0.34258  1.0000
  C   C1615     1.0  0.71223  0.78181  0.14279  1.0000
  C   C1616     1.0  0.62979  0.95807  0.17346  1.0000
  H   H2856     1.0  0.66235  0.82785  0.13455  1.0000
  C   C1617     1.0  0.62796  0.94940  0.20190  1.0000
  H   H2857     1.0  0.70941  0.75119  0.10537  1.0000
  H   H2858     1.0  0.73137  0.73226  0.31877  1.0000
  H   H2859     1.0  0.52759  0.98338  0.42636  1.0000
  H   H2860     1.0  0.52028  0.99374  0.38603  1.0000
  H   H2861     1.0  0.70541  0.75136  0.30367  1.0000
  C   C1618     1.0  0.67160  0.67376  0.32361  1.0000
  H   H2862     1.0  0.73481  0.67585  0.35724  1.0000
  C   C1619     1.0  0.59358  0.97961  0.98475  1.0000
  C   C1620     1.0  0.57052  0.98942  0.26311  1.0000
  H   H2863     1.0  0.51160  0.94970  0.05208  1.0000
  H   H2864     1.0  0.63194  0.95899  0.21777  1.0000
  H   H2865     1.0  0.72460  0.78409  0.98338  1.0000
  H   H2866     1.0  0.59798  0.69740  0.18218  1.0000
  S   S369      1.0  0.56554  0.98841  0.29902  1.0000
  H   H2867     1.0  0.62382  0.67202  0.26396  1.0000
  H   H2868     1.0  0.59928  0.99281  0.11574  1.0000
  H   H2869     1.0  0.64154  0.71894  0.22828  1.0000
  C   C1621     1.0  0.49585  0.94775  0.11712  1.0000
  C   C1622     1.0  0.63442  0.70137  0.19450  1.0000
  H   H2870     1.0  0.73097  0.72207  0.28462  1.0000
  S   S370      1.0  0.71345  0.66453  0.23911  1.0000
  H   H2871     1.0  0.63999  0.68507  0.22932  1.0000
  H   H2872     1.0  0.70875  0.69801  0.98881  1.0000
  C   C1623     1.0  0.63443  0.71941  0.20811  1.0000
  H   H2873     1.0  0.71175  0.79338  0.15699  1.0000
  C   C1624     1.0  0.72388  0.74989  0.10497  1.0000
  H   H2874     1.0  0.72849  0.75645  0.19182  1.0000
  H   H2875     1.0  0.57375  0.69088  0.15067  1.0000
  H   H2876     1.0  0.72221  0.78972  0.47229  1.0000
  H   H2877     1.0  0.70216  0.78741  0.45322  1.0000
  H   H2878     1.0  0.69131  0.67965  0.29355  1.0000
  H   H2879     1.0  0.73342  0.78501  0.09750  1.0000
  C   C1625     1.0  0.73095  0.77055  0.19349  1.0000
  C   C1626     1.0  0.60323  0.67091  0.19741  1.0000
  S   S371      1.0  0.58664  0.98754  0.17094  1.0000
  C   C1627     1.0  0.50837  0.99227  0.33247  1.0000
  H   H2880     1.0  0.55744  0.98721  0.02421  1.0000
  C   C1628     1.0  0.74463  0.78275  0.42670  1.0000
  C   C1629     1.0  0.74031  0.78504  0.11783  1.0000
  C   C1630     1.0  0.71541  0.68570  0.98186  1.0000
  H   H2881     1.0  0.64707  0.66305  0.18411  1.0000
  C   C1631     1.0  0.63311  0.66494  0.17810  1.0000
  H   H2882     1.0  0.69195  0.67148  0.98473  1.0000
  H   H2883     1.0  0.74294  0.72866  0.09719  1.0000
  H   H2884     1.0  0.73411  0.75966  0.38441  1.0000
  C   C1632     1.0  0.73064  0.77919  0.33742  1.0000
  C   C1633     1.0  0.74053  0.78396  0.36391  1.0000
  H   H2885     1.0  0.73193  0.79294  0.37614  1.0000
  H   H2886     1.0  0.72705  0.79124  0.32563  1.0000
  H   H2887     1.0  0.60412  0.66130  0.25440  1.0000
  C   C1634     1.0  0.74530  0.68911  0.30221  1.0000
  H   H2888     1.0  0.74462  0.79640  0.41884  1.0000
  H   H2889     1.0  0.74496  0.75009  0.13535  1.0000
  H   H2890     1.0  0.49934  0.97700  0.70028  1.0000
  S   S372      1.0  0.66779  0.69174  0.70417  1.0000
  H   H2891     1.0  0.58098  0.95813  0.76133  1.0000
  Fe  Fe184     1.0  0.71576  0.82310  0.70837  1.0000
  S   S373      1.0  0.68871  0.82000  0.69167  1.0000
  C   C1635     1.0  0.50056  0.91373  0.56012  1.0000
  Fe  Fe185     1.0  0.70514  0.81833  0.76954  1.0000
  S   S374      1.0  0.67705  0.81493  0.75620  1.0000
  S   S375      1.0  0.70929  0.81677  0.81745  1.0000
  Fe  Fe186     1.0  0.68784  0.79763  0.72198  1.0000
  S   S376      1.0  0.67350  0.77454  0.70417  1.0000
  Fe  Fe187     1.0  0.68005  0.83750  0.72678  1.0000
  S   S377      1.0  0.65918  0.85988  0.72521  1.0000
  S   S378      1.0  0.71558  0.79957  0.73658  1.0000
  S   S379      1.0  0.70742  0.84210  0.74221  1.0000
  Fe  Fe188     1.0  0.57896  0.94904  0.57980  1.0000
  S   S380      1.0  0.57334  0.92150  0.59295  1.0000
  S   S381      1.0  0.58106  0.95367  0.53224  1.0000
  Fe  Fe189     1.0  0.58016  0.96041  0.64120  1.0000
  S   S382      1.0  0.57460  0.93387  0.65803  1.0000
  H   H2892     1.0  0.72969  0.81891  0.91518  1.0000
  Fe  Fe190     1.0  0.59414  0.92374  0.62626  1.0000
  S   S383      1.0  0.61438  0.90062  0.63031  1.0000
  Fe  Fe191     1.0  0.55440  0.93360  0.62370  1.0000
  S   S384      1.0  0.52771  0.92190  0.63075  1.0000
  S   S385      1.0  0.60099  0.95062  0.61118  1.0000
  S   S386      1.0  0.55872  0.96077  0.60877  1.0000
  H   H2893     1.0  0.74081  0.87581  0.58275  1.0000
  C   C1636     1.0  0.50703  0.93302  0.62954  1.0000
  N   N89       1.0  0.52364  0.93207  0.53488  1.0000
  H   H2894     1.0  0.72503  0.67906  0.60306  1.0000
  H   H2895     1.0  0.51702  0.95807  0.62002  1.0000
  C   C1637     1.0  0.62675  0.88965  0.65723  1.0000
  C   C1638     1.0  0.62653  0.89514  0.68508  1.0000
  C   C1639     1.0  0.63670  0.88604  0.70538  1.0000
  C   C1640     1.0  0.64738  0.87140  0.69826  1.0000
  C   C1641     1.0  0.64771  0.86599  0.67039  1.0000
  C   C1642     1.0  0.63736  0.87493  0.65017  1.0000
  H   H2896     1.0  0.61849  0.90640  0.69099  1.0000
  H   H2897     1.0  0.63622  0.89039  0.72683  1.0000
  H   H2898     1.0  0.65580  0.85481  0.66444  1.0000
  H   H2899     1.0  0.63750  0.87040  0.62884  1.0000
  C   C1643     1.0  0.67038  0.71462  0.70750  1.0000
  C   C1644     1.0  0.65722  0.72538  0.69581  1.0000
  C   C1645     1.0  0.65844  0.74353  0.69594  1.0000
  C   C1646     1.0  0.67287  0.75149  0.70772  1.0000
  C   C1647     1.0  0.68612  0.74090  0.72002  1.0000
  C   C1648     1.0  0.68487  0.72243  0.71992  1.0000
  H   H2900     1.0  0.64597  0.71960  0.68629  1.0000
  H   H2901     1.0  0.64812  0.75147  0.68645  1.0000
  H   H2902     1.0  0.69736  0.74687  0.72922  1.0000
  H   H2903     1.0  0.69511  0.71427  0.72916  1.0000
  H   H2904     1.0  0.52554  0.97846  0.58481  1.0000
  C   C1649     1.0  0.71646  0.87631  0.82818  1.0000
  C   C1650     1.0  0.57695  0.97038  0.50661  1.0000
  H   H2905     1.0  0.70861  0.82799  0.64237  1.0000
  H   H2906     1.0  0.50771  0.89625  0.59446  1.0000
  H   H2907     1.0  0.73325  0.88518  0.55017  1.0000
  H   H2908     1.0  0.74167  0.79633  0.62051  1.0000
  C   C1651     1.0  0.74319  0.82247  0.83733  1.0000
  H   H2909     1.0  0.71609  0.66636  0.85987  1.0000
  C   C1652     1.0  0.53155  0.98142  0.70040  1.0000
  H   H2910     1.0  0.71674  0.79557  0.65474  1.0000
  H   H2911     1.0  0.70619  0.83258  0.59137  1.0000
  H   H2912     1.0  0.72513  0.78583  0.52246  1.0000
  C   C1653     1.0  0.72584  0.81897  0.84368  1.0000
  C   C1654     1.0  0.72121  0.81755  0.87201  1.0000
  S   S387      1.0  0.57489  0.98619  0.80002  1.0000
  H   H2913     1.0  0.70788  0.81480  0.87733  1.0000
  S   S388      1.0  0.58200  0.98481  0.66789  1.0000
  H   H2914     1.0  0.70472  0.73956  0.62607  1.0000
  H   H2915     1.0  0.70496  0.71040  0.67487  1.0000
  H   H2916     1.0  0.50122  0.88531  0.56283  1.0000
  H   H2917     1.0  0.71018  0.86698  0.58589  1.0000
  H   H2918     1.0  0.73013  0.76485  0.57593  1.0000
  C   C1655     1.0  0.72877  0.69274  0.60035  1.0000
  H   H2919     1.0  0.71175  0.87418  0.69032  1.0000
  H   H2920     1.0  0.49850  0.94226  0.73250  1.0000
  C   C1656     1.0  0.69857  0.90343  0.86533  1.0000
  H   H2921     1.0  0.71291  0.90389  0.86281  1.0000
  C   C1657     1.0  0.71878  0.83306  0.60144  1.0000
  C   C1658     1.0  0.70306  0.87885  0.64777  1.0000
  H   H2922     1.0  0.67991  0.90953  0.89851  1.0000
  C   C1659     1.0  0.73359  0.81985  0.89361  1.0000
  H   H2923     1.0  0.69306  0.85849  0.62285  1.0000
  H   H2924     1.0  0.65713  0.80941  0.61705  1.0000
  H   H2925     1.0  0.71639  0.87583  0.63974  1.0000
  C   C1660     1.0  0.70160  0.86954  0.67577  1.0000
  H   H2926     1.0  0.73954  0.69568  0.61495  1.0000
  H   H2927     1.0  0.66633  0.66335  0.63096  1.0000
  H   H2928     1.0  0.68217  0.66239  0.92485  1.0000
  H   H2929     1.0  0.66177  0.93181  0.60518  1.0000
  H   H2930     1.0  0.67194  0.69037  0.60473  1.0000
  H   H2931     1.0  0.69554  0.73750  0.66009  1.0000
  C   C1661     1.0  0.73628  0.76146  0.96204  1.0000
  H   H2932     1.0  0.54072  0.96570  0.75017  1.0000
  H   H2933     1.0  0.68102  0.71685  0.61073  1.0000
  H   H2934     1.0  0.70368  0.85525  0.67310  1.0000
  H   H2935     1.0  0.72462  0.75657  0.85186  1.0000
  H   H2936     1.0  0.68687  0.68435  0.65193  1.0000
  H   H2937     1.0  0.52929  0.93168  0.73781  1.0000
  N   N90       1.0  0.68751  0.88222  0.59974  1.0000
  C   C1662     1.0  0.68282  0.90130  0.60432  1.0000
  C   C1663     1.0  0.67276  0.87450  0.58332  1.0000
  C   C1664     1.0  0.68934  0.87237  0.62682  1.0000
  H   H2938     1.0  0.67775  0.71341  0.64689  1.0000
  C   C1665     1.0  0.66593  0.90542  0.62128  1.0000
  C   C1666     1.0  0.67560  0.85526  0.57370  1.0000
  C   C1667     1.0  0.66302  0.92504  0.62556  1.0000
  C   C1668     1.0  0.66037  0.84951  0.55561  1.0000
  H   H2939     1.0  0.66986  0.88255  0.56441  1.0000
  H   H2940     1.0  0.66053  0.87475  0.59570  1.0000
  H   H2941     1.0  0.67655  0.87201  0.63752  1.0000
  C   C1669     1.0  0.67466  0.66301  0.61202  1.0000
  H   H2942     1.0  0.65420  0.90082  0.61026  1.0000
  H   H2943     1.0  0.66666  0.89936  0.64222  1.0000
  H   H2944     1.0  0.67636  0.84637  0.59188  1.0000
  H   H2945     1.0  0.68770  0.85341  0.56124  1.0000
  H   H2946     1.0  0.54381  0.96429  0.54773  1.0000
  H   H2947     1.0  0.68858  0.87225  0.68523  1.0000
  H   H2948     1.0  0.67722  0.88640  0.86092  1.0000
  H   H2949     1.0  0.65928  0.85761  0.53646  1.0000
  H   H2950     1.0  0.66260  0.83569  0.54926  1.0000
  H   H2951     1.0  0.64791  0.85065  0.56735  1.0000
  N   N91       1.0  0.62424  0.81417  0.70097  1.0000
  C   C1670     1.0  0.63568  0.80078  0.71593  1.0000
  C   C1671     1.0  0.63459  0.82188  0.67755  1.0000
  C   C1672     1.0  0.61997  0.82878  0.72131  1.0000
  C   C1673     1.0  0.60738  0.80685  0.69033  1.0000
  C   C1674     1.0  0.60778  0.78730  0.68163  1.0000
  C   C1675     1.0  0.62854  0.79418  0.74412  1.0000
  C   C1676     1.0  0.60919  0.84464  0.70954  1.0000
  C   C1677     1.0  0.64138  0.80922  0.65459  1.0000
  C   C1678     1.0  0.65255  0.81871  0.63343  1.0000
  C   C1679     1.0  0.59097  0.78264  0.66655  1.0000
  C   C1680     1.0  0.63810  0.77741  0.75357  1.0000
  C   C1681     1.0  0.60419  0.85755  0.73268  1.0000
  H   H2952     1.0  0.64872  0.80614  0.72026  1.0000
  H   H2953     1.0  0.63855  0.78927  0.70255  1.0000
  H   H2954     1.0  0.62665  0.83200  0.66628  1.0000
  H   H2955     1.0  0.64609  0.82857  0.68635  1.0000
  H   H2956     1.0  0.63221  0.83378  0.73058  1.0000
  H   H2957     1.0  0.61225  0.82390  0.73907  1.0000
  H   H2958     1.0  0.59697  0.80816  0.70643  1.0000
  H   H2959     1.0  0.60236  0.81471  0.67233  1.0000
  H   H2960     1.0  0.60900  0.77884  0.70031  1.0000
  H   H2961     1.0  0.61886  0.78378  0.66782  1.0000
  H   H2962     1.0  0.63051  0.80415  0.76058  1.0000
  H   H2963     1.0  0.61438  0.79173  0.74277  1.0000
  H   H2964     1.0  0.59700  0.84044  0.69936  1.0000
  H   H2965     1.0  0.61679  0.85192  0.69414  1.0000
  H   H2966     1.0  0.64955  0.79835  0.66335  1.0000
  H   H2967     1.0  0.63024  0.80397  0.64283  1.0000
  H   H2968     1.0  0.66417  0.82414  0.64370  1.0000
  C   C1682     1.0  0.69290  0.73585  0.63748  1.0000
  H   H2969     1.0  0.64484  0.82948  0.62332  1.0000
  H   H2970     1.0  0.59141  0.76853  0.66130  1.0000
  H   H2971     1.0  0.57944  0.78540  0.68004  1.0000
  H   H2972     1.0  0.58948  0.79017  0.64689  1.0000
  H   H2973     1.0  0.63274  0.77311  0.77379  1.0000
  H   H2974     1.0  0.63646  0.76683  0.73805  1.0000
  H   H2975     1.0  0.65225  0.77963  0.75641  1.0000
  H   H2976     1.0  0.59556  0.85145  0.74816  1.0000
  H   H2977     1.0  0.61608  0.86214  0.74339  1.0000
  H   H2978     1.0  0.59712  0.86907  0.72356  1.0000
  N   N92       1.0  0.69686  0.87702  0.83175  1.0000
  H   H2979     1.0  0.72275  0.71676  0.65383  1.0000
  C   C1683     1.0  0.69167  0.88498  0.85938  1.0000
  H   H2980     1.0  0.54377  0.97266  0.66145  1.0000
  C   C1684     1.0  0.68882  0.88805  0.80877  1.0000
  C   C1685     1.0  0.69097  0.88070  0.77879  1.0000
  H   H2981     1.0  0.54488  0.91607  0.68426  1.0000
  H   H2982     1.0  0.52147  0.90396  0.53519  1.0000
  H   H2983     1.0  0.51907  0.94200  0.49301  1.0000
  H   H2984     1.0  0.73343  0.77761  0.90759  1.0000
  C   C1686     1.0  0.68307  0.89337  0.75729  1.0000
  S   S389      1.0  0.73117  0.84070  0.54945  1.0000
  H   H2985     1.0  0.55140  0.92968  0.54363  1.0000
  H   H2986     1.0  0.54482  0.98374  0.70873  1.0000
  H   H2987     1.0  0.69568  0.85176  0.81172  1.0000
  C   C1687     1.0  0.50543  0.95079  0.62360  1.0000
  C   C1688     1.0  0.53030  0.93170  0.71483  1.0000
  H   H2988     1.0  0.71871  0.71877  0.60478  1.0000
  C   C1689     1.0  0.57679  0.98601  0.76329  1.0000
  H   H2989     1.0  0.67464  0.89062  0.81256  1.0000
  H   H2990     1.0  0.69466  0.90113  0.80864  1.0000
  H   H2991     1.0  0.68429  0.86818  0.77640  1.0000
  H   H2992     1.0  0.70495  0.87854  0.77353  1.0000
  H   H2993     1.0  0.52055  0.97712  0.65853  1.0000
  H   H2994     1.0  0.66408  0.86327  0.81291  1.0000
  H   H2995     1.0  0.69236  0.91314  0.85098  1.0000
  H   H2996     1.0  0.72112  0.89628  0.60889  1.0000
  H   H2997     1.0  0.71390  0.90636  0.57703  1.0000
  C   C1690     1.0  0.71827  0.89379  0.58667  1.0000
  C   C1691     1.0  0.72048  0.78167  0.65850  1.0000
  C   C1692     1.0  0.71801  0.79065  0.54122  1.0000
  C   C1693     1.0  0.71315  0.70562  0.60522  1.0000
  H   H2998     1.0  0.66877  0.89514  0.76053  1.0000
  H   H2999     1.0  0.68928  0.90621  0.75858  1.0000
  H   H3000     1.0  0.68523  0.88801  0.73602  1.0000
  C   C1694     1.0  0.53519  0.94974  0.70329  1.0000
  C   C1695     1.0  0.66578  0.83750  0.82993  1.0000
  C   C1696     1.0  0.57972  0.97004  0.74939  1.0000
  C   C1697     1.0  0.51884  0.98286  0.78956  1.0000
  H   H3001     1.0  0.73192  0.68312  0.65351  1.0000
  C   C1698     1.0  0.73363  0.83622  0.58542  1.0000
  N   N93       1.0  0.70266  0.70318  0.63143  1.0000
  C   C1699     1.0  0.52657  0.96687  0.74458  1.0000
  H   H3002     1.0  0.67395  0.93050  0.63763  1.0000
  H   H3003     1.0  0.70449  0.70523  0.58657  1.0000
  C   C1700     1.0  0.56943  0.98677  0.51315  1.0000
  Fe  Fe192     1.0  0.68270  0.66678  0.71717  1.0000
  H   H3004     1.0  0.68138  0.76208  0.63701  1.0000
  H   H3005     1.0  0.66570  0.74518  0.63914  1.0000
  H   H3006     1.0  0.71485  0.68072  0.67830  1.0000
  H   H3007     1.0  0.67652  0.74927  0.60652  1.0000
  N   N94       1.0  0.52430  0.96527  0.71339  1.0000
  C   C1701     1.0  0.56511  0.91687  0.49261  1.0000
  H   H3008     1.0  0.70866  0.77486  0.66533  1.0000
  C   C1702     1.0  0.67044  0.85669  0.83103  1.0000
  C   C1703     1.0  0.74011  0.77480  0.57237  1.0000
  H   H3009     1.0  0.72014  0.86819  0.80971  1.0000
  H   H3010     1.0  0.67150  0.83030  0.84802  1.0000
  C   C1704     1.0  0.54720  0.91486  0.50593  1.0000
  H   H3011     1.0  0.66467  0.86220  0.85041  1.0000
  C   C1705     1.0  0.68784  0.71674  0.63123  1.0000
  H   H3012     1.0  0.70482  0.67484  0.63392  1.0000
  H   H3013     1.0  0.52051  0.95602  0.75573  1.0000
  C   C1706     1.0  0.73643  0.83079  0.64356  1.0000
  C   C1707     1.0  0.69053  0.85863  0.83058  1.0000
  H   H3014     1.0  0.50882  0.94900  0.56319  1.0000
  H   H3015     1.0  0.69588  0.85089  0.84843  1.0000
  C   C1708     1.0  0.54242  0.93050  0.52534  1.0000
  C   C1709     1.0  0.69425  0.90923  0.89507  1.0000
  C   C1710     1.0  0.70211  0.67369  0.96883  1.0000
  S   S390      1.0  0.70998  0.66552  0.73376  1.0000
  H   H3016     1.0  0.52619  0.96672  0.52341  1.0000
  C   C1711     1.0  0.68284  0.68068  0.60752  1.0000
  H   H3017     1.0  0.72514  0.76069  0.94735  1.0000
  H   H3018     1.0  0.71188  0.80362  0.53629  1.0000
  H   H3019     1.0  0.73431  0.75479  0.90158  1.0000
  C   C1712     1.0  0.72400  0.69012  0.66937  1.0000
  C   C1713     1.0  0.69468  0.68545  0.63248  1.0000
  H   H3020     1.0  0.49740  0.95982  0.51751  1.0000
  H   H3021     1.0  0.70088  0.88065  0.55981  1.0000
  C   C1714     1.0  0.67819  0.74885  0.62950  1.0000
  H   H3022     1.0  0.69343  0.90806  0.61518  1.0000
  C   C1715     1.0  0.72015  0.83037  0.63036  1.0000
  H   H3023     1.0  0.72371  0.85507  0.85733  1.0000
  C   C1716     1.0  0.54398  0.91757  0.70720  1.0000
  H   H3024     1.0  0.72135  0.88948  0.82352  1.0000
  H   H3025     1.0  0.58395  0.95709  0.70976  1.0000
  C   C1717     1.0  0.72724  0.86866  0.85303  1.0000
  C   C1718     1.0  0.51949  0.98416  0.75780  1.0000
  H   H3026     1.0  0.70143  0.89302  0.65187  1.0000
  C   C1719     1.0  0.58136  0.96942  0.72017  1.0000
  C   C1720     1.0  0.70400  0.88012  0.58253  1.0000
  H   H3027     1.0  0.57538  0.91759  0.50895  1.0000
  C   C1721     1.0  0.71355  0.70606  0.65731  1.0000
  H   H3028     1.0  0.65071  0.92751  0.63735  1.0000
  H   H3029     1.0  0.53206  0.97960  0.79810  1.0000
  H   H3030     1.0  0.68136  0.90799  0.58379  1.0000
  H   H3031     1.0  0.72869  0.70202  0.70991  1.0000
  H   H3032     1.0  0.69057  0.67981  0.58802  1.0000
  H   H3033     1.0  0.72307  0.79750  0.58370  1.0000
  C   C1722     1.0  0.72977  0.76992  0.85200  1.0000
  C   C1723     1.0  0.57999  0.98478  0.70461  1.0000
  H   H3034     1.0  0.51771  0.92780  0.70555  1.0000
  H   H3035     1.0  0.50965  0.97277  0.79611  1.0000
  C   C1724     1.0  0.51199  0.93508  0.50970  1.0000
  H   H3036     1.0  0.69563  0.87612  0.87682  1.0000
  H   H3037     1.0  0.67079  0.83136  0.81047  1.0000
  H   H3038     1.0  0.54790  0.90254  0.51804  1.0000
  H   H3039     1.0  0.65137  0.83636  0.83037  1.0000
  H   H3040     1.0  0.55699  0.92079  0.71571  1.0000
  H   H3041     1.0  0.50748  0.98081  0.56052  1.0000
  H   H3042     1.0  0.72558  0.68895  0.96645  1.0000
  H   H3043     1.0  0.70758  0.78154  0.54649  1.0000
  H   H3044     1.0  0.69609  0.68080  0.95096  1.0000
  H   H3045     1.0  0.54925  0.95174  0.70795  1.0000
  C   C1725     1.0  0.52193  0.97985  0.56250  1.0000
  H   H3046     1.0  0.53429  0.94837  0.68024  1.0000
  H   H3047     1.0  0.56600  0.98976  0.53450  1.0000
  C   C1726     1.0  0.73622  0.69556  0.69280  1.0000
  C   C1727     1.0  0.52776  0.97630  0.89405  1.0000
  C   C1728     1.0  0.73066  0.79246  0.56562  1.0000
  C   C1729     1.0  0.53281  0.98146  0.66819  1.0000
  H   H3048     1.0  0.52342  0.99316  0.70615  1.0000
  H   H3049     1.0  0.53747  0.91361  0.48894  1.0000
  H   H3050     1.0  0.73283  0.77363  0.83023  1.0000
  C   C1730     1.0  0.49858  0.89682  0.57643  1.0000
  C   C1731     1.0  0.51947  0.91528  0.54939  1.0000
  H   H3051     1.0  0.54021  0.96901  0.89862  1.0000
  H   H3052     1.0  0.54603  0.94244  0.51386  1.0000
  H   H3053     1.0  0.71956  0.77926  0.85994  1.0000
  H   H3054     1.0  0.54020  0.90489  0.71604  1.0000
  S   S391      1.0  0.73878  0.82763  0.67991  1.0000
  C   C1732     1.0  0.50547  0.96386  0.70426  1.0000
  H   H3055     1.0  0.50624  0.98771  0.74986  1.0000
  H   H3056     1.0  0.69905  0.92254  0.89871  1.0000
  H   H3057     1.0  0.50487  0.95704  0.68375  1.0000
  H   H3058     1.0  0.52991  0.94319  0.57498  1.0000
  H   H3059     1.0  0.70068  0.90025  0.91040  1.0000
  H   H3060     1.0  0.52861  0.91301  0.56730  1.0000
  C   C1733     1.0  0.52936  0.96443  0.54562  1.0000
  C   C1734     1.0  0.52239  0.94678  0.55579  1.0000
  C   C1735     1.0  0.73537  0.88785  0.57269  1.0000
  H   H3061     1.0  0.51676  0.96773  0.89875  1.0000
  H   H3062     1.0  0.72618  0.69040  0.55520  1.0000
  H   H3063     1.0  0.72512  0.87636  0.87235  1.0000
  H   H3064     1.0  0.71742  0.77429  0.61581  1.0000
  H   H3065     1.0  0.52755  0.97967  0.87153  1.0000
  H   H3066     1.0  0.59844  0.99150  0.94462  1.0000
  C   C1736     1.0  0.58948  0.99070  0.96191  1.0000
  H   H3067     1.0  0.52740  0.99211  0.55460  1.0000
  H   H3068     1.0  0.49668  0.92469  0.57401  1.0000
  H   H3069     1.0  0.50870  0.92235  0.50017  1.0000
  C   C1737     1.0  0.74237  0.76660  0.90093  1.0000
  H   H3070     1.0  0.74050  0.74800  0.96815  1.0000
  C   C1738     1.0  0.72779  0.77320  0.63193  1.0000
  H   H3071     1.0  0.73027  0.78092  0.67562  1.0000
  H   H3072     1.0  0.51737  0.98957  0.48745  1.0000
  H   H3073     1.0  0.74021  0.80227  0.55950  1.0000
  H   H3074     1.0  0.73046  0.75923  0.63657  1.0000
  C   C1739     1.0  0.73599  0.69446  0.57082  1.0000
  H   H3075     1.0  0.52742  0.98890  0.93406  1.0000
  H   H3076     1.0  0.74316  0.68381  0.70142  1.0000
  C   C1740     1.0  0.52663  0.99284  0.91184  1.0000
  H   H3077     1.0  0.73967  0.70807  0.56656  1.0000
  C   C1741     1.0  0.74468  0.78209  0.62244  1.0000
  C   C1742     1.0  0.58129  0.96691  0.47854  1.0000
  H   H3078     1.0  0.74511  0.89818  0.57471  1.0000
  H   H3079     1.0  0.56826  0.90547  0.47903  1.0000
  H   H3080     1.0  0.56525  0.92886  0.47970  1.0000
  Fe  Fe193     1.0  0.89189  0.01343  0.39488  1.0000
  S   S392      1.0  0.89930  0.04119  0.40340  1.0000
  H   H3081     1.0  0.83729  0.31373  0.41138  1.0000
  Fe  Fe194     1.0  0.88372  0.01996  0.33259  1.0000
  S   S393      1.0  0.89017  0.04823  0.33702  1.0000
  H   H3082     1.0  0.75291  0.09836  0.39987  1.0000
  Fe  Fe195     1.0  0.91358  0.03882  0.36227  1.0000
  S   S394      1.0  0.94007  0.04880  0.34872  1.0000
  Fe  Fe196     1.0  0.87529  0.04887  0.37780  1.0000
  S   S395      1.0  0.85498  0.07185  0.38364  1.0000
  S   S396      1.0  0.90775  0.01075  0.35566  1.0000
  S   S397      1.0  0.86719  0.02102  0.37165  1.0000
  H   H3083     1.0  0.78803  0.14467  0.29389  1.0000
  H   H3084     1.0  0.79029  0.12316  0.27901  1.0000
  H   H3085     1.0  0.97186  0.02840  0.47814  1.0000
  H   H3086     1.0  0.88974  0.01073  0.01594  1.0000
  C   C1743     1.0  0.78069  0.07712  0.35212  1.0000
  C   C1744     1.0  0.77057  0.24324  0.46497  1.0000
  Fe  Fe197     1.0  0.77387  0.14757  0.02277  1.0000
  S   S398      1.0  0.76732  0.15168  0.06960  1.0000
  C   C1745     1.0  0.80255  0.29134  0.39223  1.0000
  H   H3087     1.0  0.79857  0.08473  0.47302  1.0000
  S   S399      1.0  0.80222  0.14900  0.00946  1.0000
  S   S400      1.0  0.77813  0.15761  0.44265  1.0000
  H   H3088     1.0  0.74707  0.17897  0.31352  1.0000
  H   H3089     1.0  0.88225  0.01029  0.20241  1.0000
  C   C1746     1.0  0.87760  0.00036  0.15114  1.0000
  S   S401      1.0  0.76494  0.16824  0.99205  1.0000
  H   H3090     1.0  0.85326  0.32206  0.38775  1.0000
  C   C1747     1.0  0.79822  0.23099  0.05381  1.0000
  H   H3091     1.0  0.74798  0.08901  0.35624  1.0000
  C   C1748     1.0  0.77581  0.25601  0.05539  1.0000
  H   H3092     1.0  0.81139  0.29172  0.41061  1.0000
  H   H3093     1.0  0.75478  0.20770  0.36716  1.0000
  H   H3094     1.0  0.90575  0.09114  0.33267  1.0000
  C   C1749     1.0  0.91619  0.00375  0.13449  1.0000
  H   H3095     1.0  0.86844  0.02678  0.18730  1.0000
  H   H3096     1.0  0.85348  0.00266  0.17564  1.0000
  C   C1750     1.0  0.77761  0.25932  0.47259  1.0000
  C   C1751     1.0  0.89127  0.99843  0.00500  1.0000
  H   H3097     1.0  0.74789  0.27081  0.28031  1.0000
  C   C1752     1.0  0.94638  0.02521  0.98629  1.0000
  H   H3098     1.0  0.88509  0.01607  0.46301  1.0000
  C   C1753     1.0  0.79908  0.07350  0.36504  1.0000
  S   S402      1.0  0.77029  0.20757  0.45999  1.0000
  H   H3099     1.0  0.78252  0.13252  0.34017  1.0000
  C   C1754     1.0  0.77177  0.10639  0.42982  1.0000
  C   C1755     1.0  0.88178  0.99458  0.26415  1.0000
  H   H3100     1.0  0.79980  0.10501  0.33626  1.0000
  H   H3101     1.0  0.77989  0.28923  0.41787  1.0000
  C   C1756     1.0  0.84448  0.08592  0.40908  1.0000
  C   C1757     1.0  0.84855  0.08523  0.43756  1.0000
  C   C1758     1.0  0.83997  0.09674  0.45663  1.0000
  C   C1759     1.0  0.82690  0.10895  0.44783  1.0000
  C   C1760     1.0  0.82288  0.10968  0.41936  1.0000
  C   C1761     1.0  0.83168  0.09838  0.40021  1.0000
  H   H3102     1.0  0.85840  0.07590  0.44489  1.0000
  C   C1762     1.0  0.91766  0.12314  0.46032  1.0000
  H   H3103     1.0  0.81329  0.11926  0.41201  1.0000
  H   H3104     1.0  0.82865  0.09942  0.37826  1.0000
  C   C1763     1.0  0.96450  0.03790  0.38876  1.0000
  C   C1764     1.0  0.96149  0.04376  0.36152  1.0000
  C   C1765     1.0  0.97592  0.04775  0.34490  1.0000
  H   H3105     1.0  0.95358  0.03485  0.40185  1.0000
  H   H3106     1.0  0.97375  0.05247  0.32390  1.0000
  H   H3107     1.0  0.80604  0.13041  0.30447  1.0000
  H   H3108     1.0  0.76470  0.25739  0.10975  1.0000
  C   C1766     1.0  0.77296  0.28172  0.37513  1.0000
  H   H3109     1.0  0.88146  0.03234  0.24343  1.0000
  C   C1767     1.0  0.78604  0.10480  0.32888  1.0000
  H   H3110     1.0  0.79968  0.31256  0.08897  1.0000
  C   C1768     1.0  0.98167  0.03683  0.39955  1.0000
  H   H3111     1.0  0.98349  0.08535  0.35971  1.0000
  H   H3112     1.0  0.76226  0.21663  0.39956  1.0000
  H   H3113     1.0  0.78653  0.09715  0.30913  1.0000
  H   H3114     1.0  0.98961  0.10772  0.36309  1.0000
  H   H3115     1.0  0.80063  0.28011  0.05113  1.0000
  C   C1769     1.0  0.76561  0.25095  0.37968  1.0000
  H   H3116     1.0  0.76921  0.24777  0.40168  1.0000
  H   H3117     1.0  0.89189  0.05279  0.23875  1.0000
  H   H3118     1.0  0.92298  0.13531  0.45176  1.0000
  C   C1770     1.0  0.78593  0.28206  0.40005  1.0000
  H   H3119     1.0  0.78459  0.23950  0.09062  1.0000
  H   H3120     1.0  0.77298  0.29478  0.09233  1.0000
  H   H3121     1.0  0.78091  0.27832  0.35642  1.0000
  C   C1771     1.0  0.75322  0.15187  0.12275  1.0000
  H   H3122     1.0  0.76782  0.29534  0.37178  1.0000
  H   H3123     1.0  0.94273  0.00632  0.15043  1.0000
  N   N95       1.0  0.77481  0.09606  0.35012  1.0000
  H   H3124     1.0  0.96564  0.11388  0.39588  1.0000
  C   C1772     1.0  0.98899  0.00543  0.47228  1.0000
  S   S403      1.0  0.77597  0.27139  0.97854  1.0000
  H   H3125     1.0  0.79978  0.07837  0.38677  1.0000
  H   H3126     1.0  0.75691  0.15175  0.39496  1.0000
  H   H3127     1.0  0.91513  0.02121  0.16864  1.0000
  H   H3128     1.0  0.76340  0.28470  0.03153  1.0000
  H   H3129     1.0  0.88529  0.09083  0.35106  1.0000
  C   C1773     1.0  0.75556  0.28107  0.04995  1.0000
  H   H3130     1.0  0.75353  0.23654  0.34539  1.0000
  N   N96       1.0  0.88811  0.01589  0.15925  1.0000
  H   H3131     1.0  0.90580  0.03038  0.20934  1.0000
  H   H3132     1.0  0.78633  0.29900  0.04701  1.0000
  H   H3133     1.0  0.90421  0.12612  0.46794  1.0000
  C   C1774     1.0  0.88563  0.03102  0.13929  1.0000
  C   C1775     1.0  0.88229  0.02648  0.10813  1.0000
  S   S404      1.0  0.87288  0.00709  0.29265  1.0000
  H   H3134     1.0  0.80381  0.04841  0.34443  1.0000
  C   C1776     1.0  0.78167  0.21858  0.98195  1.0000
  H   H3135     1.0  0.77112  0.06953  0.36407  1.0000
  C   C1777     1.0  0.88333  0.04260  0.08966  1.0000
  H   H3136     1.0  0.78816  0.22170  0.04729  1.0000
  H   H3137     1.0  0.76441  0.15940  0.12820  1.0000
  H   H3138     1.0  0.95484  0.06302  0.44130  1.0000
  S   S405      1.0  0.79312  0.32085  0.44530  1.0000
  C   C1778     1.0  0.76729  0.09710  0.40272  1.0000
  H   H3139     1.0  0.78176  0.26058  0.03572  1.0000
  H   H3140     1.0  0.78707  0.27680  0.10063  1.0000
  H   H3141     1.0  0.81692  0.05189  0.37503  1.0000
  H   H3142     1.0  0.87433  0.03962  0.14569  1.0000
  H   H3143     1.0  0.89712  0.03951  0.14033  1.0000
  H   H3144     1.0  0.86906  0.02128  0.10538  1.0000
  H   H3145     1.0  0.89169  0.01651  0.09996  1.0000
  C   C1779     1.0  0.79013  0.24559  0.07183  1.0000
  H   H3146     1.0  0.75590  0.07696  0.30880  1.0000
  H   H3147     1.0  0.89508  0.04697  0.18803  1.0000
  H   H3148     1.0  0.78980  0.26873  0.40714  1.0000
  H   H3149     1.0  0.94049  0.07691  0.46211  1.0000
  Fe  Fe198     1.0  0.75364  0.14710  0.46056  1.0000
  H   H3150     1.0  0.93782  0.05236  0.99023  1.0000
  H   H3151     1.0  0.80432  0.23644  0.03488  1.0000
  C   C1780     1.0  0.80368  0.05399  0.36582  1.0000
  H   H3152     1.0  0.87359  0.05282  0.09629  1.0000
  H   H3153     1.0  0.89662  0.04793  0.09057  1.0000
  H   H3154     1.0  0.88051  0.03899  0.06770  1.0000
  C   C1781     1.0  0.89886  0.09549  0.35194  1.0000
  H   H3155     1.0  0.81421  0.29358  0.09273  1.0000
  N   N97       1.0  0.75807  0.26940  0.37789  1.0000
  C   C1782     1.0  0.93268  0.05050  0.45779  1.0000
  H   H3156     1.0  0.89826  0.10996  0.35287  1.0000
  C   C1783     1.0  0.77985  0.28316  0.08303  1.0000
  N   N98       1.0  0.93731  0.08972  0.40616  1.0000
  C   C1784     1.0  0.93135  0.07295  0.41893  1.0000
  C   C1785     1.0  0.92737  0.09359  0.37938  1.0000
  C   C1786     1.0  0.95641  0.08706  0.39900  1.0000
  C   C1787     1.0  0.93562  0.10486  0.42614  1.0000
  C   C1788     1.0  0.91716  0.10901  0.43787  1.0000
  C   C1789     1.0  0.94100  0.06669  0.44577  1.0000
  H   H3157     1.0  0.98375  0.03299  0.42096  1.0000
  C   C1790     1.0  0.90812  0.08793  0.37768  1.0000
  H   H3158     1.0  0.80847  0.22368  0.06582  1.0000
  S   S406      1.0  0.76890  0.12545  0.99281  1.0000
  H   H3159     1.0  0.85309  0.01597  0.14486  1.0000
  H   H3160     1.0  0.93271  0.06222  0.40338  1.0000
  H   H3161     1.0  0.91726  0.07377  0.42402  1.0000
  H   H3162     1.0  0.90036  0.09187  0.39617  1.0000
  H   H3163     1.0  0.93388  0.08680  0.36141  1.0000
  H   H3164     1.0  0.95833  0.07498  0.38643  1.0000
  H   H3165     1.0  0.96448  0.08511  0.41811  1.0000
  H   H3166     1.0  0.94484  0.10302  0.44393  1.0000
  H   H3167     1.0  0.93965  0.11705  0.41585  1.0000
  H   H3168     1.0  0.91137  0.09742  0.44745  1.0000
  H   H3169     1.0  0.90846  0.11409  0.42103  1.0000
  C   C1791     1.0  0.75607  0.26385  0.09393  1.0000
  C   C1792     1.0  0.98356  0.09673  0.37408  1.0000
  C   C1793     1.0  0.90714  0.01025  0.16149  1.0000
  C   C1794     1.0  0.77676  0.10528  0.37767  1.0000
  H   H3170     1.0  0.90788  0.07354  0.37591  1.0000
  H   H3171     1.0  0.87093  0.04943  0.22283  1.0000
  C   C1795     1.0  0.75428  0.23605  0.36847  1.0000
  H   H3172     1.0  0.93052  0.99933  0.02414  1.0000
  S   S407      1.0  0.80083  0.31627  0.00074  1.0000
  C   C1796     1.0  0.74613  0.14701  0.38296  1.0000
  C   C1797     1.0  0.74615  0.14860  0.35380  1.0000
  C   C1798     1.0  0.93454  0.99627  0.14078  1.0000
  C   C1799     1.0  0.76235  0.21827  0.37656  1.0000
  H   H3173     1.0  0.78095  0.07104  0.33104  1.0000
  H   H3174     1.0  0.75266  0.28682  0.12145  1.0000
  H   H3175     1.0  0.76244  0.23849  0.99318  1.0000
  H   H3176     1.0  0.92764  0.10775  0.37440  1.0000
  H   H3177     1.0  0.79931  0.30492  0.38556  1.0000
  H   H3178     1.0  0.74808  0.20583  0.20079  1.0000
  H   H3179     1.0  0.95757  0.10542  0.36343  1.0000
  N   N99       1.0  0.76683  0.27102  0.07061  1.0000
  H   H3180     1.0  0.98499  0.00394  0.45013  1.0000
  C   C1800     1.0  0.78076  0.12397  0.32177  1.0000
  C   C1801     1.0  0.80644  0.30163  0.07769  1.0000
  H   H3181     1.0  0.76613  0.24638  0.04865  1.0000
  C   C1802     1.0  0.93383  0.04044  0.97907  1.0000
  H   H3182     1.0  0.80955  0.28428  0.37517  1.0000
  C   C1803     1.0  0.79204  0.13090  0.29835  1.0000
  H   H3183     1.0  0.75024  0.11048  0.34435  1.0000
  H   H3184     1.0  0.76426  0.10084  0.44725  1.0000
  H   H3185     1.0  0.93323  0.03963  0.44246  1.0000
  C   C1804     1.0  0.88219  0.02164  0.18799  1.0000
  H   H3186     1.0  0.77815  0.24967  0.36802  1.0000
  C   C1805     1.0  0.88368  0.04302  0.22838  1.0000
  H   H3187     1.0  0.74761  0.25339  0.08605  1.0000
  C   C1806     1.0  0.75578  0.09699  0.34184  1.0000
  C   C1807     1.0  0.79322  0.29054  0.06244  1.0000
  H   H3188     1.0  0.77147  0.11892  0.37623  1.0000
  C   C1808     1.0  0.77912  0.22733  0.47213  1.0000
  C   C1809     1.0  0.96492  0.10202  0.38271  1.0000
  C   C1810     1.0  0.75132  0.14603  0.09502  1.0000
  H   H3189     1.0  0.80084  0.25407  0.07840  1.0000
  H   H3190     1.0  0.77602  0.21685  0.36902  1.0000
  H   H3191     1.0  0.91770  0.01480  0.11990  1.0000
  H   H3192     1.0  0.75696  0.27271  0.42270  1.0000
  H   H3193     1.0  0.80931  0.07975  0.35263  1.0000
  H   H3194     1.0  0.75705  0.15450  0.34366  1.0000
  C   C1811     1.0  0.89294  0.03592  0.20235  1.0000
  H   H3195     1.0  0.77100  0.08313  0.40542  1.0000
  H   H3196     1.0  0.77089  0.27146  0.46718  1.0000
  C   C1812     1.0  0.88904  0.00430  0.47402  1.0000
  H   H3197     1.0  0.79418  0.04704  0.37882  1.0000
  H   H3198     1.0  0.76700  0.12527  0.31479  1.0000
  H   H3199     1.0  0.79079  0.10655  0.38305  1.0000
  H   H3200     1.0  0.81549  0.30727  0.06237  1.0000
  H   H3201     1.0  0.94654  0.02385  0.00929  1.0000
  C   C1813     1.0  0.99313  0.04612  0.35539  1.0000
  H   H3202     1.0  0.75786  0.09883  0.29598  1.0000
  H   H3203     1.0  0.88073  0.99581  0.12973  1.0000
  H   H3204     1.0  0.76213  0.28383  0.32082  1.0000
  H   H3205     1.0  0.92027  0.03755  0.98529  1.0000
  H   H3206     1.0  0.90872  0.99970  0.27230  1.0000
  C   C1814     1.0  0.77529  0.23594  0.98456  1.0000
  S   S408      1.0  0.81642  0.12310  0.47321  1.0000
  Fe  Fe199     1.0  0.77409  0.17917  0.47453  1.0000
  C   C1815     1.0  0.74836  0.27438  0.40419  1.0000
  H   H3207     1.0  0.99168  0.09327  0.39261  1.0000
  H   H3208     1.0  0.91884  0.05339  0.46349  1.0000
  Fe  Fe200     1.0  0.79205  0.14191  0.47621  1.0000
  H   H3209     1.0  0.75844  0.24307  0.45346  1.0000
  H   H3210     1.0  0.76411  0.26040  0.32234  1.0000
  C   C1816     1.0  0.74601  0.27234  0.35327  1.0000
  H   H3211     1.0  0.78591  0.10476  0.43461  1.0000
  C   C1817     1.0  0.75483  0.27174  0.32422  1.0000
  S   S409      1.0  0.75896  0.31483  0.98731  1.0000
  H   H3212     1.0  0.75214  0.19689  0.29123  1.0000
  H   H3213     1.0  0.76825  0.12050  0.42826  1.0000
  H   H3214     1.0  0.77383  0.20795  0.98877  1.0000
  H   H3215     1.0  0.90878  0.99985  0.17759  1.0000
  C   C1818     1.0  0.75151  0.09074  0.31189  1.0000
  C   C1819     1.0  0.84186  0.32568  0.40104  1.0000
  H   H3216     1.0  0.93986  0.04619  0.47683  1.0000
  C   C1820     1.0  0.85748  0.00314  0.15341  1.0000
  H   H3217     1.0  0.82333  0.32414  0.36770  1.0000
  H   H3218     1.0  0.75095  0.29375  0.05888  1.0000
  H   H3219     1.0  0.96407  0.99952  0.01603  1.0000
  H   H3220     1.0  0.81530  0.06793  0.47723  1.0000
  H   H3221     1.0  0.95956  0.02875  0.97928  1.0000
  H   H3222     1.0  0.92703  0.00569  0.97859  1.0000
  H   H3223     1.0  0.92580  0.11864  0.47828  1.0000
  H   H3224     1.0  0.95147  0.99750  0.06388  1.0000
  Fe  Fe201     1.0  0.89596  0.00483  0.89798  1.0000
  S   S410      1.0  0.90552  0.02951  0.91680  1.0000
  C   C1821     1.0  0.75430  0.32242  0.84502  1.0000
  Fe  Fe202     1.0  0.90179  0.01670  0.83723  1.0000
  S   S411      1.0  0.91162  0.04250  0.85293  1.0000
  S   S412      1.0  0.90482  0.01215  0.78951  1.0000
  Fe  Fe203     1.0  0.92709  0.02710  0.88493  1.0000
  S   S413      1.0  0.95553  0.02585  0.90014  1.0000
  Fe  Fe204     1.0  0.88907  0.04302  0.88366  1.0000
  S   S414      1.0  0.87285  0.06888  0.88961  1.0000
  C   C1822     1.0  0.74994  0.19755  0.90280  1.0000
  S   S415      1.0  0.87830  0.01815  0.86596  1.0000
  C   C1823     1.0  0.74602  0.15003  0.59680  1.0000
  H   H3225     1.0  0.97414  0.02069  0.75652  1.0000
  H   H3226     1.0  0.83777  0.13652  0.56002  1.0000
  H   H3227     1.0  0.80943  0.31251  0.87626  1.0000
  S   S416      1.0  0.76388  0.31367  0.49435  1.0000
  H   H3228     1.0  0.83037  0.08061  0.61865  1.0000
  Fe  Fe205     1.0  0.76484  0.15358  0.52186  1.0000
  S   S417      1.0  0.76196  0.15307  0.57003  1.0000
  Fe  Fe206     1.0  0.76212  0.14637  0.96124  1.0000
  H   H3229     1.0  0.95493  0.02731  0.82987  1.0000
  S   S418      1.0  0.79026  0.16455  0.50692  1.0000
  S   S419      1.0  0.78921  0.14763  0.94436  1.0000
  H   H3230     1.0  0.97693  0.01638  0.50982  1.0000
  H   H3231     1.0  0.75668  0.22591  0.56120  1.0000
  Fe  Fe207     1.0  0.79255  0.16841  0.97713  1.0000
  H   H3232     1.0  0.78083  0.24530  0.91699  1.0000
  H   H3233     1.0  0.77174  0.25891  0.88985  1.0000
  C   C1824     1.0  0.75121  0.15104  0.62498  1.0000
  Fe  Fe208     1.0  0.79678  0.12806  0.97752  1.0000
  H   H3234     1.0  0.92917  0.05133  0.79438  1.0000
  C   C1825     1.0  0.96243  0.99447  0.81046  1.0000
  C   C1826     1.0  0.77643  0.21335  0.88878  1.0000
  H   H3235     1.0  0.75458  0.23231  0.89745  1.0000
  H   H3236     1.0  0.94146  0.01959  0.75433  1.0000
  H   H3237     1.0  0.83211  0.08749  0.55561  1.0000
  H   H3238     1.0  0.75826  0.17815  0.70800  1.0000
  N   N100      1.0  0.76564  0.19753  0.88388  1.0000
  H   H3239     1.0  0.75831  0.21444  0.93717  1.0000
  H   H3240     1.0  0.77343  0.11802  0.55097  1.0000
  H   H3241     1.0  0.80209  0.07836  0.57761  1.0000
  H   H3242     1.0  0.80064  0.18820  0.86687  1.0000
  H   H3243     1.0  0.94240  0.99669  0.76191  1.0000
  H   H3244     1.0  0.77129  0.07502  0.89708  1.0000
  C   C1827     1.0  0.99124  0.02553  0.89538  1.0000
  H   H3245     1.0  0.83020  0.06416  0.59149  1.0000
  H   H3246     1.0  0.80346  0.09720  0.59870  1.0000
  S   S420      1.0  0.91833  0.00151  0.86806  1.0000
  H   H3247     1.0  0.76691  0.25156  0.53491  1.0000
  C   C1828     1.0  0.85755  0.07837  0.91411  1.0000
  C   C1829     1.0  0.85049  0.06898  0.93615  1.0000
  C   C1830     1.0  0.83735  0.07674  0.95335  1.0000
  C   C1831     1.0  0.83102  0.09401  0.94896  1.0000
  C   C1832     1.0  0.83842  0.10354  0.92739  1.0000
  C   C1833     1.0  0.85159  0.09579  0.91028  1.0000
  H   H3248     1.0  0.85491  0.05563  0.93964  1.0000
  C   C1834     1.0  0.75288  0.13025  0.85657  1.0000
  H   H3249     1.0  0.83393  0.11686  0.92380  1.0000
  H   H3250     1.0  0.85712  0.10331  0.89367  1.0000
  C   C1835     1.0  0.97595  0.04717  0.86725  1.0000
  C   C1836     1.0  0.97541  0.03339  0.88622  1.0000
  H   H3251     1.0  0.79459  0.14976  0.88045  1.0000
  H   H3252     1.0  0.96393  0.05367  0.86057  1.0000
  C   C1837     1.0  0.98549  0.01657  0.80732  1.0000
  H   H3253     1.0  0.94365  0.06929  0.79167  1.0000
  C   C1838     1.0  0.77073  0.09442  0.92915  1.0000
  H   H3254     1.0  0.81505  0.07185  0.52809  1.0000
  H   H3255     1.0  0.75657  0.18206  0.80111  1.0000
  H   H3256     1.0  0.81304  0.12666  0.58905  1.0000
  C   C1839     1.0  0.78719  0.28276  0.57451  1.0000
  C   C1840     1.0  0.97403  0.01519  0.48722  1.0000
  C   C1841     1.0  0.95449  0.02557  0.80688  1.0000
  H   H3257     1.0  0.88326  0.01505  0.51469  1.0000
  C   C1842     1.0  0.83456  0.07739  0.59705  1.0000
  C   C1843     1.0  0.79089  0.30251  0.57506  1.0000
  H   H3258     1.0  0.76166  0.08875  0.55718  1.0000
  C   C1844     1.0  0.75341  0.13481  0.88503  1.0000
  H   H3259     1.0  0.79099  0.24550  0.88304  1.0000
  C   C1845     1.0  0.95692  0.04391  0.79406  1.0000
  H   H3260     1.0  0.79280  0.27762  0.55465  1.0000
  H   H3261     1.0  0.79516  0.27623  0.59113  1.0000
  H   H3262     1.0  0.94131  0.05848  0.82458  1.0000
  C   C1846     1.0  0.80813  0.22903  0.96162  1.0000
  C   C1847     1.0  0.96966  0.99508  0.96253  1.0000
  H   H3263     1.0  0.81273  0.31969  0.57289  1.0000
  H   H3264     1.0  0.83210  0.31446  0.86721  1.0000
  H   H3265     1.0  0.76365  0.19166  0.94226  1.0000
  H   H3266     1.0  0.84905  0.07724  0.59633  1.0000
  H   H3267     1.0  0.78800  0.24919  0.55118  1.0000
  H   H3268     1.0  0.76510  0.07289  0.79786  1.0000
  H   H3269     1.0  0.78254  0.28689  0.63012  1.0000
  C   C1848     1.0  0.75971  0.28678  0.60174  1.0000
  H   H3270     1.0  0.77547  0.25406  0.59781  1.0000
  H   H3271     1.0  0.76802  0.26928  0.63593  1.0000
  N   N101      1.0  0.79746  0.10249  0.55523  1.0000
  C   C1849     1.0  0.99217  0.05299  0.85768  1.0000
  C   C1850     1.0  0.78016  0.10940  0.56657  1.0000
  H   H3272     1.0  0.78432  0.30932  0.55738  1.0000
  C   C1851     1.0  0.80935  0.08254  0.51502  1.0000
  C   C1852     1.0  0.75955  0.29388  0.65334  1.0000
  H   H3273     1.0  0.97684  0.00545  0.97345  1.0000
  H   H3274     1.0  0.80946  0.16400  0.89827  1.0000
  H   H3275     1.0  0.77800  0.22341  0.57753  1.0000
  H   H3276     1.0  0.76461  0.15383  0.62990  1.0000
  H   H3277     1.0  0.83188  0.06919  0.96999  1.0000
  H   H3278     1.0  0.74604  0.28257  0.60395  1.0000
  H   H3279     1.0  0.76458  0.13106  0.89772  1.0000
  C   C1853     1.0  0.80187  0.24379  0.49459  1.0000
  H   H3280     1.0  0.97589  0.99787  0.76056  1.0000
  N   N102      1.0  0.79928  0.08512  0.86262  1.0000
  C   C1854     1.0  0.80349  0.06593  0.86675  1.0000
  C   C1855     1.0  0.78682  0.08722  0.83833  1.0000
  C   C1856     1.0  0.81603  0.09369  0.85469  1.0000
  C   C1857     1.0  0.79197  0.09402  0.88848  1.0000
  C   C1858     1.0  0.78085  0.08292  0.90832  1.0000
  C   C1859     1.0  0.81869  0.06158  0.88721  1.0000
  C   C1860     1.0  0.81429  0.11312  0.84579  1.0000
  C   C1861     1.0  0.76858  0.07945  0.84179  1.0000
  H   H3281     1.0  0.81302  0.15829  0.86233  1.0000
  H   H3282     1.0  0.81412  0.24392  0.50585  1.0000
  C   C1862     1.0  0.81894  0.04249  0.89622  1.0000
  C   C1863     1.0  0.83204  0.12164  0.84563  1.0000
  H   H3283     1.0  0.80711  0.05968  0.84649  1.0000
  H   H3284     1.0  0.79194  0.05892  0.87389  1.0000
  H   H3285     1.0  0.78414  0.10121  0.83363  1.0000
  H   H3286     1.0  0.79294  0.08153  0.81915  1.0000
  H   H3287     1.0  0.82269  0.08639  0.83739  1.0000
  H   H3288     1.0  0.82537  0.09314  0.87244  1.0000
  H   H3289     1.0  0.80267  0.09905  0.90179  1.0000
  H   H3290     1.0  0.78402  0.10584  0.88255  1.0000
  H   H3291     1.0  0.78949  0.07383  0.92048  1.0000
  N   N103      1.0  0.76826  0.27814  0.57678  1.0000
  H   H3292     1.0  0.83140  0.06391  0.87699  1.0000
  H   H3293     1.0  0.81771  0.06988  0.90604  1.0000
  H   H3294     1.0  0.80559  0.12073  0.86005  1.0000
  H   H3295     1.0  0.80891  0.11412  0.82431  1.0000
  H   H3296     1.0  0.76945  0.06555  0.84794  1.0000
  H   H3297     1.0  0.78763  0.21339  0.87416  1.0000
  C   C1864     1.0  0.77832  0.24612  0.89426  1.0000
  H   H3298     1.0  0.82607  0.15477  0.57581  1.0000
  C   C1865     1.0  0.76699  0.09555  0.57561  1.0000
  S   S421      1.0  0.80593  0.19329  0.96392  1.0000
  H   H3299     1.0  0.93871  0.00265  0.71136  1.0000
  C   C1866     1.0  0.81044  0.30548  0.57265  1.0000
  H   H3300     1.0  0.83041  0.03978  0.90995  1.0000
  H   H3301     1.0  0.80693  0.03966  0.90805  1.0000
  H   H3302     1.0  0.82003  0.03375  0.87778  1.0000
  H   H3303     1.0  0.84160  0.11386  0.83295  1.0000
  H   H3304     1.0  0.83069  0.13491  0.83656  1.0000
  H   H3305     1.0  0.83712  0.12284  0.86722  1.0000
  C   C1867     1.0  0.96771  0.00952  0.76655  1.0000
  C   C1868     1.0  0.94180  0.05645  0.80169  1.0000
  H   H3306     1.0  0.83252  0.10366  0.58227  1.0000
  H   H3307     1.0  0.99266  0.00174  0.58895  1.0000
  H   H3308     1.0  0.75561  0.11114  0.60961  1.0000
  H   H3309     1.0  0.78225  0.11777  0.58518  1.0000
  S   S422      1.0  0.74878  0.16917  0.49081  1.0000
  S   S423      1.0  0.78726  0.31697  0.93626  1.0000
  C   C1869     1.0  0.82709  0.09092  0.57653  1.0000
  H   H3310     1.0  0.96765  0.00020  0.94106  1.0000
  C   C1870     1.0  0.80283  0.16130  0.87815  1.0000
  C   C1871     1.0  0.82082  0.32104  0.87779  1.0000
  H   H3311     1.0  0.75632  0.16925  0.84878  1.0000
  H   H3312     1.0  0.95756  0.04340  0.77102  1.0000
  C   C1872     1.0  0.80380  0.07445  0.48736  1.0000
  C   C1873     1.0  0.80681  0.09193  0.57763  1.0000
  S   S424      1.0  0.76749  0.13037  0.49293  1.0000
  H   H3313     1.0  0.79821  0.14069  0.56993  1.0000
  H   H3314     1.0  0.78259  0.21286  0.90988  1.0000
  H   H3315     1.0  0.81959  0.09186  0.51023  1.0000
  H   H3316     1.0  0.96907  0.04965  0.80202  1.0000
  C   C1874     1.0  0.76866  0.28326  0.63029  1.0000
  H   H3317     1.0  0.77961  0.10333  0.94007  1.0000
  H   H3318     1.0  0.74548  0.29090  0.65450  1.0000
  H   H3319     1.0  0.91035  0.01235  0.73022  1.0000
  H   H3320     1.0  0.76032  0.10226  0.91839  1.0000
  C   C1875     1.0  0.76735  0.25863  0.57983  1.0000
  C   C1876     1.0  0.95174  0.00334  0.72140  1.0000
  C   C1877     1.0  0.81025  0.13230  0.56820  1.0000
  H   H3321     1.0  0.75091  0.29429  0.90664  1.0000
  H   H3322     1.0  0.82051  0.11393  0.53749  1.0000
  C   C1878     1.0  0.77692  0.18147  0.89009  1.0000
  H   H3323     1.0  0.78636  0.30878  0.59470  1.0000
  C   C1879     1.0  0.79176  0.17718  0.86893  1.0000
  H   H3324     1.0  0.76572  0.29076  0.67377  1.0000
  H   H3325     1.0  0.80073  0.12454  0.52801  1.0000
  C   C1880     1.0  0.77379  0.24767  0.55438  1.0000
  C   C1881     1.0  0.75482  0.32592  0.87379  1.0000
  C   C1882     1.0  0.80754  0.11798  0.54586  1.0000
  H   H3326     1.0  0.75049  0.20920  0.85024  1.0000
  C   C1883     1.0  0.80192  0.24645  0.96485  1.0000
  H   H3327     1.0  0.96183  0.00791  0.48477  1.0000
  C   C1884     1.0  0.82515  0.14407  0.56032  1.0000
  H   H3328     1.0  0.77047  0.19923  0.83948  1.0000
  C   C1885     1.0  0.76675  0.23131  0.88507  1.0000
  C   C1886     1.0  0.89055  0.99814  0.97567  1.0000
  H   H3329     1.0  0.95909  0.01365  0.71083  1.0000
  Fe  Fe209     1.0  0.79194  0.30674  0.48625  1.0000
  H   H3330     1.0  0.81765  0.29935  0.59040  1.0000
  H   H3331     1.0  0.93956  0.01109  0.94936  1.0000
  H   H3332     1.0  0.78639  0.17416  0.84805  1.0000
  H   H3333     1.0  0.78326  0.18271  0.91090  1.0000
  H   H3334     1.0  0.95671  0.00257  0.85349  1.0000
  H   H3335     1.0  0.76884  0.16973  0.89189  1.0000
  C   C1887     1.0  0.78532  0.24996  0.97595  1.0000
  H   H3336     1.0  0.80979  0.25709  0.95815  1.0000
  H   H3337     1.0  0.78595  0.09922  0.51450  1.0000
  Fe  Fe210     1.0  0.78337  0.29998  0.97401  1.0000
  H   H3338     1.0  0.88833  0.01015  0.96425  1.0000
  C   C1888     1.0  0.75935  0.19768  0.85405  1.0000
  H   H3339     1.0  0.76475  0.31470  0.83550  1.0000
  H   H3340     1.0  0.94092  0.02156  0.80249  1.0000
  H   H3341     1.0  0.99101  0.01513  0.91042  1.0000
  H   H3342     1.0  0.75805  0.29899  0.55067  1.0000
  H   H3343     1.0  0.81561  0.29996  0.55276  1.0000
  H   H3344     1.0  0.82426  0.32281  0.90008  1.0000
  C   C1889     1.0  0.79356  0.09135  0.53011  1.0000
  C   C1890     1.0  0.94964  0.00744  0.75242  1.0000
  C   C1891     1.0  0.75136  0.10402  0.59071  1.0000
  H   H3345     1.0  0.76096  0.08703  0.85761  1.0000
  H   H3346     1.0  0.76453  0.08616  0.94501  1.0000
  H   H3347     1.0  0.76557  0.32084  0.88624  1.0000
  C   C1892     1.0  0.74939  0.18984  0.70974  1.0000
  N   N104      1.0  0.96755  0.01155  0.79782  1.0000
  H   H3348     1.0  0.76373  0.12306  0.84735  1.0000
  H   H3349     1.0  0.77565  0.22076  0.54042  1.0000
  H   H3350     1.0  0.74725  0.28000  0.83903  1.0000
  H   H3351     1.0  0.98546  0.01977  0.82993  1.0000
  H   H3352     1.0  0.78524  0.08037  0.53588  1.0000
  C   C1893     1.0  0.79801  0.21499  0.96999  1.0000
  H   H3353     1.0  0.82276  0.14992  0.53944  1.0000
  H   H3354     1.0  0.77320  0.08576  0.58979  1.0000
  H   H3355     1.0  0.76633  0.28076  0.53185  1.0000
  H   H3356     1.0  0.80147  0.21558  0.49284  1.0000
  H   H3357     1.0  0.76075  0.30806  0.64946  1.0000
  H   H3358     1.0  0.75732  0.20167  0.70866  1.0000
  H   H3359     1.0  0.98936  0.02879  0.79696  1.0000
  S   S425      1.0  0.80319  0.27958  0.49616  1.0000
  H   H3360     1.0  0.75763  0.26760  0.79483  1.0000
  C   C1894     1.0  0.89938  0.99681  0.76267  1.0000
  C   C1895     1.0  0.88794  0.00366  0.50331  1.0000
  C   C1896     1.0  0.75881  0.28450  0.55092  1.0000
  C   C1897     1.0  0.94063  0.00818  0.97201  1.0000
  H   H3361     1.0  0.75651  0.09428  0.80765  1.0000
  C   C1898     1.0  0.75363  0.20107  0.93403  1.0000
  S   S426      1.0  0.81343  0.10257  0.97021  1.0000
  C   C1899     1.0  0.75827  0.08052  0.81450  1.0000
  H   H3362     1.0  0.76338  0.23353  0.86282  1.0000
  H   H3363     1.0  0.82084  0.22640  0.95249  1.0000
  C   C1900     1.0  0.79345  0.25967  0.48707  1.0000
  H   H3364     1.0  0.97870  0.99430  0.84880  1.0000
  C   C1901     1.0  0.77081  0.22828  0.55881  1.0000
  H   H3365     1.0  0.99247  0.06386  0.84339  1.0000
  H   H3366     1.0  0.75855  0.30113  0.59876  1.0000
  C   C1902     1.0  0.74892  0.18166  0.84489  1.0000
  C   C1903     1.0  0.79470  0.22769  0.48732  1.0000
  H   H3367     1.0  0.93413  0.04310  0.95632  1.0000
  H   H3368     1.0  0.98756  0.99522  0.63873  1.0000
  H   H3369     1.0  0.75149  0.27515  0.92822  1.0000
  H   H3370     1.0  0.75383  0.25491  0.58502  1.0000
  H   H3371     1.0  0.79371  0.06463  0.49074  1.0000
  C   C1904     1.0  0.90403  0.00032  0.73486  1.0000
  H   H3372     1.0  0.84354  0.09616  0.47841  1.0000
  Fe  Fe211     1.0  0.79256  0.63051  0.00541  1.0000
  H   H3373     1.0  0.96249  0.52262  0.04791  1.0000
  S   S427      1.0  0.80664  0.60649  0.02631  1.0000
  Fe  Fe212     1.0  0.77263  0.64557  0.45429  1.0000
  S   S428      1.0  0.82525  0.35937  0.45598  1.0000
  C   C1905     1.0  0.98985  0.41838  0.36565  1.0000
  H   H3374     1.0  0.86648  0.61212  0.24572  1.0000
  N   N105      1.0  0.96544  0.50055  0.02030  1.0000
  H   H3375     1.0  0.79035  0.33435  0.29180  1.0000
  Fe  Fe213     1.0  0.89329  0.52329  0.14176  1.0000
  S   S429      1.0  0.90903  0.54661  0.13032  1.0000
  S   S430      1.0  0.88389  0.52095  0.18726  1.0000
  Fe  Fe214     1.0  0.89325  0.51087  0.08031  1.0000
  S   S431      1.0  0.90906  0.53304  0.06566  1.0000
  S   S432      1.0  0.88380  0.49012  0.05059  1.0000
  Fe  Fe215     1.0  0.92538  0.52790  0.10417  1.0000
  S   S433      1.0  0.95439  0.51985  0.10467  1.0000
  Fe  Fe216     1.0  0.89097  0.54965  0.09270  1.0000
  S   S434      1.0  0.87986  0.57601  0.07572  1.0000
  S   S435      1.0  0.91032  0.50456  0.11732  1.0000
  S   S436      1.0  0.87441  0.52754  0.10566  1.0000
  Fe  Fe217     1.0  0.89866  0.46255  0.33436  1.0000
  S   S437      1.0  0.90476  0.43483  0.34887  1.0000
  S   S438      1.0  0.90393  0.46796  0.28765  1.0000
  Fe  Fe218     1.0  0.89260  0.47472  0.39552  1.0000
  S   S439      1.0  0.89830  0.44810  0.41282  1.0000
  S   S440      1.0  0.88786  0.49819  0.42414  1.0000
  Fe  Fe219     1.0  0.92096  0.44713  0.38273  1.0000
  S   S441      1.0  0.94827  0.44406  0.40213  1.0000
  Fe  Fe220     1.0  0.88153  0.43825  0.37803  1.0000
  S   S442      1.0  0.85687  0.42200  0.38496  1.0000
  S   S443      1.0  0.91580  0.47431  0.36708  1.0000
  S   S444      1.0  0.87470  0.46536  0.36160  1.0000
  C   C1906     1.0  0.91076  0.55363  0.99018  1.0000
  H   H3376     1.0  0.86291  0.57418  0.42491  1.0000
  H   H3377     1.0  0.76973  0.56231  0.10488  1.0000
  H   H3378     1.0  0.92542  0.46202  0.44840  1.0000
  C   C1907     1.0  0.89852  0.59365  0.15447  1.0000
  H   H3379     1.0  0.84412  0.34691  0.35572  1.0000
  H   H3380     1.0  0.80930  0.34088  0.27233  1.0000
  C   C1908     1.0  0.95888  0.55130  0.01839  1.0000
  H   H3381     1.0  0.75310  0.33178  0.15834  1.0000
  H   H3382     1.0  0.86044  0.36795  0.44200  1.0000
  H   H3383     1.0  0.89803  0.60532  0.16807  1.0000
  C   C1909     1.0  0.84863  0.40500  0.40629  1.0000
  C   C1910     1.0  0.83047  0.40442  0.41069  1.0000
  C   C1911     1.0  0.82311  0.39085  0.42620  1.0000
  C   C1912     1.0  0.83379  0.37747  0.43747  1.0000
  C   C1913     1.0  0.85198  0.37818  0.43343  1.0000
  C   C1914     1.0  0.85934  0.39174  0.41785  1.0000
  H   H3384     1.0  0.82199  0.41454  0.40183  1.0000
  H   H3385     1.0  0.80914  0.39069  0.42926  1.0000
  H   H3386     1.0  0.88278  0.57919  0.23225  1.0000
  H   H3387     1.0  0.87329  0.39178  0.41448  1.0000
  C   C1915     1.0  0.98364  0.44856  0.39693  1.0000
  C   C1916     1.0  0.96939  0.43862  0.38871  1.0000
  C   C1917     1.0  0.97259  0.42357  0.37280  1.0000
  H   H3388     1.0  0.98138  0.46001  0.40975  1.0000
  H   H3389     1.0  0.96187  0.41546  0.36712  1.0000
  C   C1918     1.0  0.89073  0.48911  0.01549  1.0000
  C   C1919     1.0  0.76127  0.33354  0.11518  1.0000
  C   C1920     1.0  0.87804  0.54593  0.39901  1.0000
  C   C1921     1.0  0.88816  0.49537  0.46075  1.0000
  S   S445      1.0  0.76875  0.64418  0.40631  1.0000
  C   C1922     1.0  0.90305  0.50040  0.00502  1.0000
  H   H3390     1.0  0.87383  0.46816  0.00544  1.0000
  H   H3391     1.0  0.88764  0.46751  0.45944  1.0000
  H   H3392     1.0  0.86147  0.60990  0.17644  1.0000
  H   H3393     1.0  0.90893  0.50972  0.01866  1.0000
  C   C1923     1.0  0.88986  0.50615  0.21495  1.0000
  C   C1924     1.0  0.90147  0.49186  0.21116  1.0000
  C   C1925     1.0  0.90548  0.48039  0.23354  1.0000
  C   C1926     1.0  0.89815  0.48302  0.26022  1.0000
  C   C1927     1.0  0.88667  0.49741  0.26409  1.0000
  C   C1928     1.0  0.88252  0.50880  0.24163  1.0000
  H   H3394     1.0  0.90718  0.48949  0.19087  1.0000
  H   H3395     1.0  0.91421  0.46925  0.23001  1.0000
  H   H3396     1.0  0.88085  0.49968  0.28432  1.0000
  H   H3397     1.0  0.87344  0.51968  0.24495  1.0000
  H   H3398     1.0  0.74723  0.64252  0.30915  1.0000
  C   C1929     1.0  0.97453  0.53042  0.10132  1.0000
  C   C1930     1.0  0.97559  0.54855  0.10004  1.0000
  C   C1931     1.0  0.74940  0.32986  0.13682  1.0000
  H   H3399     1.0  0.96379  0.55667  0.10077  1.0000
  H   H3400     1.0  0.82123  0.54057  0.46576  1.0000
  Fe  Fe221     1.0  0.80058  0.34480  0.46948  1.0000
  H   H3401     1.0  0.85604  0.47290  0.44126  1.0000
  H   H3402     1.0  0.84181  0.62114  0.03098  1.0000
  H   H3403     1.0  0.84742  0.55814  0.41878  1.0000
  H   H3404     1.0  0.86174  0.41412  0.46045  1.0000
  H   H3405     1.0  0.99189  0.47298  0.01748  1.0000
  C   C1932     1.0  0.82699  0.59875  0.04119  1.0000
  C   C1933     1.0  0.82794  0.58210  0.05366  1.0000
  C   C1934     1.0  0.84380  0.57505  0.06476  1.0000
  C   C1935     1.0  0.85912  0.58448  0.06335  1.0000
  C   C1936     1.0  0.85810  0.60124  0.05135  1.0000
  C   C1937     1.0  0.84221  0.60834  0.04041  1.0000
  H   H3406     1.0  0.81637  0.57445  0.05427  1.0000
  H   H3407     1.0  0.84423  0.56218  0.07393  1.0000
  H   H3408     1.0  0.86976  0.60877  0.05017  1.0000
  N   N106      1.0  0.85980  0.55074  0.98703  1.0000
  H   H3409     1.0  0.87819  0.60365  0.19993  1.0000
  H   H3410     1.0  0.88475  0.55862  0.17696  1.0000
  S   S446      1.0  0.78339  0.65490  0.02853  1.0000
  H   H3411     1.0  0.86748  0.55993  0.20101  1.0000
  S   S447      1.0  0.80052  0.64869  0.46906  1.0000
  H   H3412     1.0  0.84600  0.33487  0.41752  1.0000
  C   C1938     1.0  0.85208  0.56076  0.14347  1.0000
  C   C1939     1.0  0.83339  0.57415  0.45992  1.0000
  C   C1940     1.0  0.83367  0.55477  0.13707  1.0000
  C   C1941     1.0  0.85165  0.57680  0.16322  1.0000
  C   C1942     1.0  0.89020  0.57312  0.21474  1.0000
  H   H3413     1.0  0.84320  0.61205  0.25084  1.0000
  H   H3414     1.0  0.95599  0.53201  0.98632  1.0000
  N   N107      1.0  0.77172  0.59949  0.09838  1.0000
  C   C1943     1.0  0.82707  0.33389  0.38353  1.0000
  C   C1944     1.0  0.77191  0.59581  0.12925  1.0000
  C   C1945     1.0  0.78079  0.61613  0.09182  1.0000
  C   C1946     1.0  0.78128  0.58465  0.08367  1.0000
  N   N108      1.0  0.88175  0.40812  0.98661  1.0000
  H   H3415     1.0  0.77010  0.33857  0.38939  1.0000
  C   C1947     1.0  0.79965  0.61749  0.10329  1.0000
  H   H3416     1.0  0.84435  0.52717  0.06310  1.0000
  H   H3417     1.0  0.96154  0.56151  0.00275  1.0000
  C   C1948     1.0  0.78342  0.55296  0.06862  1.0000
  H   H3418     1.0  0.98955  0.50488  0.99795  1.0000
  H   H3419     1.0  0.80668  0.33815  0.33621  1.0000
  H   H3420     1.0  0.76414  0.58418  0.13382  1.0000
  C   C1949     1.0  0.76021  0.33652  0.34716  1.0000
  C   C1950     1.0  0.74652  0.33103  0.33003  1.0000
  H   H3421     1.0  0.78539  0.59231  0.13651  1.0000
  H   H3422     1.0  0.77302  0.62760  0.09942  1.0000
  H   H3423     1.0  0.78156  0.61800  0.06887  1.0000
  H   H3424     1.0  0.78408  0.58815  0.06170  1.0000
  H   H3425     1.0  0.79435  0.58219  0.09331  1.0000
  H   H3426     1.0  0.81582  0.33638  0.39763  1.0000
  H   H3427     1.0  0.88378  0.44378  0.05144  1.0000
  C   C1951     1.0  0.85803  0.56179  0.43339  1.0000
  C   C1952     1.0  0.87844  0.37608  0.00275  1.0000
  H   H3428     1.0  0.80829  0.60680  0.09513  1.0000
  H   H3429     1.0  0.79986  0.61698  0.12637  1.0000
  H   H3430     1.0  0.83271  0.46980  0.44174  1.0000
  H   H3431     1.0  0.94368  0.49705  0.99227  1.0000
  C   C1953     1.0  0.87304  0.54798  0.42968  1.0000
  C   C1954     1.0  0.86594  0.59908  0.19051  1.0000
  C   C1955     1.0  0.90732  0.59883  0.12731  1.0000
  H   H3432     1.0  0.95915  0.46656  0.99881  1.0000
  H   H3433     1.0  0.80848  0.63542  0.07153  1.0000
  C   C1956     1.0  0.88775  0.47882  0.47269  1.0000
  H   H3434     1.0  0.96703  0.55365  0.03715  1.0000
  H   H3435     1.0  0.82090  0.63551  0.10338  1.0000
  H   H3436     1.0  0.93369  0.48211  0.02843  1.0000
  C   C1957     1.0  0.80753  0.63467  0.09459  1.0000
  H   H3437     1.0  0.76977  0.64474  0.34633  1.0000
  H   H3438     1.0  0.90911  0.58734  0.11336  1.0000
  H   H3439     1.0  0.86117  0.44067  0.43896  1.0000
  H   H3440     1.0  0.85350  0.58544  0.22550  1.0000
  H   H3441     1.0  0.94151  0.46083  0.06565  1.0000
  S   S448      1.0  0.74699  0.33548  0.29386  1.0000
  H   H3442     1.0  0.88137  0.37852  0.02504  1.0000
  C   C1958     1.0  0.89652  0.41373  0.46559  1.0000
  C   C1959     1.0  0.97246  0.53868  0.17990  1.0000
  C   C1960     1.0  0.85754  0.54110  0.01412  1.0000
  C   C1961     1.0  0.88590  0.41464  0.01545  1.0000
  C   C1962     1.0  0.89727  0.43101  0.01661  1.0000
  H   H3443     1.0  0.97748  0.53282  0.00136  1.0000
  H   H3444     1.0  0.93539  0.44238  0.46261  1.0000
  H   H3445     1.0  0.75953  0.65382  0.13091  1.0000
  H   H3446     1.0  0.92038  0.60401  0.13189  1.0000
  C   C1963     1.0  0.89720  0.43917  0.04567  1.0000
  H   H3447     1.0  0.89938  0.60907  0.11629  1.0000
  H   H3448     1.0  0.89986  0.58256  0.20790  1.0000
  H   H3449     1.0  0.88361  0.43854  0.47220  1.0000
  H   H3450     1.0  0.76038  0.61644  0.19202  1.0000
  H   H3451     1.0  0.96542  0.47534  0.04095  1.0000
  C   C1964     1.0  0.77621  0.38218  0.38528  1.0000
  H   H3452     1.0  0.92185  0.47335  0.07381  1.0000
  H   H3453     1.0  0.94200  0.47844  0.09092  1.0000
  H   H3454     1.0  0.87367  0.41721  0.02748  1.0000
  H   H3455     1.0  0.89322  0.40442  0.02751  1.0000
  H   H3456     1.0  0.89266  0.44118  0.00183  1.0000
  H   H3457     1.0  0.91101  0.42738  0.01124  1.0000
  H   H3458     1.0  0.83215  0.53035  0.00193  1.0000
  H   H3459     1.0  0.85208  0.62568  0.22420  1.0000
  C   C1965     1.0  0.76599  0.60566  0.17900  1.0000
  H   H3460     1.0  0.95502  0.46651  0.46792  1.0000
  H   H3461     1.0  0.86916  0.53497  0.43688  1.0000
  C   C1966     1.0  0.75624  0.64342  0.35203  1.0000
  Fe  Fe222     1.0  0.76549  0.32932  0.45488  1.0000
  H   H3462     1.0  0.75904  0.65496  0.07920  1.0000
  C   C1967     1.0  0.85216  0.59796  0.21404  1.0000
  H   H3463     1.0  0.90566  0.45064  0.04581  1.0000
  C   C1968     1.0  0.87015  0.39267  0.98898  1.0000
  H   H3464     1.0  0.90221  0.42966  0.06141  1.0000
  C   C1969     1.0  0.76440  0.61061  0.14826  1.0000
  H   H3465     1.0  0.85832  0.39615  0.00141  1.0000
  H   H3466     1.0  0.82577  0.56541  0.12698  1.0000
  C   C1970     1.0  0.85363  0.61290  0.23492  1.0000
  H   H3467     1.0  0.83445  0.54346  0.12258  1.0000
  N   N109      1.0  0.81904  0.36090  0.35285  1.0000
  C   C1971     1.0  0.82684  0.37769  0.34338  1.0000
  C   C1972     1.0  0.80367  0.36461  0.37206  1.0000
  C   C1973     1.0  0.83293  0.35088  0.36927  1.0000
  C   C1974     1.0  0.81371  0.34966  0.32861  1.0000
  C   C1975     1.0  0.80172  0.35848  0.30638  1.0000
  C   C1976     1.0  0.84341  0.37587  0.32498  1.0000
  H   H3468     1.0  0.84582  0.50995  0.03730  1.0000
  H   H3469     1.0  0.79944  0.64595  0.10231  1.0000
  Fe  Fe223     1.0  0.77620  0.33134  0.01318  1.0000
  H   H3470     1.0  0.86681  0.54132  0.38661  1.0000
  C   C1977     1.0  0.84860  0.39360  0.31380  1.0000
  H   H3471     1.0  0.81102  0.59305  0.42226  1.0000
  H   H3472     1.0  0.83041  0.38562  0.36186  1.0000
  H   H3473     1.0  0.81717  0.38591  0.33166  1.0000
  H   H3474     1.0  0.79461  0.35359  0.37166  1.0000
  H   H3475     1.0  0.80811  0.36534  0.39415  1.0000
  H   H3476     1.0  0.83839  0.35941  0.38575  1.0000
  C   C1978     1.0  0.92982  0.45551  0.46795  1.0000
  H   H3477     1.0  0.82543  0.34406  0.31772  1.0000
  S   S449      1.0  0.77250  0.33625  0.06050  1.0000
  H   H3478     1.0  0.80809  0.36966  0.29650  1.0000
  H   H3479     1.0  0.78920  0.36298  0.31569  1.0000
  H   H3480     1.0  0.85467  0.37060  0.33732  1.0000
  H   H3481     1.0  0.84129  0.36722  0.30685  1.0000
  H   H3482     1.0  0.98245  0.47750  0.34909  1.0000
  H   H3483     1.0  0.87293  0.59607  0.13496  1.0000
  H   H3484     1.0  0.80053  0.39313  0.37379  1.0000
  H   H3485     1.0  0.75446  0.61704  0.05083  1.0000
  C   C1979     1.0  0.83393  0.59329  0.44942  1.0000
  C   C1980     1.0  0.75969  0.33409  0.37623  1.0000
  H   H3486     1.0  0.98933  0.50601  0.10112  1.0000
  H   H3487     1.0  0.96502  0.52919  0.19216  1.0000
  C   C1981     1.0  0.83481  0.53532  0.46299  1.0000
  H   H3488     1.0  0.75769  0.59410  0.04445  1.0000
  H   H3489     1.0  0.85113  0.40273  0.33125  1.0000
  H   H3490     1.0  0.86074  0.39205  0.30131  1.0000
  H   H3491     1.0  0.83814  0.39935  0.30025  1.0000
  H   H3492     1.0  0.85803  0.56403  0.12321  1.0000
  C   C1982     1.0  0.84552  0.46409  0.43498  1.0000
  C   C1983     1.0  0.75024  0.60391  0.05697  1.0000
  H   H3493     1.0  0.86068  0.43937  0.00194  1.0000
  H   H3494     1.0  0.76740  0.37180  0.37845  1.0000
  H   H3495     1.0  0.89105  0.54762  0.23476  1.0000
  H   H3496     1.0  0.85961  0.54966  0.15291  1.0000
  H   H3497     1.0  0.78875  0.38372  0.34559  1.0000
  C   C1984     1.0  0.87756  0.56794  0.19093  1.0000
  H   H3498     1.0  0.77399  0.33832  0.12043  1.0000
  H   H3499     1.0  0.84853  0.57414  0.00594  1.0000
  C   C1985     1.0  0.88013  0.58662  0.14882  1.0000
  H   H3500     1.0  0.76915  0.39497  0.38288  1.0000
  N   N110      1.0  0.85088  0.56452  0.46252  1.0000
  H   H3501     1.0  0.83880  0.59886  0.20491  1.0000
  H   H3502     1.0  0.77949  0.38029  0.40767  1.0000
  H   H3503     1.0  0.77108  0.34291  0.33792  1.0000
  H   H3504     1.0  0.78587  0.55684  0.04671  1.0000
  C   C1986     1.0  0.90023  0.55717  0.22632  1.0000
  N   N111      1.0  0.96498  0.46168  0.30161  1.0000
  C   C1987     1.0  0.96601  0.47527  0.27896  1.0000
  C   C1988     1.0  0.98256  0.45236  0.30575  1.0000
  C   C1989     1.0  0.95206  0.44842  0.29211  1.0000
  C   C1990     1.0  0.95845  0.46948  0.32865  1.0000
  C   C1991     1.0  0.96981  0.48351  0.34208  1.0000
  C   C1992     1.0  0.94860  0.48494  0.27084  1.0000
  C   C1993     1.0  0.95037  0.43206  0.31079  1.0000
  C   C1994     1.0  0.77213  0.56693  0.08341  1.0000
  C   C1995     1.0  0.79728  0.34564  0.28321  1.0000
  C   C1996     1.0  0.96093  0.49146  0.36783  1.0000
  C   C1997     1.0  0.95160  0.49929  0.24951  1.0000
  C   C1998     1.0  0.93817  0.41907  0.29743  1.0000
  H   H3505     1.0  0.97131  0.46906  0.25960  1.0000
  H   H3506     1.0  0.97530  0.48546  0.28457  1.0000
  H   H3507     1.0  0.98358  0.44691  0.32722  1.0000
  H   H3508     1.0  0.84259  0.59453  0.43117  1.0000
  H   H3509     1.0  0.95533  0.44385  0.27061  1.0000
  H   H3510     1.0  0.93868  0.45440  0.29096  1.0000
  H   H3511     1.0  0.94488  0.47484  0.32625  1.0000
  H   H3512     1.0  0.95744  0.45919  0.34471  1.0000
  H   H3513     1.0  0.97223  0.49431  0.32747  1.0000
  H   H3514     1.0  0.88901  0.52286  0.46938  1.0000
  H   H3515     1.0  0.93949  0.47580  0.26110  1.0000
  H   H3516     1.0  0.94216  0.49113  0.28918  1.0000
  H   H3517     1.0  0.94476  0.43571  0.33134  1.0000
  H   H3518     1.0  0.96314  0.42518  0.31421  1.0000
  N   N112      1.0  0.86915  0.58256  0.17392  1.0000
  H   H3519     1.0  0.82461  0.56710  0.44558  1.0000
  H   H3520     1.0  0.89227  0.41262  0.44352  1.0000
  H   H3521     1.0  0.94850  0.49838  0.36195  1.0000
  H   H3522     1.0  0.95814  0.48117  0.38330  1.0000
  H   H3523     1.0  0.96964  0.50094  0.37777  1.0000
  H   H3524     1.0  0.95764  0.49373  0.23030  1.0000
  H   H3525     1.0  0.93885  0.50565  0.24376  1.0000
  H   H3526     1.0  0.96012  0.50935  0.25837  1.0000
  H   H3527     1.0  0.94366  0.41410  0.27744  1.0000
  H   H3528     1.0  0.93656  0.40786  0.31168  1.0000
  H   H3529     1.0  0.92509  0.42532  0.29348  1.0000
  H   H3530     1.0  0.79612  0.55092  0.07958  1.0000
  C   C1999     1.0  0.75178  0.64274  0.38052  1.0000
  H   H3531     1.0  0.96487  0.54192  0.16072  1.0000
  H   H3532     1.0  0.77990  0.60344  0.18498  1.0000
  C   C2000     1.0  0.75685  0.33121  0.08688  1.0000
  C   C2001     1.0  0.83590  0.51707  0.47574  1.0000
  C   C2002     1.0  0.88348  0.47681  0.99754  1.0000
  H   H3533     1.0  0.99278  0.57025  0.09751  1.0000
  H   H3534     1.0  0.88892  0.53606  0.39703  1.0000
  H   H3535     1.0  0.90904  0.56117  0.24342  1.0000
  H   H3536     1.0  0.96537  0.49342  0.06377  1.0000
  C   C2003     1.0  0.93619  0.47405  0.07095  1.0000
  H   H3537     1.0  0.98394  0.44086  0.29158  1.0000
  H   H3538     1.0  0.77136  0.62290  0.14541  1.0000
  H   H3539     1.0  0.86195  0.54919  0.03196  1.0000
  H   H3540     1.0  0.93489  0.49109  0.46711  1.0000
  H   H3541     1.0  0.83331  0.56166  0.98707  1.0000
  C   C2004     1.0  0.89337  0.54459  0.98753  1.0000
  C   C2005     1.0  0.99037  0.53089  0.17189  1.0000
  C   C2006     1.0  0.81578  0.60025  0.44072  1.0000
  H   H3542     1.0  0.84312  0.57326  0.18090  1.0000
  H   H3543     1.0  0.89067  0.37169  0.99223  1.0000
  H   H3544     1.0  0.83071  0.54716  0.02787  1.0000
  C   C2007     1.0  0.93994  0.48695  0.04769  1.0000
  C   C2008     1.0  0.84863  0.44593  0.44744  1.0000
  H   H3545     1.0  0.84689  0.42189  0.99191  1.0000
  H   H3546     1.0  0.86610  0.52917  0.01510  1.0000
  C   C2009     1.0  0.95990  0.48877  0.04364  1.0000
  Fe  Fe224     1.0  0.75646  0.64886  0.01338  1.0000
  H   H3547     1.0  0.74642  0.61294  0.09867  1.0000
  H   H3548     1.0  0.82712  0.55061  0.15646  1.0000
  H   H3549     1.0  0.88240  0.55847  0.39036  1.0000
  C   C2010     1.0  0.86594  0.36098  0.00137  1.0000
  H   H3550     1.0  0.75864  0.59374  0.18336  1.0000
  H   H3551     1.0  0.77657  0.54043  0.06843  1.0000
  C   C2011     1.0  0.83865  0.53567  0.02064  1.0000
  H   H3552     1.0  0.90701  0.58331  0.16405  1.0000
  H   H3553     1.0  0.92159  0.54365  0.99019  1.0000
  H   H3554     1.0  0.81636  0.61427  0.43519  1.0000
  H   H3555     1.0  0.88254  0.57473  0.13607  1.0000
  H   H3556     1.0  0.83116  0.41731  0.46937  1.0000
  H   H3557     1.0  0.84471  0.58773  0.15202  1.0000
  H   H3558     1.0  0.99383  0.51550  0.20869  1.0000
  H   H3559     1.0  0.93354  0.49953  0.05382  1.0000
  H   H3560     1.0  0.89749  0.40051  0.47496  1.0000
  C   C2012     1.0  0.79275  0.38180  0.36753  1.0000
  H   H3561     1.0  0.75946  0.56795  0.07217  1.0000
  C   C2013     1.0  0.83844  0.52201  0.04374  1.0000
  H   H3562     1.0  0.83739  0.53396  0.44036  1.0000
  H   H3563     1.0  0.82477  0.51859  0.04825  1.0000
  H   H3564     1.0  0.90827  0.55073  0.20977  1.0000
  C   C2014     1.0  0.87789  0.55799  0.98647  1.0000
  S   S450      1.0  0.77262  0.35417  0.47707  1.0000
  H   H3565     1.0  0.97388  0.55083  0.19220  1.0000
  H   H3566     1.0  0.78850  0.35221  0.26773  1.0000
  C   C2015     1.0  0.75299  0.60137  0.08876  1.0000
  S   S451      1.0  0.76521  0.62400  0.99220  1.0000
  H   H3567     1.0  0.83877  0.60188  0.46623  1.0000
  H   H3568     1.0  0.94375  0.51910  0.02705  1.0000
  C   C2016     1.0  0.74750  0.65159  0.11981  1.0000
  C   C2017     1.0  0.96333  0.53327  0.00618  1.0000
  H   H3569     1.0  0.91128  0.56111  0.01002  1.0000
  C   C2018     1.0  0.95826  0.51869  0.02671  1.0000
  H   H3570     1.0  0.98814  0.51917  0.15895  1.0000
  C   C2019     1.0  0.99204  0.55621  0.09823  1.0000
  H   H3571     1.0  0.88490  0.55192  0.44088  1.0000
  H   H3572     1.0  0.75033  0.61318  0.14386  1.0000
  H   H3573     1.0  0.98987  0.51190  0.03322  1.0000
  C   C2020     1.0  0.74727  0.65220  0.09048  1.0000
  H   H3574     1.0  0.89243  0.53582  0.00563  1.0000
  H   H3575     1.0  0.90968  0.41938  0.46593  1.0000
  H   H3576     1.0  0.87183  0.34941  0.01213  1.0000
  H   H3577     1.0  0.80629  0.59900  0.45795  1.0000
  H   H3578     1.0  0.85334  0.36456  0.01164  1.0000
  H   H3579     1.0  0.90724  0.39494  0.98564  1.0000
  H   H3580     1.0  0.92582  0.51839  0.47049  1.0000
  H   H3581     1.0  0.83280  0.60024  0.97999  1.0000
  H   H3582     1.0  0.84550  0.46312  0.41188  1.0000
  H   H3583     1.0  0.86879  0.58578  0.46662  1.0000
  H   H3584     1.0  0.83802  0.43767  0.43992  1.0000
  H   H3585     1.0  0.87943  0.56734  0.00413  1.0000
  H   H3586     1.0  0.82595  0.50880  0.46595  1.0000
  C   C2021     1.0  0.84696  0.56615  0.98679  1.0000
  H   H3587     1.0  0.96256  0.50188  0.46945  1.0000
  H   H3588     1.0  0.94490  0.55243  0.02437  1.0000
  C   C2022     1.0  0.95813  0.49513  0.99252  1.0000
  C   C2023     1.0  0.85631  0.43136  0.98412  1.0000
  H   H3589     1.0  0.74539  0.59008  0.09579  1.0000
  C   C2024     1.0  0.98521  0.50133  0.01928  1.0000
  C   C2025     1.0  0.99001  0.52006  0.10025  1.0000
  H   H3590     1.0  0.99220  0.40645  0.35401  1.0000
  C   C2026     1.0  0.96266  0.47627  0.98291  1.0000
  H   H3591     1.0  0.84899  0.51083  0.47199  1.0000
  C   C2027     1.0  0.84787  0.54754  0.47727  1.0000
  H   H3592     1.0  0.99166  0.49008  0.45535  1.0000
  H   H3593     1.0  0.99460  0.48278  0.05121  1.0000
  H   H3594     1.0  0.92226  0.55018  0.47561  1.0000
  H   H3595     1.0  0.86334  0.35733  0.97937  1.0000
  H   H3596     1.0  0.94648  0.52840  0.47576  1.0000
  C   C2028     1.0  0.88832  0.51002  0.47830  1.0000
  Fe  Fe225     1.0  0.79559  0.62940  0.50363  1.0000
  S   S452      1.0  0.76048  0.62925  0.91006  1.0000
  S   S453      1.0  0.81005  0.60362  0.51744  1.0000
  Fe  Fe226     1.0  0.76846  0.64007  0.95330  1.0000
  Fe  Fe227     1.0  0.76401  0.33261  0.95144  1.0000
  H   H3597     1.0  0.96281  0.50374  0.97570  1.0000
  C   C2029     1.0  0.75026  0.33884  0.58670  1.0000
  H   H3598     1.0  0.88936  0.40247  0.92860  1.0000
  H   H3599     1.0  0.81442  0.63148  0.61812  1.0000
  Fe  Fe228     1.0  0.89814  0.52219  0.64537  1.0000
  S   S454      1.0  0.91183  0.54635  0.63115  1.0000
  S   S455      1.0  0.89405  0.51912  0.69291  1.0000
  Fe  Fe229     1.0  0.89394  0.51036  0.58426  1.0000
  S   S456      1.0  0.90732  0.53337  0.56680  1.0000
  S   S457      1.0  0.88570  0.48854  0.55569  1.0000
  Fe  Fe230     1.0  0.92686  0.52873  0.60140  1.0000
  S   S458      1.0  0.95551  0.52191  0.59167  1.0000
  Fe  Fe231     1.0  0.89087  0.54891  0.59751  1.0000
  S   S459      1.0  0.87769  0.57558  0.58635  1.0000
  S   S460      1.0  0.91415  0.50468  0.61734  1.0000
  S   S461      1.0  0.87643  0.52591  0.61344  1.0000
  Fe  Fe232     1.0  0.89915  0.45311  0.83319  1.0000
  S   S462      1.0  0.90165  0.42468  0.84612  1.0000
  S   S463      1.0  0.90053  0.45823  0.78555  1.0000
  Fe  Fe233     1.0  0.90116  0.46472  0.89494  1.0000
  S   S464      1.0  0.90418  0.43745  0.91124  1.0000
  S   S465      1.0  0.90504  0.48831  0.92275  1.0000
  Fe  Fe234     1.0  0.92284  0.43338  0.87537  1.0000
  S   S466      1.0  0.94916  0.41872  0.87938  1.0000
  Fe  Fe235     1.0  0.88262  0.43089  0.88101  1.0000
  S   S467      1.0  0.85752  0.41702  0.89526  1.0000
  S   S468      1.0  0.92114  0.46104  0.86106  1.0000
  S   S469      1.0  0.87867  0.45894  0.86623  1.0000
  S   S470      1.0  0.80163  0.32982  0.50999  1.0000
  H   H3600     1.0  0.86710  0.41623  0.95031  1.0000
  Fe  Fe236     1.0  0.75974  0.64680  0.51521  1.0000
  S   S471      1.0  0.79656  0.64492  0.96484  1.0000
  C   C2030     1.0  0.89687  0.39407  0.94343  1.0000
  H   H3601     1.0  0.85951  0.42027  0.53538  1.0000
  H   H3602     1.0  0.83363  0.60049  0.94257  1.0000
  H   H3603     1.0  0.76869  0.34876  0.78949  1.0000
  C   C2031     1.0  0.86110  0.51971  0.96403  1.0000
  C   C2032     1.0  0.80134  0.34853  0.87891  1.0000
  C   C2033     1.0  0.93502  0.48300  0.55173  1.0000
  C   C2034     1.0  0.84996  0.39707  0.91004  1.0000
  C   C2035     1.0  0.83381  0.39728  0.92414  1.0000
  C   C2036     1.0  0.82714  0.38195  0.93595  1.0000
  C   C2037     1.0  0.83638  0.36596  0.93357  1.0000
  C   C2038     1.0  0.85259  0.36576  0.91967  1.0000
  C   C2039     1.0  0.85932  0.38111  0.90801  1.0000
  H   H3604     1.0  0.82636  0.40944  0.92603  1.0000
  H   H3605     1.0  0.81489  0.38254  0.94708  1.0000
  C   C2040     1.0  0.89865  0.40328  0.97205  1.0000
  H   H3606     1.0  0.87166  0.38053  0.89711  1.0000
  C   C2041     1.0  0.98512  0.41852  0.87525  1.0000
  C   C2042     1.0  0.96966  0.42889  0.87695  1.0000
  C   C2043     1.0  0.97086  0.44704  0.87650  1.0000
  H   H3607     1.0  0.98438  0.40447  0.87577  1.0000
  H   H3608     1.0  0.95917  0.45520  0.87846  1.0000
  C   C2044     1.0  0.88701  0.49154  0.51930  1.0000
  H   H3609     1.0  0.89018  0.38155  0.94544  1.0000
  H   H3610     1.0  0.92753  0.49490  0.55832  1.0000
  C   C2045     1.0  0.90021  0.48761  0.95867  1.0000
  H   H3611     1.0  0.90353  0.55647  0.72992  1.0000
  C   C2046     1.0  0.88761  0.50815  0.50744  1.0000
  H   H3612     1.0  0.88699  0.46403  0.51085  1.0000
  H   H3613     1.0  0.88272  0.46644  0.95556  1.0000
  H   H3614     1.0  0.96921  0.51332  0.49973  1.0000
  H   H3615     1.0  0.88726  0.51955  0.52067  1.0000
  C   C2047     1.0  0.89631  0.50195  0.71826  1.0000
  C   C2048     1.0  0.89946  0.48445  0.71094  1.0000
  C   C2049     1.0  0.90062  0.47139  0.73176  1.0000
  C   C2050     1.0  0.89880  0.47550  0.76030  1.0000
  C   C2051     1.0  0.89589  0.49304  0.76765  1.0000
  C   C2052     1.0  0.89459  0.50609  0.74682  1.0000
  H   H3616     1.0  0.90076  0.48092  0.68920  1.0000
  H   H3617     1.0  0.90284  0.45792  0.72565  1.0000
  H   H3618     1.0  0.89446  0.49653  0.78939  1.0000
  H   H3619     1.0  0.89214  0.51952  0.75292  1.0000
  H   H3620     1.0  0.99382  0.53118  0.65267  1.0000
  C   C2053     1.0  0.97573  0.53251  0.59387  1.0000
  C   C2054     1.0  0.97691  0.55019  0.60055  1.0000
  H   H3621     1.0  0.86500  0.38895  0.96815  1.0000
  H   H3622     1.0  0.96515  0.55791  0.60481  1.0000
  C   C2055     1.0  0.88719  0.47690  0.50180  1.0000
  C   C2056     1.0  0.75415  0.59471  0.56978  1.0000
  H   H3623     1.0  0.79095  0.33909  0.88312  1.0000
  H   H3624     1.0  0.83971  0.62141  0.54332  1.0000
  H   H3625     1.0  0.98738  0.46210  0.79961  1.0000
  H   H3626     1.0  0.82948  0.43318  0.54464  1.0000
  H   H3627     1.0  0.98024  0.50483  0.64139  1.0000
  C   C2057     1.0  0.82890  0.59623  0.53688  1.0000
  C   C2058     1.0  0.83156  0.57821  0.54180  1.0000
  C   C2059     1.0  0.84630  0.57161  0.55680  1.0000
  C   C2060     1.0  0.85874  0.58297  0.56706  1.0000
  C   C2061     1.0  0.85612  0.60096  0.56197  1.0000
  C   C2062     1.0  0.84137  0.60755  0.54707  1.0000
  H   H3628     1.0  0.82211  0.56925  0.53393  1.0000
  H   H3629     1.0  0.84804  0.55775  0.56037  1.0000
  H   H3630     1.0  0.86571  0.60993  0.56931  1.0000
  S   S472      1.0  0.82863  0.34599  0.94791  1.0000
  H   H3631     1.0  0.95080  0.50955  0.65994  1.0000
  H   H3632     1.0  0.94762  0.46079  0.57297  1.0000
  H   H3633     1.0  0.77231  0.38242  0.82362  1.0000
  C   C2063     1.0  0.96118  0.51841  0.66673  1.0000
  N   N113      1.0  0.76702  0.59655  0.59341  1.0000
  C   C2064     1.0  0.77936  0.61081  0.58627  1.0000
  H   H3634     1.0  0.91307  0.38377  0.90981  1.0000
  C   C2065     1.0  0.75670  0.60238  0.61878  1.0000
  C   C2066     1.0  0.77637  0.57934  0.59984  1.0000
  C   C2067     1.0  0.79395  0.57532  0.58466  1.0000
  C   C2068     1.0  0.79101  0.61699  0.61065  1.0000
  H   H3635     1.0  0.98246  0.42518  0.77565  1.0000
  H   H3636     1.0  0.98795  0.46870  0.87286  1.0000
  C   C2069     1.0  0.83268  0.40248  0.50704  1.0000
  C   C2070     1.0  0.75179  0.65146  0.62227  1.0000
  C   C2071     1.0  0.78737  0.35828  0.83550  1.0000
  H   H3637     1.0  0.77192  0.62249  0.57838  1.0000
  H   H3638     1.0  0.78798  0.60697  0.56864  1.0000
  H   H3639     1.0  0.74637  0.60717  0.56709  1.0000
  H   H3640     1.0  0.76102  0.39709  0.91313  1.0000
  H   H3641     1.0  0.81378  0.38281  0.51602  1.0000
  H   H3642     1.0  0.76542  0.60361  0.63721  1.0000
  H   H3643     1.0  0.76758  0.56838  0.59555  1.0000
  C   C2072     1.0  0.94370  0.46621  0.48226  1.0000
  H   H3644     1.0  0.79291  0.57722  0.56188  1.0000
  C   C2073     1.0  0.86524  0.41784  0.48205  1.0000
  H   H3645     1.0  0.85831  0.45519  0.57043  1.0000
  H   H3646     1.0  0.82868  0.34638  0.86526  1.0000
  H   H3647     1.0  0.75629  0.36881  0.78405  1.0000
  H   H3648     1.0  0.76736  0.57597  0.54179  1.0000
  H   H3649     1.0  0.76258  0.65489  0.58121  1.0000
  H   H3650     1.0  0.86000  0.35357  0.91773  1.0000
  H   H3651     1.0  0.91265  0.56260  0.97238  1.0000
  H   H3652     1.0  0.80188  0.55411  0.61267  1.0000
  C   C2074     1.0  0.98059  0.48772  0.49697  1.0000
  H   H3653     1.0  0.83619  0.45414  0.53259  1.0000
  C   C2075     1.0  0.98724  0.45466  0.87354  1.0000
  S   S473      1.0  0.78635  0.65054  0.53331  1.0000
  N   N114      1.0  0.86326  0.57424  0.67763  1.0000
  C   C2076     1.0  0.86905  0.58953  0.66062  1.0000
  C   C2077     1.0  0.87901  0.56366  0.68798  1.0000
  C   C2078     1.0  0.85282  0.56279  0.65855  1.0000
  C   C2079     1.0  0.85157  0.57989  0.70150  1.0000
  C   C2080     1.0  0.85900  0.59304  0.72255  1.0000
  C   C2081     1.0  0.85436  0.60058  0.64605  1.0000
  C   C2082     1.0  0.84845  0.54451  0.67007  1.0000
  C   C2083     1.0  0.89560  0.57378  0.69573  1.0000
  C   C2084     1.0  0.90914  0.56208  0.71073  1.0000
  C   C2085     1.0  0.84493  0.59941  0.74306  1.0000
  C   C2086     1.0  0.86164  0.61692  0.63289  1.0000
  C   C2087     1.0  0.83515  0.53564  0.65143  1.0000
  H   H3654     1.0  0.87820  0.58479  0.64403  1.0000
  H   H3655     1.0  0.87678  0.59858  0.67328  1.0000
  H   H3656     1.0  0.87540  0.55544  0.70606  1.0000
  H   H3657     1.0  0.88356  0.55426  0.67164  1.0000
  H   H3658     1.0  0.85991  0.56056  0.63850  1.0000
  H   H3659     1.0  0.84018  0.56943  0.65285  1.0000
  H   H3660     1.0  0.83888  0.58535  0.69354  1.0000
  H   H3661     1.0  0.84806  0.56846  0.71420  1.0000
  H   H3662     1.0  0.86401  0.60471  0.71216  1.0000
  H   H3663     1.0  0.86953  0.58658  0.73508  1.0000
  H   H3664     1.0  0.84832  0.59299  0.62904  1.0000
  H   H3665     1.0  0.84407  0.60486  0.66096  1.0000
  H   H3666     1.0  0.84287  0.54521  0.69129  1.0000
  H   H3667     1.0  0.86038  0.53592  0.67096  1.0000
  H   H3668     1.0  0.90184  0.57862  0.67647  1.0000
  H   H3669     1.0  0.89268  0.58517  0.70921  1.0000
  H   H3670     1.0  0.80422  0.58399  0.59236  1.0000
  H   H3671     1.0  0.91374  0.55129  0.69686  1.0000
  H   H3672     1.0  0.92058  0.56979  0.71665  1.0000
  H   H3673     1.0  0.83412  0.60648  0.73192  1.0000
  H   H3674     1.0  0.83959  0.58827  0.75467  1.0000
  H   H3675     1.0  0.85066  0.60849  0.75836  1.0000
  H   H3676     1.0  0.85121  0.62391  0.62077  1.0000
  H   H3677     1.0  0.86647  0.62584  0.64924  1.0000
  H   H3678     1.0  0.87254  0.61337  0.61853  1.0000
  H   H3679     1.0  0.82234  0.54281  0.65233  1.0000
  H   H3680     1.0  0.83968  0.53510  0.62948  1.0000
  H   H3681     1.0  0.83339  0.52210  0.65878  1.0000
  H   H3682     1.0  0.79820  0.35855  0.82008  1.0000
  H   H3683     1.0  0.81331  0.55418  0.57998  1.0000
  H   H3684     1.0  0.77945  0.57835  0.62251  1.0000
  H   H3685     1.0  0.88338  0.58934  0.52135  1.0000
  H   H3686     1.0  0.78357  0.34438  0.83626  1.0000
  H   H3687     1.0  0.97733  0.47395  0.49357  1.0000
  Fe  Fe237     1.0  0.80262  0.33493  0.96414  1.0000
  H   H3688     1.0  0.79111  0.54722  0.58103  1.0000
  H   H3689     1.0  0.88499  0.55651  0.48451  1.0000
  H   H3690     1.0  0.77046  0.39070  0.94618  1.0000
  N   N115      1.0  0.96117  0.45620  0.78638  1.0000
  C   C2088     1.0  0.96320  0.46636  0.75979  1.0000
  C   C2089     1.0  0.97905  0.45062  0.79703  1.0000
  C   C2090     1.0  0.95017  0.44068  0.78041  1.0000
  C   C2091     1.0  0.95220  0.46717  0.80854  1.0000
  C   C2092     1.0  0.95981  0.48535  0.81404  1.0000
  C   C2093     1.0  0.94607  0.47441  0.74716  1.0000
  C   C2094     1.0  0.94821  0.42768  0.80482  1.0000
  H   H3691     1.0  0.83548  0.45037  0.97487  1.0000
  C   C2095     1.0  0.95013  0.49476  0.83777  1.0000
  C   C2096     1.0  0.94990  0.48619  0.72244  1.0000
  C   C2097     1.0  0.93701  0.41246  0.79624  1.0000
  H   H3692     1.0  0.96897  0.45782  0.74325  1.0000
  H   H3693     1.0  0.97264  0.47690  0.76282  1.0000
  C   C2098     1.0  0.87214  0.42200  0.96974  1.0000
  C   C2099     1.0  0.95275  0.47186  0.95620  1.0000
  H   H3694     1.0  0.95517  0.43334  0.76190  1.0000
  H   H3695     1.0  0.93665  0.44507  0.77463  1.0000
  H   H3696     1.0  0.93799  0.46902  0.80392  1.0000
  H   H3697     1.0  0.95279  0.46018  0.82876  1.0000
  H   H3698     1.0  0.95857  0.49377  0.79535  1.0000
  H   H3699     1.0  0.97378  0.48417  0.82006  1.0000
  H   H3700     1.0  0.93762  0.46395  0.73948  1.0000
  H   H3701     1.0  0.93853  0.48237  0.76253  1.0000
  H   H3702     1.0  0.94168  0.43419  0.82279  1.0000
  H   H3703     1.0  0.96102  0.42214  0.81188  1.0000
  H   H3704     1.0  0.86268  0.49652  0.93801  1.0000
  H   H3705     1.0  0.86010  0.58638  0.96284  1.0000
  H   H3706     1.0  0.95553  0.50786  0.84093  1.0000
  H   H3707     1.0  0.93599  0.49640  0.83280  1.0000
  H   H3708     1.0  0.95173  0.48732  0.85751  1.0000
  H   H3709     1.0  0.93742  0.49153  0.71358  1.0000
  H   H3710     1.0  0.95779  0.49731  0.72923  1.0000
  H   H3711     1.0  0.95694  0.47872  0.70586  1.0000
  H   H3712     1.0  0.94322  0.40500  0.77886  1.0000
  H   H3713     1.0  0.93559  0.40356  0.81427  1.0000
  H   H3714     1.0  0.92377  0.41728  0.78973  1.0000
  N   N116      1.0  0.79362  0.36427  0.86386  1.0000
  C   C2100     1.0  0.76888  0.36314  0.79196  1.0000
  H   H3715     1.0  0.85505  0.58323  0.49571  1.0000
  C   C2101     1.0  0.85655  0.53955  0.96165  1.0000
  C   C2102     1.0  0.80776  0.37732  0.86082  1.0000
  C   C2103     1.0  0.80215  0.39504  0.84774  1.0000
  C   C2104     1.0  0.78306  0.37838  0.91047  1.0000
  H   H3716     1.0  0.76341  0.65563  0.63291  1.0000
  H   H3717     1.0  0.80181  0.63886  0.58842  1.0000
  H   H3718     1.0  0.87082  0.51568  0.92176  1.0000
  C   C2105     1.0  0.81697  0.40786  0.84918  1.0000
  C   C2106     1.0  0.75189  0.34497  0.61428  1.0000
  H   H3719     1.0  0.92448  0.51053  0.52058  1.0000
  C   C2107     1.0  0.74627  0.63543  0.88154  1.0000
  H   H3720     1.0  0.80953  0.39455  0.48422  1.0000
  H   H3721     1.0  0.99022  0.52951  0.68908  1.0000
  H   H3722     1.0  0.87171  0.55925  0.51483  1.0000
  C   C2108     1.0  0.76174  0.58946  0.54104  1.0000
  C   C2109     1.0  0.80648  0.62715  0.60017  1.0000
  H   H3723     1.0  0.81412  0.37973  0.88125  1.0000
  H   H3724     1.0  0.81850  0.37193  0.84749  1.0000
  H   H3725     1.0  0.79078  0.40117  0.85862  1.0000
  H   H3726     1.0  0.79888  0.39320  0.82542  1.0000
  H   H3727     1.0  0.78860  0.36790  0.92399  1.0000
  H   H3728     1.0  0.79250  0.38896  0.90903  1.0000
  H   H3729     1.0  0.84252  0.54045  0.95547  1.0000
  C   C2110     1.0  0.83268  0.59190  0.96107  1.0000
  H   H3730     1.0  0.74615  0.57660  0.62838  1.0000
  C   C2111     1.0  0.75138  0.65095  0.59295  1.0000
  C   C2112     1.0  0.86044  0.51081  0.93554  1.0000
  C   C2113     1.0  0.93413  0.52493  0.48603  1.0000
  H   H3731     1.0  0.99123  0.49728  0.71866  1.0000
  H   H3732     1.0  0.81302  0.42013  0.83829  1.0000
  H   H3733     1.0  0.82001  0.41111  0.87118  1.0000
  H   H3734     1.0  0.82896  0.40232  0.83909  1.0000
  H   H3735     1.0  0.99042  0.50901  0.58310  1.0000
  H   H3736     1.0  0.97817  0.44497  0.81828  1.0000
  H   H3737     1.0  0.90623  0.41516  0.96817  1.0000
  H   H3738     1.0  0.97680  0.47485  0.97822  1.0000
  S   S474      1.0  0.77920  0.35108  0.97834  1.0000
  H   H3739     1.0  0.77129  0.38211  0.87044  1.0000
  C   C2114     1.0  0.88843  0.47584  0.96934  1.0000
  H   H3740     1.0  0.76873  0.36099  0.88388  1.0000
  H   H3741     1.0  0.82277  0.42888  0.49841  1.0000
  Fe  Fe238     1.0  0.77322  0.33745  0.51622  1.0000
  H   H3742     1.0  0.95585  0.48106  0.93921  1.0000
  H   H3743     1.0  0.86661  0.40530  0.49356  1.0000
  H   H3744     1.0  0.75926  0.36451  0.83391  1.0000
  C   C2115     1.0  0.99405  0.52172  0.67033  1.0000
  C   C2116     1.0  0.80040  0.55655  0.58998  1.0000
  H   H3745     1.0  0.89985  0.57211  0.52272  1.0000
  H   H3746     1.0  0.80499  0.40488  0.51751  1.0000
  H   H3747     1.0  0.84749  0.51314  0.92552  1.0000
  H   H3748     1.0  0.85995  0.45523  0.48575  1.0000
  H   H3749     1.0  0.75076  0.61558  0.61529  1.0000
  S   S475      1.0  0.76539  0.34578  0.56089  1.0000
  H   H3750     1.0  0.86031  0.53994  0.48021  1.0000
  H   H3751     1.0  0.83708  0.45382  0.48647  1.0000
  C   C2117     1.0  0.83387  0.42017  0.49164  1.0000
  H   H3752     1.0  0.95925  0.49653  0.54755  1.0000
  C   C2118     1.0  0.88370  0.42550  0.48190  1.0000
  H   H3753     1.0  0.95940  0.47563  0.53240  1.0000
  H   H3754     1.0  0.83651  0.40348  0.52925  1.0000
  C   C2119     1.0  0.89033  0.57910  0.50885  1.0000
  H   H3755     1.0  0.86694  0.44097  0.52620  1.0000
  H   H3756     1.0  0.84127  0.39240  0.49691  1.0000
  H   H3757     1.0  0.94868  0.48132  0.59160  1.0000
  H   H3758     1.0  0.86374  0.54464  0.94339  1.0000
  H   H3759     1.0  0.92851  0.46990  0.59010  1.0000
  C   C2120     1.0  0.92460  0.54196  0.49435  1.0000
  H   H3760     1.0  0.84298  0.55020  0.49878  1.0000
  C   C2121     1.0  0.97909  0.50924  0.66342  1.0000
  C   C2122     1.0  0.84919  0.44663  0.47975  1.0000
  H   H3761     1.0  0.95657  0.45846  0.94920  1.0000
  H   H3762     1.0  0.80657  0.35220  0.89961  1.0000
  H   H3763     1.0  0.75328  0.61248  0.85757  1.0000
  H   H3764     1.0  0.93254  0.54933  0.50949  1.0000
  C   C2123     1.0  0.86277  0.57570  0.47983  1.0000
  H   H3765     1.0  0.95883  0.52207  0.68882  1.0000
  H   H3766     1.0  0.75693  0.37586  0.92761  1.0000
  H   H3767     1.0  0.98548  0.48900  0.51870  1.0000
  C   C2124     1.0  0.87747  0.56621  0.49695  1.0000
  C   C2125     1.0  0.81670  0.33864  0.86400  1.0000
  C   C2126     1.0  0.77126  0.36809  0.82256  1.0000
  C   C2127     1.0  0.93756  0.51308  0.51184  1.0000
  C   C2128     1.0  0.84079  0.44172  0.54232  1.0000
  H   H3768     1.0  0.88882  0.42665  0.50348  1.0000
  H   H3769     1.0  0.85200  0.43394  0.58248  1.0000
  C   C2129     1.0  0.84809  0.57872  0.96155  1.0000
  H   H3770     1.0  0.99413  0.57171  0.60584  1.0000
  C   C2130     1.0  0.84646  0.44353  0.96389  1.0000
  H   H3771     1.0  0.78323  0.62578  0.62465  1.0000
  H   H3772     1.0  0.84810  0.57147  0.94153  1.0000
  C   C2131     1.0  0.77848  0.37130  0.88114  1.0000
  C   C2132     1.0  0.90755  0.49984  0.97663  1.0000
  H   H3773     1.0  0.97936  0.49751  0.67672  1.0000
  N   N117      1.0  0.94768  0.49615  0.50651  1.0000
  H   H3774     1.0  0.81491  0.61883  0.58645  1.0000
  C   C2133     1.0  0.85538  0.43260  0.52471  1.0000
  H   H3775     1.0  0.94438  0.52093  0.52791  1.0000
  H   H3776     1.0  0.92626  0.47456  0.53968  1.0000
  S   S476      1.0  0.76849  0.62487  0.48670  1.0000
  H   H3777     1.0  0.82006  0.58521  0.95995  1.0000
  C   C2134     1.0  0.91476  0.39000  0.93052  1.0000
  H   H3778     1.0  0.79613  0.60582  0.62322  1.0000
  H   H3779     1.0  0.96023  0.53032  0.65362  1.0000
  H   H3780     1.0  0.83670  0.45228  0.58388  1.0000
  H   H3781     1.0  0.94754  0.45920  0.50157  1.0000
  C   C2135     1.0  0.84742  0.44600  0.57154  1.0000
  H   H3782     1.0  0.92206  0.40212  0.92748  1.0000
  C   C2136     1.0  0.95128  0.48777  0.53448  1.0000
  C   C2137     1.0  0.81409  0.39587  0.50609  1.0000
  C   C2138     1.0  0.94038  0.47313  0.57820  1.0000
  C   C2139     1.0  0.93668  0.48500  0.48798  1.0000
  C   C2140     1.0  0.96464  0.50044  0.49234  1.0000
  N   N118      1.0  0.85094  0.42929  0.49455  1.0000
  H   H3783     1.0  0.91662  0.50901  0.96843  1.0000
  H   H3784     1.0  0.77183  0.59848  0.53415  1.0000
  C   C2141     1.0  0.76683  0.38597  0.92512  1.0000
  H   H3785     1.0  0.77965  0.36820  0.77920  1.0000
  H   H3786     1.0  0.76226  0.35368  0.61932  1.0000
  H   H3787     1.0  0.93843  0.47241  0.95986  1.0000
  H   H3788     1.0  0.84102  0.43600  0.94628  1.0000
  H   H3789     1.0  0.83346  0.51769  0.49854  1.0000
  H   H3790     1.0  0.75314  0.58612  0.49827  1.0000
  H   H3791     1.0  0.88109  0.43215  0.96246  1.0000
  H   H3792     1.0  0.85164  0.51325  0.97768  1.0000
  C   C2142     1.0  0.98958  0.43738  0.77869  1.0000
  C   C2143     1.0  0.99335  0.55797  0.60111  1.0000
  H   H3793     1.0  0.92258  0.38092  0.94398  1.0000
  C   C2144     1.0  0.74739  0.58969  0.51880  1.0000
  H   H3794     1.0  0.91179  0.53928  0.50386  1.0000
  H   H3795     1.0  0.87420  0.51708  0.97295  1.0000
  H   H3796     1.0  0.89389  0.53687  0.96797  1.0000
  H   H3797     1.0  0.89760  0.58536  0.49180  1.0000
  C   C2145     1.0  0.99116  0.52268  0.58834  1.0000
  H   H3798     1.0  0.81382  0.33609  0.84175  1.0000
  H   H3799     1.0  0.92323  0.48435  0.49642  1.0000
  H   H3800     1.0  0.87991  0.56552  0.96707  1.0000
  H   H3801     1.0  0.85520  0.45344  0.95542  1.0000
  H   H3802     1.0  0.99237  0.44301  0.75799  1.0000
  H   H3803     1.0  0.82655  0.57457  0.48040  1.0000
  H   H3804     1.0  0.91845  0.45390  0.48188  1.0000
  Fe  Fe239     1.0  0.92064  0.92914  0.10351  1.0000
  S   S477      1.0  0.91854  0.95726  0.11516  1.0000
  S   S478      1.0  0.94733  0.91515  0.09947  1.0000
  Fe  Fe240     1.0  0.88063  0.92548  0.10168  1.0000
  S   S479      1.0  0.87635  0.95379  0.11470  1.0000
  S   S480      1.0  0.85499  0.91097  0.09284  1.0000
  Fe  Fe241     1.0  0.89711  0.95927  0.08331  1.0000
  H   H3805     1.0  0.84332  0.90239  0.00930  1.0000
  Fe  Fe242     1.0  0.89806  0.94981  0.14615  1.0000
  S   S481      1.0  0.90372  0.96234  0.18915  1.0000
  S   S482      1.0  0.90056  0.93152  0.06886  1.0000
  S   S483      1.0  0.90101  0.92104  0.13575  1.0000
  C   C2146     1.0  0.75169  0.83472  0.12870  1.0000
  H   H3806     1.0  0.95688  0.95178  0.09803  1.0000
  C   C2147     1.0  0.80171  0.78964  0.41759  1.0000
  Fe  Fe243     1.0  0.75822  0.83276  0.02186  1.0000
  S   S484      1.0  0.78261  0.82093  0.04069  1.0000
  H   H3807     1.0  0.78393  0.72922  0.44332  1.0000
  H   H3808     1.0  0.98052  0.92939  0.19681  1.0000
  H   H3809     1.0  0.85103  0.97599  0.14744  1.0000
  S   S485      1.0  0.76189  0.83193  0.41098  1.0000
  Fe  Fe244     1.0  0.77981  0.79986  0.00818  1.0000
  S   S486      1.0  0.77735  0.77173  0.02333  1.0000
  Fe  Fe245     1.0  0.79685  0.83645  0.00854  1.0000
  S   S487      1.0  0.82314  0.84971  0.01764  1.0000
  H   H3810     1.0  0.90935  0.91929  0.40160  1.0000
  H   H3811     1.0  0.84244  0.97342  0.35016  1.0000
  C   C2148     1.0  0.91908  0.96220  0.34008  1.0000
  H   H3812     1.0  0.74930  0.70280  0.30179  1.0000
  H   H3813     1.0  0.89471  0.89660  0.02714  1.0000
  H   H3814     1.0  0.79798  0.80335  0.41219  1.0000
  H   H3815     1.0  0.91355  0.94293  0.29878  1.0000
  C   C2149     1.0  0.90051  0.94831  0.30538  1.0000
  H   H3816     1.0  0.93209  0.97600  0.02022  1.0000
  H   H3817     1.0  0.76341  0.83773  0.08808  1.0000
  H   H3818     1.0  0.76398  0.83447  0.13980  1.0000
  H   H3819     1.0  0.95324  0.97403  0.05965  1.0000
  H   H3820     1.0  0.98569  0.96566  0.09646  1.0000
  H   H3821     1.0  0.85205  0.97594  0.06717  1.0000
  C   C2150     1.0  0.78240  0.75081  0.00878  1.0000
  H   H3822     1.0  0.88575  0.92193  0.40079  1.0000
  H   H3823     1.0  0.81546  0.92881  0.98789  1.0000
  C   C2151     1.0  0.82020  0.91651  0.99765  1.0000
  C   C2152     1.0  0.75824  0.75352  0.42286  1.0000
  C   C2153     1.0  0.87670  0.97640  0.22267  1.0000
  C   C2154     1.0  0.87034  0.98627  0.24568  1.0000
  C   C2155     1.0  0.89468  0.97455  0.21786  1.0000
  C   C2156     1.0  0.84409  0.96496  0.05991  1.0000
  H   H3824     1.0  0.85506  0.99316  0.44138  1.0000
  C   C2157     1.0  0.75271  0.68009  0.27619  1.0000
  C   C2158     1.0  0.79117  0.71648  0.98992  1.0000
  C   C2159     1.0  0.86902  0.92156  0.01294  1.0000
  H   H3825     1.0  0.86707  0.93012  0.46566  1.0000
  H   H3826     1.0  0.75082  0.78341  0.44767  1.0000
  C   C2160     1.0  0.89575  0.96713  0.00582  1.0000
  C   C2161     1.0  0.89486  0.98958  0.45908  1.0000
  C   C2162     1.0  0.79454  0.85723  0.10615  1.0000
  H   H3827     1.0  0.89744  0.95948  0.29113  1.0000
  H   H3828     1.0  0.89809  0.95520  0.01729  1.0000
  H   H3829     1.0  0.74814  0.68053  0.40377  1.0000
  N   N119      1.0  0.75526  0.77067  0.40797  1.0000
  C   C2163     1.0  0.84655  0.89428  0.07069  1.0000
  C   C2164     1.0  0.85729  0.88234  0.05602  1.0000
  C   C2165     1.0  0.84988  0.86902  0.03974  1.0000
  C   C2166     1.0  0.83164  0.86732  0.03779  1.0000
  C   C2167     1.0  0.82091  0.87949  0.05200  1.0000
  C   C2168     1.0  0.82831  0.89280  0.06827  1.0000
  H   H3830     1.0  0.87132  0.88315  0.05757  1.0000
  H   H3831     1.0  0.85840  0.85981  0.02880  1.0000
  H   H3832     1.0  0.80688  0.87862  0.05051  1.0000
  H   H3833     1.0  0.81980  0.90196  0.07930  1.0000
  H   H3834     1.0  0.83147  0.95768  0.98121  1.0000
  C   C2169     1.0  0.96775  0.92562  0.09917  1.0000
  C   C2170     1.0  0.96875  0.94378  0.09826  1.0000
  H   H3835     1.0  0.76960  0.80387  0.09999  1.0000
  H   H3836     1.0  0.88988  0.97529  0.36098  1.0000
  N   N120      1.0  0.85154  0.92884  0.00282  1.0000
  C   C2171     1.0  0.89368  0.98292  0.02021  1.0000
  H   H3837     1.0  0.84167  0.95630  0.07792  1.0000
  H   H3838     1.0  0.87474  0.93579  0.30743  1.0000
  C   C2172     1.0  0.75938  0.77878  0.11158  1.0000
  H   H3839     1.0  0.84181  0.94704  0.45338  1.0000
  H   H3840     1.0  0.82968  0.95952  0.47798  1.0000
  H   H3841     1.0  0.78119  0.87510  0.13502  1.0000
  C   C2173     1.0  0.77515  0.72457  0.42661  1.0000
  H   H3842     1.0  0.96822  0.94893  0.18634  1.0000
  H   H3843     1.0  0.84510  0.91184  0.46465  1.0000
  H   H3844     1.0  0.84267  0.97591  0.42648  1.0000
  C   C2174     1.0  0.88573  0.93140  0.26695  1.0000
  H   H3845     1.0  0.78186  0.74511  0.39896  1.0000
  H   H3846     1.0  0.83404  0.98847  0.45573  1.0000
  C   C2175     1.0  0.92554  0.97493  0.31745  1.0000
  C   C2176     1.0  0.78321  0.87354  0.11223  1.0000
  H   H3847     1.0  0.91936  0.96942  0.36023  1.0000
  S   S488      1.0  0.79087  0.81704  0.47292  1.0000
  H   H3848     1.0  0.74912  0.66620  0.27560  1.0000
  C   C2177     1.0  0.85398  0.95495  0.03705  1.0000
  H   H3849     1.0  0.88908  0.97972  0.32516  1.0000
  C   C2178     1.0  0.76789  0.79080  0.09068  1.0000
  C   C2179     1.0  0.75142  0.83646  0.09949  1.0000
  H   H3850     1.0  0.78779  0.84589  0.11432  1.0000
  H   H3851     1.0  0.89325  0.92095  0.30686  1.0000
  C   C2180     1.0  0.74591  0.76742  0.38086  1.0000
  H   H3852     1.0  0.81639  0.91694  0.01999  1.0000
  C   C2181     1.0  0.78562  0.77967  0.42597  1.0000
  C   C2182     1.0  0.98513  0.95161  0.09738  1.0000
  C   C2183     1.0  0.84605  0.98254  0.44628  1.0000
  H   H3853     1.0  0.81111  0.78977  0.43526  1.0000
  H   H3854     1.0  0.91032  0.92981  0.35172  1.0000
  H   H3855     1.0  0.85949  0.97998  0.37356  1.0000
  H   H3856     1.0  0.76384  0.75567  0.44401  1.0000
  H   H3857     1.0  0.86455  0.96242  0.31633  1.0000
  H   H3858     1.0  0.81904  0.89330  0.46401  1.0000
  H   H3859     1.0  0.77024  0.87232  0.10213  1.0000
  H   H3860     1.0  0.88744  0.93261  0.35169  1.0000
  H   H3861     1.0  0.75456  0.76526  0.21801  1.0000
  C   C2184     1.0  0.80511  0.82444  0.15065  1.0000
  H   H3862     1.0  0.86599  0.95151  0.34971  1.0000
  Fe  Fe246     1.0  0.76582  0.83090  0.45904  1.0000
  N   N121      1.0  0.90129  0.95469  0.33523  1.0000
  H   H3863     1.0  0.99227  0.95665  0.15469  1.0000
  H   H3864     1.0  0.83145  0.97040  0.05187  1.0000
  C   C2185     1.0  0.93942  0.98770  0.02593  1.0000
  H   H3865     1.0  0.97326  0.93201  0.16131  1.0000
  C   C2186     1.0  0.97829  0.93901  0.17981  1.0000
  H   H3866     1.0  0.92928  0.95154  0.34184  1.0000
  C   C2187     1.0  0.80569  0.81263  0.17625  1.0000
  H   H3867     1.0  0.75964  0.76548  0.10242  1.0000
  H   H3868     1.0  0.85689  0.99011  0.33965  1.0000
  H   H3869     1.0  0.89371  0.90969  0.47592  1.0000
  C   C2188     1.0  0.89958  0.93972  0.35534  1.0000
  H   H3870     1.0  0.76233  0.73415  0.38959  1.0000
  C   C2189     1.0  0.86836  0.96379  0.33856  1.0000
  H   H3871     1.0  0.76264  0.73841  0.03290  1.0000
  S   S489      1.0  0.77233  0.84950  0.99094  1.0000
  H   H3872     1.0  0.76355  0.71878  0.43630  1.0000
  H   H3873     1.0  0.86709  0.96462  0.45628  1.0000
  H   H3874     1.0  0.75983  0.79214  0.07145  1.0000
  H   H3875     1.0  0.77896  0.77271  0.38358  1.0000
  H   H3876     1.0  0.86670  0.95052  0.04609  1.0000
  H   H3877     1.0  0.85641  0.98751  0.24918  1.0000
  C   C2190     1.0  0.88769  0.96901  0.34039  1.0000
  H   H3878     1.0  0.89858  0.92874  0.25686  1.0000
  H   H3879     1.0  0.80048  0.81654  0.13293  1.0000
  H   H3880     1.0  0.79021  0.76637  0.43215  1.0000
  H   H3881     1.0  0.91183  0.95109  0.39280  1.0000
  H   H3882     1.0  0.77019  0.70843  0.01605  1.0000
  C   C2191     1.0  0.89813  0.92856  0.40516  1.0000
  H   H3883     1.0  0.96354  0.97681  0.01028  1.0000
  N   N122      1.0  0.82487  0.84233  0.11836  1.0000
  C   C2192     1.0  0.82104  0.83139  0.09298  1.0000
  C   C2193     1.0  0.81308  0.85858  0.11892  1.0000
  C   C2194     1.0  0.84355  0.84795  0.11604  1.0000
  C   C2195     1.0  0.82318  0.83212  0.14498  1.0000
  H   H3884     1.0  0.87718  0.92033  0.26242  1.0000
  C   C2196     1.0  0.83285  0.81481  0.08854  1.0000
  C   C2197     1.0  0.84954  0.86162  0.13775  1.0000
  C   C2198     1.0  0.84779  0.98893  0.13809  1.0000
  C   C2199     1.0  0.76975  0.73963  0.40729  1.0000
  H   H3885     1.0  0.75336  0.77120  0.16687  1.0000
  C   C2200     1.0  0.82662  0.80423  0.06358  1.0000
  C   C2201     1.0  0.86844  0.86650  0.13260  1.0000
  H   H3886     1.0  0.82214  0.83949  0.07394  1.0000
  H   H3887     1.0  0.80739  0.82707  0.09285  1.0000
  H   H3888     1.0  0.81174  0.86367  0.14060  1.0000
  H   H3889     1.0  0.81902  0.86926  0.10702  1.0000
  H   H3890     1.0  0.84581  0.85352  0.09495  1.0000
  H   H3891     1.0  0.85281  0.83656  0.11809  1.0000
  H   H3892     1.0  0.83330  0.82141  0.14605  1.0000
  H   H3893     1.0  0.82589  0.84051  0.16328  1.0000
  H   H3894     1.0  0.86765  0.91553  0.03387  1.0000
  H   H3895     1.0  0.83028  0.94452  0.02107  1.0000
  H   H3896     1.0  0.84649  0.81834  0.08415  1.0000
  H   H3897     1.0  0.83272  0.80617  0.10701  1.0000
  H   H3898     1.0  0.84887  0.85642  0.15924  1.0000
  H   H3899     1.0  0.84144  0.87387  0.13670  1.0000
  S   S490      1.0  0.89490  0.98921  0.42214  1.0000
  C   C2202     1.0  0.77230  0.77914  0.40163  1.0000
  H   H3900     1.0  0.81480  0.80127  0.17284  1.0000
  C   C2203     1.0  0.89983  0.97434  0.47373  1.0000
  H   H3901     1.0  0.86768  0.97015  0.20878  1.0000
  C   C2204     1.0  0.98341  0.91546  0.09958  1.0000
  C   C2205     1.0  0.95580  0.98918  0.00726  1.0000
  H   H3902     1.0  0.82640  0.81231  0.04436  1.0000
  H   H3903     1.0  0.83563  0.79281  0.06013  1.0000
  H   H3904     1.0  0.81334  0.79937  0.06736  1.0000
  H   H3905     1.0  0.87238  0.87637  0.14817  1.0000
  H   H3906     1.0  0.87740  0.85488  0.13450  1.0000
  H   H3907     1.0  0.86983  0.87226  0.11155  1.0000
  H   H3908     1.0  0.79539  0.85579  0.08313  1.0000
  S   S491      1.0  0.89404  0.98379  0.05706  1.0000
  H   H3909     1.0  0.98282  0.90140  0.10028  1.0000
  C   C2206     1.0  0.84348  0.93927  0.02652  1.0000
  C   C2207     1.0  0.99530  0.94769  0.17225  1.0000
  H   H3910     1.0  0.84141  0.93054  0.04467  1.0000
  H   H3911     1.0  0.86502  0.94951  0.98246  1.0000
  H   H3912     1.0  0.77967  0.78613  0.44444  1.0000
  C   C2208     1.0  0.74562  0.69175  0.38955  1.0000
  C   C2209     1.0  0.94287  0.98276  0.32589  1.0000
  H   H3913     1.0  0.79542  0.83515  0.15509  1.0000
  C   C2210     1.0  0.88787  0.93352  0.29846  1.0000
  H   H3914     1.0  0.80987  0.81997  0.19497  1.0000
  H   H3915     1.0  0.76765  0.77866  0.13053  1.0000
  C   C2211     1.0  0.77733  0.71937  0.00850  1.0000
  H   H3916     1.0  0.75435  0.75925  0.36684  1.0000
  H   H3917     1.0  0.88838  0.95361  0.39180  1.0000
  H   H3918     1.0  0.87962  0.94340  0.25772  1.0000
  H   H3919     1.0  0.80830  0.78330  0.39945  1.0000
  H   H3920     1.0  0.76339  0.83196  0.35089  1.0000
  H   H3921     1.0  0.85638  0.96428  0.01997  1.0000
  H   H3922     1.0  0.91593  0.98574  0.31401  1.0000
  H   H3923     1.0  0.92770  0.96822  0.29719  1.0000
  C   C2212     1.0  0.77308  0.73641  0.01799  1.0000
  H   H3924     1.0  0.79244  0.80771  0.18021  1.0000
  C   C2213     1.0  0.94462  0.98581  0.05657  1.0000
  H   H3925     1.0  0.76984  0.79291  0.39491  1.0000
  H   H3926     1.0  0.78939  0.88531  0.10384  1.0000
  C   C2214     1.0  0.81061  0.90156  0.98393  1.0000
  H   H3927     1.0  0.78095  0.78530  0.08478  1.0000
  C   C2215     1.0  0.85612  0.97771  0.35133  1.0000
  H   H3928     1.0  0.82495  0.92406  0.45912  1.0000
  H   H3929     1.0  0.99270  0.96791  0.20359  1.0000
  S   S492      1.0  0.75458  0.81111  0.99103  1.0000
  C   C2216     1.0  0.80035  0.73091  0.98045  1.0000
  C   C2217     1.0  0.90611  0.98286  0.23632  1.0000
  H   H3930     1.0  0.90439  0.96290  0.46234  1.0000
  C   C2218     1.0  0.89963  0.94467  0.38677  1.0000
  C   C2219     1.0  0.89617  0.90219  0.00598  1.0000
  H   H3931     1.0  0.87834  0.93219  0.01575  1.0000
  H   H3932     1.0  0.79634  0.90338  0.98729  1.0000
  H   H3933     1.0  0.85127  0.98875  0.11564  1.0000
  H   H3934     1.0  0.89818  0.93256  0.42744  1.0000
  H   H3935     1.0  0.75220  0.79113  0.35755  1.0000
  C   C2220     1.0  0.79599  0.74797  0.98976  1.0000
  H   H3936     1.0  0.78234  0.71423  0.41464  1.0000
  H   H3937     1.0  0.93388  0.98494  0.15510  1.0000
  H   H3938     1.0  0.90247  0.89210  0.99238  1.0000
  C   C2221     1.0  0.74980  0.83081  0.35636  1.0000
  Fe  Fe247     1.0  0.78548  0.66894  0.98722  1.0000
  H   H3939     1.0  0.75167  0.68280  0.32056  1.0000
  C   C2222     1.0  0.84309  0.95434  0.47328  1.0000
  H   H3940     1.0  0.93274  0.98439  0.06943  1.0000
  C   C2223     1.0  0.89974  0.99294  0.25904  1.0000
  C   C2224     1.0  0.85498  0.96970  0.46648  1.0000
  H   H3941     1.0  0.88124  0.98898  0.16453  1.0000
  H   H3942     1.0  0.94692  0.99210  0.30967  1.0000
  H   H3943     1.0  0.94087  0.99176  0.12115  1.0000
  H   H3944     1.0  0.76718  0.68064  0.27630  1.0000
  H   H3945     1.0  0.80359  0.75881  0.98306  1.0000
  H   H3946     1.0  0.90484  0.91349  0.00721  1.0000
  H   H3947     1.0  0.90880  0.99347  0.12403  1.0000
  H   H3948     1.0  0.95323  0.97237  0.32801  1.0000
  H   H3949     1.0  0.87062  0.89587  0.99188  1.0000
  C   C2225     1.0  0.87836  0.90778  0.99390  1.0000
  H   H3950     1.0  0.92003  0.98171  0.23275  1.0000
  H   H3951     1.0  0.74765  0.68669  0.25707  1.0000
  H   H3952     1.0  0.83348  0.99147  0.13990  1.0000
  H   H3953     1.0  0.75784  0.69406  0.37793  1.0000
  H   H3954     1.0  0.81491  0.88883  0.99306  1.0000
  C   C2226     1.0  0.84029  0.91367  0.99531  1.0000
  S   S493      1.0  0.79785  0.69518  0.97853  1.0000
  C   C2227     1.0  0.83289  0.91665  0.47477  1.0000
  H   H3955     1.0  0.98619  0.97449  0.98227  1.0000
  H   H3956     1.0  0.94158  0.98994  0.34594  1.0000
  H   H3957     1.0  0.74565  0.74725  0.42685  1.0000
  Fe  Fe248     1.0  0.91827  0.93523  0.60515  1.0000
  S   S494      1.0  0.91392  0.96311  0.61863  1.0000
  S   S495      1.0  0.94474  0.92142  0.61265  1.0000
  Fe  Fe249     1.0  0.87864  0.92918  0.59490  1.0000
  S   S496      1.0  0.87235  0.95678  0.60911  1.0000
  S   S497      1.0  0.85344  0.91468  0.58233  1.0000
  Fe  Fe250     1.0  0.89493  0.96427  0.58237  1.0000
  C   C2228     1.0  0.94312  0.95410  0.68320  1.0000
  Fe  Fe251     1.0  0.89177  0.95335  0.64431  1.0000
  S   S498      1.0  0.88599  0.95803  0.69125  1.0000
  S   S499      1.0  0.90075  0.93701  0.56693  1.0000
  S   S500      1.0  0.89666  0.92518  0.63200  1.0000
  H   H3958     1.0  0.94406  0.94915  0.92536  1.0000
  H   H3959     1.0  0.95616  0.94656  0.57101  1.0000
  H   H3960     1.0  0.96580  0.97344  0.65788  1.0000
  H   H3961     1.0  0.78511  0.71255  0.88585  1.0000
  S   S501      1.0  0.77785  0.82002  0.53730  1.0000
  H   H3962     1.0  0.88700  0.97839  0.78917  1.0000
  H   H3963     1.0  0.80882  0.79849  0.61254  1.0000
  N   N123      1.0  0.95238  0.99228  0.97666  1.0000
  S   S502      1.0  0.76705  0.82766  0.91347  1.0000
  C   C2229     1.0  0.82268  0.90072  0.48294  1.0000
  H   H3964     1.0  0.81116  0.72882  0.96626  1.0000
  Fe  Fe252     1.0  0.79250  0.83722  0.50765  1.0000
  S   S503      1.0  0.81914  0.84926  0.51929  1.0000
  H   H3965     1.0  0.89747  0.90261  0.51132  1.0000
  C   C2230     1.0  0.80295  0.73159  0.50318  1.0000
  H   H3966     1.0  0.76288  0.80059  0.58780  1.0000
  S   S504      1.0  0.80241  0.69567  0.50295  1.0000
  H   H3967     1.0  0.76885  0.82767  0.85360  1.0000
  C   C2231     1.0  0.85180  0.95202  0.52330  1.0000
  Fe  Fe253     1.0  0.77428  0.80127  0.50152  1.0000
  H   H3968     1.0  0.93037  0.97546  0.97427  1.0000
  N   N124      1.0  0.75779  0.76463  0.92077  1.0000
  H   H3969     1.0  0.76148  0.83891  0.58646  1.0000
  H   H3970     1.0  0.80731  0.78107  0.89624  1.0000
  S   S505      1.0  0.76710  0.77245  0.50365  1.0000
  H   H3971     1.0  0.81509  0.78588  0.93081  1.0000
  H   H3972     1.0  0.93914  0.94728  0.66386  1.0000
  H   H3973     1.0  0.82360  0.93424  0.50650  1.0000
  H   H3974     1.0  0.88063  0.91304  0.97279  1.0000
  H   H3975     1.0  0.75420  0.86311  0.86491  1.0000
  H   H3976     1.0  0.76745  0.72122  0.59232  1.0000
  H   H3977     1.0  0.84342  0.90892  0.97388  1.0000
  H   H3978     1.0  0.74819  0.78525  0.94792  1.0000
  H   H3979     1.0  0.76252  0.76983  0.96466  1.0000
  C   C2232     1.0  0.89166  0.97319  0.71824  1.0000
  H   H3980     1.0  0.85398  0.94265  0.54072  1.0000
  H   H3981     1.0  0.75610  0.76123  0.86101  1.0000
  H   H3982     1.0  0.81700  0.72968  0.50387  1.0000
  C   C2233     1.0  0.95968  0.97472  0.85241  1.0000
  S   S506      1.0  0.89006  0.98122  0.92459  1.0000
  H   H3983     1.0  0.75278  0.73857  0.50116  1.0000
  H   H3984     1.0  0.79466  0.76164  0.93143  1.0000
  C   C2234     1.0  0.83636  0.96449  0.53190  1.0000
  C   C2235     1.0  0.77779  0.73001  0.58534  1.0000
  H   H3985     1.0  0.94563  0.97273  0.84805  1.0000
  C   C2236     1.0  0.89872  0.97370  0.50302  1.0000
  C   C2237     1.0  0.97262  0.96068  0.66212  1.0000
  H   H3986     1.0  0.76869  0.71045  0.91229  1.0000
  H   H3987     1.0  0.90255  0.96190  0.51405  1.0000
  C   C2238     1.0  0.84429  0.89613  0.56515  1.0000
  C   C2239     1.0  0.85455  0.88316  0.55185  1.0000
  C   C2240     1.0  0.84663  0.86894  0.53839  1.0000
  C   C2241     1.0  0.82832  0.86733  0.53778  1.0000
  C   C2242     1.0  0.81807  0.88032  0.55113  1.0000
  C   C2243     1.0  0.82599  0.89453  0.56462  1.0000
  H   H3988     1.0  0.86860  0.88405  0.55187  1.0000
  H   H3989     1.0  0.85480  0.85910  0.52817  1.0000
  H   H3990     1.0  0.80401  0.87947  0.55088  1.0000
  H   H3991     1.0  0.81780  0.90441  0.57467  1.0000
  C   C2244     1.0  0.98061  0.91897  0.61180  1.0000
  C   C2245     1.0  0.96559  0.92738  0.60053  1.0000
  C   C2246     1.0  0.96759  0.94002  0.57994  1.0000
  H   H3992     1.0  0.97919  0.90911  0.62764  1.0000
  C   C2247     1.0  0.89211  0.98230  0.96130  1.0000
  H   H3993     1.0  0.78340  0.74458  0.89019  1.0000
  H   H3994     1.0  0.88001  0.95803  0.75061  1.0000
  C   C2248     1.0  0.77228  0.73711  0.89786  1.0000
  C   C2249     1.0  0.75134  0.83361  0.62744  1.0000
  C   C2250     1.0  0.86716  0.93447  0.48779  1.0000
  C   C2251     1.0  0.74679  0.86862  0.84683  1.0000
  H   H3995     1.0  0.93861  0.96800  0.68208  1.0000
  C   C2252     1.0  0.77742  0.75134  0.50251  1.0000
  C   C2253     1.0  0.75087  0.82370  0.88725  1.0000
  H   H3996     1.0  0.76771  0.78984  0.91076  1.0000
  H   H3997     1.0  0.98383  0.98630  0.68875  1.0000
  H   H3998     1.0  0.86379  0.95986  0.52313  1.0000
  H   H3999     1.0  0.89613  0.95451  0.96557  1.0000
  H   H4000     1.0  0.83024  0.94109  0.95442  1.0000
  H   H4001     1.0  0.78750  0.73150  0.60234  1.0000
  H   H4002     1.0  0.77673  0.77273  0.89014  1.0000
  C   C2254     1.0  0.89289  0.91374  0.49812  1.0000
  C   C2255     1.0  0.98440  0.94378  0.57018  1.0000
  S   S507      1.0  0.89048  0.98811  0.55471  1.0000
  H   H4003     1.0  0.74611  0.70455  0.68485  1.0000
  H   H4004     1.0  0.83526  0.97581  0.51757  1.0000
  H   H4005     1.0  0.78666  0.78033  0.95097  1.0000
  H   H4006     1.0  0.75400  0.78095  0.64020  1.0000
  H   H4007     1.0  0.96768  0.96429  0.84202  1.0000
  Fe  Fe254     1.0  0.77071  0.82640  0.96145  1.0000
  H   H4008     1.0  0.75237  0.73761  0.92889  1.0000
  H   H4009     1.0  0.87722  0.94459  0.48859  1.0000
  S   S508      1.0  0.74949  0.81479  0.48681  1.0000
  Fe  Fe255     1.0  0.78911  0.66956  0.49773  1.0000
  C   C2256     1.0  0.96294  0.95251  0.68702  1.0000
  H   H4010     1.0  0.86605  0.90735  0.50261  1.0000
  H   H4011     1.0  0.78457  0.72386  0.56718  1.0000
  H   H4012     1.0  0.81057  0.90459  0.49435  1.0000
  H   H4013     1.0  0.96634  0.95892  0.70695  1.0000
  H   H4014     1.0  0.81554  0.94657  0.64315  1.0000
  H   H4015     1.0  0.96962  0.98331  0.80040  1.0000
  H   H4016     1.0  0.85149  0.97852  0.56273  1.0000
  H   H4017     1.0  0.74876  0.74802  0.60582  1.0000
  H   H4018     1.0  0.83322  0.97010  0.93391  1.0000
  C   C2257     1.0  0.93386  0.95960  0.92228  1.0000
  C   C2258     1.0  0.94028  0.97706  0.93281  1.0000
  H   H4019     1.0  0.77222  0.78398  0.56655  1.0000
  H   H4020     1.0  0.95228  0.97986  0.92116  1.0000
  H   H4021     1.0  0.86035  0.93199  0.96033  1.0000
  C   C2259     1.0  0.89078  0.98135  0.76805  1.0000
  C   C2260     1.0  0.89265  0.98835  0.51794  1.0000
  C   C2261     1.0  0.88687  0.96975  0.74602  1.0000
  H   H4022     1.0  0.93077  0.96060  0.89970  1.0000
  H   H4023     1.0  0.79163  0.81274  0.59914  1.0000
  C   C2262     1.0  0.79555  0.74870  0.50313  1.0000
  H   H4024     1.0  0.98577  0.95323  0.55371  1.0000
  H   H4025     1.0  0.76400  0.83391  0.63743  1.0000
  N   N125      1.0  0.75305  0.77504  0.59609  1.0000
  N   N126      1.0  0.84970  0.90820  0.67928  1.0000
  C   C2263     1.0  0.84164  0.89467  0.69756  1.0000
  C   C2264     1.0  0.86448  0.91683  0.69450  1.0000
  C   C2265     1.0  0.83574  0.92208  0.67318  1.0000
  C   C2266     1.0  0.85585  0.90068  0.65181  1.0000
  C   C2267     1.0  0.86892  0.88489  0.65306  1.0000
  C   C2268     1.0  0.82607  0.88494  0.68478  1.0000
  C   C2269     1.0  0.84172  0.93813  0.65648  1.0000
  C   C2270     1.0  0.87567  0.90549  0.71504  1.0000
  C   C2271     1.0  0.89201  0.91488  0.72424  1.0000
  C   C2272     1.0  0.87226  0.87735  0.62398  1.0000
  C   C2273     1.0  0.82014  0.87055  0.70424  1.0000
  Fe  Fe256     1.0  0.75407  0.83425  0.52071  1.0000
  H   H4026     1.0  0.83708  0.90085  0.71741  1.0000
  H   H4027     1.0  0.85144  0.88447  0.70390  1.0000
  H   H4028     1.0  0.87349  0.92271  0.67932  1.0000
  H   H4029     1.0  0.85943  0.92805  0.70732  1.0000
  H   H4030     1.0  0.82981  0.92696  0.69303  1.0000
  H   H4031     1.0  0.82494  0.91664  0.66071  1.0000
  H   H4032     1.0  0.84455  0.89712  0.63855  1.0000
  H   H4033     1.0  0.86251  0.91074  0.63962  1.0000
  H   H4034     1.0  0.86404  0.87425  0.66616  1.0000
  H   H4035     1.0  0.88168  0.88909  0.66115  1.0000
  H   H4036     1.0  0.81465  0.89395  0.68140  1.0000
  H   H4037     1.0  0.82970  0.87871  0.66464  1.0000
  H   H4038     1.0  0.84548  0.93423  0.63503  1.0000
  H   H4039     1.0  0.85297  0.94438  0.66649  1.0000
  H   H4040     1.0  0.86794  0.90283  0.73403  1.0000
  H   H4041     1.0  0.87993  0.89283  0.70592  1.0000
  H   H4042     1.0  0.88837  0.92742  0.73465  1.0000
  H   H4043     1.0  0.89966  0.90663  0.73916  1.0000
  H   H4044     1.0  0.90040  0.91758  0.70600  1.0000
  H   H4045     1.0  0.87788  0.88730  0.61016  1.0000
  H   H4046     1.0  0.88170  0.86608  0.62533  1.0000
  H   H4047     1.0  0.85994  0.87280  0.61456  1.0000
  H   H4048     1.0  0.81603  0.87610  0.72468  1.0000
  H   H4049     1.0  0.80885  0.86397  0.69480  1.0000
  H   H4050     1.0  0.83084  0.86063  0.70754  1.0000
  H   H4051     1.0  0.79047  0.77307  0.60754  1.0000
  H   H4052     1.0  0.96187  0.97370  0.87520  1.0000
  H   H4053     1.0  0.81312  0.90124  0.96115  1.0000
  H   H4054     1.0  0.95071  0.96438  0.97042  1.0000
  H   H4055     1.0  0.90166  0.92476  0.50181  1.0000
  C   C2274     1.0  0.83894  0.95023  0.96518  1.0000
  H   H4056     1.0  0.80388  0.75980  0.50387  1.0000
  H   H4057     1.0  0.85865  0.97704  0.48540  1.0000
  S   S509      1.0  0.76849  0.85214  0.49191  1.0000
  C   C2275     1.0  0.76364  0.74576  0.92370  1.0000
  H   H4058     1.0  0.78963  0.71918  0.92109  1.0000
  C   C2276     1.0  0.83896  0.97166  0.56126  1.0000
  C   C2277     1.0  0.79237  0.71694  0.50241  1.0000
  H   H4059     1.0  0.99063  0.99222  0.48147  1.0000
  H   H4060     1.0  0.74708  0.82356  0.81577  1.0000
  C   C2278     1.0  0.82702  0.95198  0.65392  1.0000
  C   C2279     1.0  0.84480  0.96337  0.94347  1.0000
  H   H4061     1.0  0.87384  0.92231  0.52826  1.0000
  H   H4062     1.0  0.76812  0.75603  0.62033  1.0000
  C   C2280     1.0  0.78925  0.77517  0.92976  1.0000
  H   H4063     1.0  0.84032  0.91992  0.51845  1.0000
  H   H4064     1.0  0.94837  0.99220  0.80631  1.0000
  C   C2281     1.0  0.89480  0.96682  0.97652  1.0000
  H   H4065     1.0  0.97672  0.98030  0.61597  1.0000
  C   C2282     1.0  0.77932  0.71873  0.90477  1.0000
  H   H4066     1.0  0.76096  0.74548  0.55906  1.0000
  H   H4067     1.0  0.85250  0.95675  0.92670  1.0000
  H   H4068     1.0  0.79868  0.80000  0.91486  1.0000
  H   H4069     1.0  0.83896  0.96090  0.57672  1.0000
  H   H4070     1.0  0.97013  0.95238  0.64351  1.0000
  H   H4071     1.0  0.82309  0.95691  0.67484  1.0000
  C   C2283     1.0  0.77246  0.77596  0.91162  1.0000
  H   H4072     1.0  0.78020  0.78949  0.62943  1.0000
  H   H4073     1.0  0.78071  0.75576  0.56931  1.0000
  C   C2284     1.0  0.80341  0.78622  0.91704  1.0000
  H   H4074     1.0  0.96642  0.93837  0.68856  1.0000
  H   H4075     1.0  0.76591  0.70850  0.50100  1.0000
  C   C2285     1.0  0.94347  0.97669  0.96476  1.0000
  C   C2286     1.0  0.76683  0.73670  0.50164  1.0000
  H   H4076     1.0  0.97648  0.96793  0.94984  1.0000
  H   H4077     1.0  0.82378  0.95778  0.53166  1.0000
  H   H4078     1.0  0.76250  0.73588  0.88096  1.0000
  C   C2287     1.0  0.90038  0.98859  0.71289  1.0000
  H   H4079     1.0  0.83165  0.96313  0.64153  1.0000
  H   H4080     1.0  0.92180  0.95606  0.93337  1.0000
  H   H4081     1.0  0.93652  0.94799  0.70109  1.0000
  H   H4082     1.0  0.75133  0.78393  0.86791  1.0000
  C   C2288     1.0  0.75977  0.75663  0.60130  1.0000
  H   H4083     1.0  0.77272  0.74407  0.94174  1.0000
  C   C2289     1.0  0.74996  0.83632  0.59850  1.0000
  C   C2290     1.0  0.76769  0.78675  0.58821  1.0000
  C   C2291     1.0  0.78389  0.78616  0.60771  1.0000
  C   C2292     1.0  0.76991  0.74776  0.57681  1.0000
  H   H4084     1.0  0.80182  0.79625  0.57688  1.0000
  H   H4085     1.0  0.99507  0.94110  0.69413  1.0000
  C   C2293     1.0  0.79731  0.79923  0.59841  1.0000
  C   C2294     1.0  0.75555  0.82479  0.85892  1.0000
  C   C2295     1.0  0.98239  0.97892  0.96106  1.0000
  H   H4086     1.0  0.85296  0.97339  0.95337  1.0000
  C   C2296     1.0  0.87410  0.91896  0.50581  1.0000
  C   C2297     1.0  0.77422  0.71961  0.50157  1.0000
  H   H4087     1.0  0.99435  0.96998  0.70941  1.0000
  C   C2298     1.0  0.99475  0.97637  0.68862  1.0000
  N   N127      1.0  0.84962  0.94232  0.49613  1.0000
  H   H4088     1.0  0.83093  0.89198  0.49626  1.0000
  C   C2299     1.0  0.83647  0.92836  0.50045  1.0000
  H   H4089     1.0  0.74990  0.86045  0.82825  1.0000
  H   H4090     1.0  0.93017  0.98723  0.92751  1.0000
  H   H4091     1.0  0.90400  0.99164  0.69174  1.0000
  H   H4092     1.0  0.82815  0.98108  0.56645  1.0000
  H   H4093     1.0  0.75112  0.88209  0.84319  1.0000
  N   N128      1.0  0.99203  0.96305  0.66589  1.0000
  C   C2300     1.0  0.98964  0.98423  0.62394  1.0000
  H   H4094     1.0  0.74677  0.77067  0.55282  1.0000
  S   S510      1.0  0.75783  0.66453  0.97375  1.0000
  S   S511      1.0  0.76172  0.66726  0.48167  1.0000
  C   C2301     1.0  0.75182  0.77108  0.94906  1.0000
  H   H4095     1.0  0.74782  0.68583  0.56837  1.0000
  C   C2302     1.0  0.96493  0.99269  0.84242  1.0000
  C   C2303     1.0  0.74629  0.77057  0.86988  1.0000
  S   S512      1.0  0.79618  0.81415  0.97730  1.0000
  H   H4096     1.0  0.95862  0.99052  0.71859  1.0000
  C   C2304     1.0  0.85483  0.94002  0.97767  1.0000
