data_image0
_chemical_formula_structural       HSFeHSHS2FeH5SC5H2CH3CH2NH6CHC3HCHCH2CNH2CH2CFeCH9C2H4C2H3FeH8CH2CNH3CH3FeHCH3CHCHCH3CHCHC4HC2H3CH2C2SH2C3H6C2HC2HCH3SH13C2HCFeH4CHSHC5HSHCHCH2SH5SH3SCSH2CFeS2FeS2FeSFeS3FeS2FeS2FeSFeS3C6H4C6H3C7H3C7H4C6H4CH2CH2C3H2CHCH6FeH3C2H2CH4CH3C2H4C2HCH3C2H4CHCHNCH15SH6CHCH4C4HFeHCNH4CH2CHCH8S2H4C2HNC10H5CH17CHCH3C2HCH4NC2HC3HC2HCH3CH2CH6CNH9CHCHCH2CH11CH2CH3CHCHC4H5CH3CH3NCH3C3FeS2FeS2FeSFeS3FeS2FeS2FeSFeS3FeSCFeS2FeSFeCSCFeS2FeS2FeSHS3HC7H3CHC9H4C6H4C6H4C6H4C6H4NC2H10C2HC3H2CSCH3CHCH4CHNCHC4NH2CH8CH13CNC11H26NC12H20C2H3CH3CH3NC12H28CHCH4CH4CHCHCH4C2HSHFeH3C5H5CH7CNH2CH2C2H3CH3CH7SCHSHCH3C2H3CH2NHC2HCH4FeSFeHSHS2FeHCHCHSHC3HC2NHCHCH6C3H11C5HCSCH3NHFeSHCH4CH6CH2CH6SHCHCHC2H3C4H3CHNCH6C3FeSHNH9FeHCSC2H3CHCH3C2H2CH2C2H2CH6CHC3HC3H2C2NH4CH3C2SC3HSH3FeS2FeS2FeSFeS3FeS2FeS2FeSFeS3C6H4C6H4C6H4C7H3C6H4CFeH11C3H3CSH6NC8HC3H16CHCH9C3H3CH2NHSH2FeSHCNH2C2H4CH2CH4CH4CH3CHC4HCHC2H4C2H4CH2NHCH7CHCSCH3CH15CH3CH3CH3C3H2NH3CH2C2H2C2H3CH3CHCH2CH7C5HCH3FeSHFeS2FeSFeS3FeS2FeS2FeSFeS3FeS2FeSHFeSFeHSHFeS2FeS2FeSHS3C7H3CH2SH2C6H4C6H4C6H4C6H4C6H5CNH8CH2CH3CHCH6C2HCH6CHCHCHC2SH2NC9H18NC11H24CHCH4CHCH2CH2CH2CH7FeCHCH6CH3C4SHCH3CH9CHNCH2CNHC2H2C2H2C2H9CHC2H4CH2CHC4HCHCHC2H3CH9CHNCH3CH2CH3CHC2H2NH2CH3FeS2FeS2FeSFeS3FeSHFeS2FeSFeS3FeS2FeSHFeSFeS3FeSHFeS2FeSFeS3CHC2HC6H4C6H4C6H4C6H4C6H4C6H5C2H4CHCH5CHCH2NCH9NC12H29SHCH7CH2C5HC2HNHCH3CH2C2HCH2CHSH4SH7C2H9CH3C3HCH4CNH2C2H2CHCH2NCHCHCH5C2HCHC2H3CHC2H2NC2HC4H2CHC2H3CH3C2H3CH7C2HCH5CH6CH2CH3CNH4C3HCHCH8CH2SNHSFeSC2FeS2FeS2FeHFeS3FeS2FeSCFeCFeS3H2CH2C6H4C6H3C7H4C6H4C7HCH3C2H2CSH2C3H2CH6C2H10CH4CHC2H2FeC3HC2H8CHCH5CH7C2HFeHCH5C2SH5CH2C2HCH5C2H12C3H2CH2CHCHNH4CH5C2H5CHC2SH3CH5NH7CH4NCH3S3H3CNCH3NC3H2CHFeCSH3SFeHSCNS2CH4CH3FeCHC2H2CH5C2HSH4C3HCH3CHCHCSH3FeH4CH2CH4SCHCHCH2CHC3HCH7CHC3H2C2H3CHCSH3C3H5CH2NH5C2H3CHCH5CHC3H3CH2C3H2CHCHSFeCH4CHCH2CHCHNH3CHC2H6CFeS2FeS2FeSFeS3FeSHFeS2FeSFeS3FeS2FeSCFeSFeS3FeSCFeS2FeSFeS3H4C7H4C6H4C6H4C6H3C7H4C6H5CH4CHCHC2H2SHCH2NC12H28C2SH9NH3CH14CNCH3CH4CH3C2HCH2CH5CHCH2CH16CHCHC2H4CH3CNC12H17C2H6CH2NC12H17C2HCH3C2H3CH5C2HCH2CH4SC2H2C3HCNHCH2NCH4CH2CHC2H3CH4CH3CH2CH6CSC2SCSHCFeS2FeS2FeCFeS3FeS2FeSHFeCFeS3H4NC6H4C6H3C7H4C6H4C6H2SHCH2C2H5SHCH2CHFeH6CH2CHCHCHC2H5CHCSH2CH2C2H3NH2CH7CH7CHCH5CHCHCHCHCNCH2FeHSCH4CH4NC2H6CHCHCH5CHC2H2C5H3CH5C2H8SCHCH2C3H4C2H2CH4C2H6C2H7SH9CHCH2CH5C2NFeHSFeS3FeHSH2S2C3H2SH6C2H5CHCH3CH2CH3CH2CHCH2CHCH4CH5CH2SC2H8CH8C4H2NH3CHCH2CHCH7CSHC4FeC4HCH7CHCHC2H2CNH2CH3CH2CHCH2C2H11CH9NC2H2CH2FeH2CNC5HCHC2H2CH3FeC3NC2H3CFeSFeCHC2SFeCSCHCSHCHNHC2HC3H5CHCFeH3CH4CHCHCH2CHC3HCH3CH2CHCHCH4C2HCSH3C2H3NHFeH7SH4CH3C2H4CHCH4SH9NHCSCHCH3CNCH2C2H2CHSHSCSHCSFeSHFeSHFeHFeSHSFeS2FeS2FeHFeHS2HNC2H2CFeHC7H4C6H4C6H4C6H4C6H4SH3CH2CHC3H5CH3CH2CHC2H4CH3CSH2SH3SH3C2H3CSCH4SC2FeCH5CH4CHCH3CFeC2HNH3CH7SH3CH7C2H3C2H2C2H3CH8CHCH4C2HCH2CSC2NCHC2HCH4CH3CH2CH4CH3CH3CHCHSH3CHCH3CH2CNCH3CHC3H3C3H2CHCH3SH6C3H2CSFeS2FeS2FeSFeS3FeSHFeS2FeSFeHSHFeS2FeS2FeSFeHS2FeS2FeSHFeSFeS3H2CHC6H4C6H4C6H8C7H4C6H4C6H6C2H4C3H4CH3CHC5H12CH9C2HNC12H17SH15C2HC2H5SH9CH5C2H2CHSH5C2H5NH2C2HCH2CHC2HCH4C4HCH3CH2C3HCH6CH2CH4C2HC3HCH2C2H2NH3CH3SH3CHSC2H2C2HC3H3CH6NC3H3C2NCH2NCH4CH3CHCHFeCSHCSFeCH4SHCH3C2H3C3H3C3HC3H11C3HCHNH5C3HCFeH2C3H2CSH3CSH4C2H3CHSH2CH5CH4C2H2CH3SH4CH3CSH2CHCH2C2HCH2CH3CH4NCH4CH3CHCHCH3SFeSHSH2SFeS2FeSHFeHFeSHSHSCFeS2FeSFeS3C2H2NSH2C8HCH2C6H4C7SH2C6H4C6H4C2H8SCHNCHFeHCH3CHCSH2C2H4C3HC2H4CH3CHC2H2CSH2CH5C2H5CHCH2CH2CH2CH2CH5CHNC12H24C3HC2H8CHCH4C2HCH3CH5CHNFeHCH3CH5CH7CH6CHCH5C4SH2CH5FeCH2CH9CHCH4CH2SHFeH4FeCHCHC2FeS2FeS2FeSFeS3FeSCFeS2FeSFeHSCFeS2FeS2FeSFeHS2FeS2FeS2FeSFeS3H4C6H4C6H4C6H4CH2C8H4C6H4C6H2CHCH4C2H2CSC2NC4HC3H3CHCH8CH4NH8CH6C2H4C2H4CH3CH4CHCH4CHC3H2N2H4SH3NC12H28NC12H21C2H6CH2CHC2HCHC2HCH2CH2CH9CH4CHCH2CHC2H3CH7NH3CH3CH4CH3CH4CH4CHC2HNHCH3CHC2H2CH3SH3CSHCHC2FeS2FeS2FeCFeS3FeSHFeS2FeSFeHS2FeS2FeS2FeSFeS3FeS2FeS2FeSFeS3H7NC8H5C6H4C6H7C6H4C6H4C6SH4C2H5C2H5CHNHCSHCHCHCH3CNC12H30CH2NHCH3C2H9C3H2CH5CHCH6C3H4CH6NCHSH5NH9C2H4CH3CHCH4C3H2C3H3CH3CH3CH5C2H2C2H2CHCHCHCHCH2C2H7CH2C6H3CHC2HCH3C2H2CHCHC3H4CHCHCH6SH2S2HCH3FeS2FeS2FeCFeS3FeS2FeS2FeSFeS3HC3HC6H4C6H4C6H2CHC7H2C7H4C2SCSHC3H2CH6CH3CH5CH2NC12H21CH10CH5C2HCNH2SH6C2H8C2HC7H2CH2CHCFeH7CHCHCHFeCHCH2CNH3CHCHCH6CNCH9CHCHCH3C2HFeCH7C3H4CH6CH4CH7SHCHCH6CHSHNCH3CNSCSCHCFeSHFe2HFeSHSH2C2HCHCHSHC3H6NH2CHCH4SHC2SNH3CH7CHCH4CH4C2H5CH2C3H7C3HCHCH8C5H3CH2CSH12CHFeC2H6C3H2CNH2CHCHCH14CH2CHCH2CH2C2HCFeSHFeS2FeHFeS3FeS2FeS2FeSFeHS2FeS2FeS2FeHFeS3FeS2FeS2FeSFeS3CH3C4H2C6H4NC6H4C6H6C7H4C6H4C6H12CHC2HNC10H6CH12CH3NC12H28CH5NC3SHC2H3C4HNC11H21SCH6SH3C2HCH2CHCH2CH2CHC2H3CHCHCH11CH6CH2SH7CH3CH5CH2CH3CH4CH3CH3C2HC2H2CHCH2C2HNC2HCH4NH2CHCH3C3H4CHCH4C2HCH5C2HCH12CHCH2FeS3FeH2CFeS2FeS2FeSFeS3FeS2FeS2FeSFeS3CHC2HC6H4C6H5C5H3C2HC4H4C6H9C2H6CH3C2HCH5CH2C2H4CH4CHCHC2H3CH3CHCH2SH3SC4H2SHCHCHCH3CHCHCH5C3HCH2CHC3H4C2NC2H9CH4CH5CH4CH2SHCH4CHC3HCHCH6C3HN2CH2NH7CH4C2H2CNH3CH3CHNC3HCHCH7C2H2CH2CH5NCH3NH5S2FeSFeSHFeHSH3SC2H4SNC5H2CH3CH7CH4C3HFeH2CH4C4HCNH3CHCHCHCHCH2C2HCSC2NHCHC2H3CH3C2SCH2CH2CHC2HC2H5CH2CFeH5CH2CHCH4C3H3CHCH3CH4C2HCH5CHCH5CH5CH3CH2C2FeC2
_chemical_formula_sum              "H4096 S512 Fe256 C2304 N128"
_cell_length_a       85.4878
_cell_length_b       45.4326
_cell_length_c       63.6118
_cell_angle_alpha    89.7361
_cell_angle_beta     88.7337
_cell_angle_gamma    90.0402

_space_group_name_H-M_alt    "P 1"
_space_group_IT_number       1

loop_
  _space_group_symop_operation_xyz
  'x, y, z'

loop_
  _atom_site_type_symbol
  _atom_site_label
  _atom_site_symmetry_multiplicity
  _atom_site_fract_x
  _atom_site_fract_y
  _atom_site_fract_z
  _atom_site_occupancy
  H   H1        1.0  0.04852  0.10751  0.00418  1.0000
  S   S1        1.0  0.10561  0.06925  0.29621  1.0000
  Fe  Fe1       1.0  0.04663  0.05413  0.30495  1.0000
  H   H2        1.0  0.22857  0.40779  0.25427  1.0000
  S   S2        1.0  0.02411  0.06241  0.28663  1.0000
  H   H3        1.0  0.11420  0.48853  0.30444  1.0000
  S   S3        1.0  0.06374  0.08879  0.31489  1.0000
  S   S4        1.0  0.06557  0.02077  0.29806  1.0000
  Fe  Fe2       1.0  0.22585  0.02849  0.29437  1.0000
  H   H4        1.0  0.05187  0.06847  0.00541  1.0000
  H   H5        1.0  0.26392  0.06974  0.09911  1.0000
  H   H6        1.0  0.16681  0.47822  0.27424  1.0000
  H   H7        1.0  0.03094  0.44017  0.01414  1.0000
  H   H8        1.0  0.26217  0.12881  0.15539  1.0000
  S   S5        1.0  0.20875  0.06618  0.29944  1.0000
  C   C1        1.0  0.01854  0.10918  0.09358  1.0000
  C   C2        1.0  0.12369  0.05682  0.30608  1.0000
  C   C3        1.0  0.13778  0.06845  0.29773  1.0000
  C   C4        1.0  0.15235  0.05892  0.30522  1.0000
  C   C5        1.0  0.25477  0.05842  0.08991  1.0000
  H   H9        1.0  0.03909  0.02464  0.16409  1.0000
  H   H10       1.0  0.03654  0.11925  0.22185  1.0000
  C   C6        1.0  0.10506  0.15400  0.32276  1.0000
  H   H11       1.0  0.23510  0.09942  0.07286  1.0000
  H   H12       1.0  0.25420  0.16845  0.09242  1.0000
  H   H13       1.0  0.24428  0.14511  0.01060  1.0000
  C   C7        1.0  0.02270  0.08127  0.08134  1.0000
  H   H14       1.0  0.03834  0.00375  0.05555  1.0000
  H   H15       1.0  0.03476  0.08413  0.07496  1.0000
  N   N1        1.0  0.25473  0.06991  0.06754  1.0000
  H   H16       1.0  0.01898  0.01456  0.24518  1.0000
  H   H17       1.0  0.01988  0.06973  0.19044  1.0000
  H   H18       1.0  0.18411  0.45824  0.32489  1.0000
  H   H19       1.0  0.03957  0.13618  0.30752  1.0000
  H   H20       1.0  0.03482  0.09157  0.15872  1.0000
  H   H21       1.0  0.26124  0.40709  0.00143  1.0000
  C   C8        1.0  0.03010  0.05557  0.03729  1.0000
  H   H22       1.0  0.09265  0.16889  0.29529  1.0000
  C   C9        1.0  0.24065  0.06307  0.03232  1.0000
  C   C10       1.0  0.23948  0.41917  0.28384  1.0000
  C   C11       1.0  0.23373  0.03942  0.01827  1.0000
  H   H23       1.0  0.04571  0.03371  0.25358  1.0000
  C   C12       1.0  0.03678  0.04672  0.17082  1.0000
  H   H24       1.0  0.04805  0.18598  0.29842  1.0000
  C   C13       1.0  0.02020  0.22232  0.12819  1.0000
  H   H25       1.0  0.06456  0.17577  0.26767  1.0000
  H   H26       1.0  0.24822  0.11091  0.05231  1.0000
  C   C14       1.0  0.25690  0.48116  0.23287  1.0000
  N   N2        1.0  0.01730  0.15863  0.30657  1.0000
  H   H27       1.0  0.25806  0.10474  0.22420  1.0000
  H   H28       1.0  0.23419  0.39947  0.29147  1.0000
  C   C15       1.0  0.02740  0.10973  0.23178  1.0000
  H   H29       1.0  0.25140  0.07170  0.02453  1.0000
  H   H30       1.0  0.04649  0.05259  0.18134  1.0000
  C   C16       1.0  0.25351  0.08077  0.25260  1.0000
  Fe  Fe3       1.0  0.19601  0.03641  0.32266  1.0000
  C   C17       1.0  0.03137  0.08363  0.02334  1.0000
  H   H31       1.0  0.24258  0.44525  0.00175  1.0000
  H   H32       1.0  0.03266  0.03648  0.02683  1.0000
  H   H33       1.0  0.24847  0.01165  0.08524  1.0000
  H   H34       1.0  0.24922  0.02850  0.05251  1.0000
  H   H35       1.0  0.04859  0.06861  0.14451  1.0000
  H   H36       1.0  0.16311  0.06793  0.29864  1.0000
  H   H37       1.0  0.08009  0.15618  0.31659  1.0000
  H   H38       1.0  0.24239  0.02164  0.01524  1.0000
  H   H39       1.0  0.26527  0.01271  0.28053  1.0000
  C   C18       1.0  0.13883  0.02629  0.32963  1.0000
  C   C19       1.0  0.24775  0.10051  0.06822  1.0000
  H   H40       1.0  0.02818  0.10367  0.03232  1.0000
  H   H41       1.0  0.23871  0.43768  0.29511  1.0000
  H   H42       1.0  0.26132  0.43413  0.26924  1.0000
  H   H43       1.0  0.04361  0.09204  0.25431  1.0000
  C   C20       1.0  0.26307  0.08535  0.23226  1.0000
  C   C21       1.0  0.26367  0.10693  0.14789  1.0000
  H   H44       1.0  0.02768  0.19771  0.31967  1.0000
  H   H45       1.0  0.26072  0.46500  0.29830  1.0000
  H   H46       1.0  0.02238  0.06273  0.09278  1.0000
  Fe  Fe4       1.0  0.08241  0.05413  0.31084  1.0000
  H   H47       1.0  0.24969  0.16209  0.06533  1.0000
  H   H48       1.0  0.24635  0.01996  0.19033  1.0000
  H   H49       1.0  0.25202  0.09731  0.14472  1.0000
  H   H50       1.0  0.23569  0.15219  0.08593  1.0000
  H   H51       1.0  0.24479  0.02194  0.12331  1.0000
  H   H52       1.0  0.13742  0.08477  0.28531  1.0000
  H   H53       1.0  0.02469  0.48111  0.14774  1.0000
  H   H54       1.0  0.25339  0.48648  0.16699  1.0000
  C   C22       1.0  0.01979  0.08176  0.26310  1.0000
  H   H55       1.0  0.11744  0.45473  0.28994  1.0000
  H   H56       1.0  0.01942  0.24403  0.13614  1.0000
  C   C23       1.0  0.03222  0.14804  0.29605  1.0000
  N   N3        1.0  0.01827  0.02393  0.19947  1.0000
  H   H57       1.0  0.13151  0.41998  0.32260  1.0000
  H   H58       1.0  0.23203  0.08132  0.03352  1.0000
  H   H59       1.0  0.02965  0.13136  0.28394  1.0000
  C   C24       1.0  0.02401  0.45850  0.00872  1.0000
  H   H60       1.0  0.21744  0.43292  0.27054  1.0000
  H   H61       1.0  0.25239  0.07917  0.18218  1.0000
  H   H62       1.0  0.19497  0.47881  0.26460  1.0000
  Fe  Fe5       1.0  0.06234  0.00583  0.33193  1.0000
  H   H63       1.0  0.17078  0.43147  0.31424  1.0000
  C   C25       1.0  0.04805  0.08793  0.01470  1.0000
  H   H64       1.0  0.25367  0.10116  0.26216  1.0000
  H   H65       1.0  0.23438  0.44586  0.25621  1.0000
  H   H66       1.0  0.03215  0.05009  0.22045  1.0000
  C   C26       1.0  0.03112  0.02681  0.21531  1.0000
  H   H67       1.0  0.02364  0.08179  0.00959  1.0000
  C   C27       1.0  0.09129  0.15208  0.30793  1.0000
  H   H68       1.0  0.25236  0.03525  0.16523  1.0000
  C   C28       1.0  0.25668  0.41353  0.27662  1.0000
  H   H69       1.0  0.24003  0.49305  0.02118  1.0000
  H   H70       1.0  0.09091  0.13003  0.30047  1.0000
  H   H71       1.0  0.04269  0.02111  0.20806  1.0000
  C   C29       1.0  0.22939  0.42687  0.26505  1.0000
  H   H72       1.0  0.02618  0.10263  0.32534  1.0000
  C   C30       1.0  0.25575  0.12262  0.08311  1.0000
  H   H73       1.0  0.14118  0.47547  0.27080  1.0000
  C   C31       1.0  0.02089  0.04757  0.18301  1.0000
  C   C32       1.0  0.04291  0.17212  0.28600  1.0000
  C   C33       1.0  0.25746  0.02500  0.09315  1.0000
  C   C34       1.0  0.03146  0.09431  0.25017  1.0000
  H   H74       1.0  0.25442  0.11553  0.09976  1.0000
  C   C35       1.0  0.03699  0.06897  0.15268  1.0000
  C   C36       1.0  0.25656  0.01693  0.11649  1.0000
  H   H75       1.0  0.01750  0.45903  0.06258  1.0000
  H   H76       1.0  0.24686  0.47850  0.22299  1.0000
  H   H77       1.0  0.03647  0.18656  0.27510  1.0000
  C   C37       1.0  0.19477  0.42552  0.30529  1.0000
  H   H78       1.0  0.02689  0.11223  0.10653  1.0000
  H   H79       1.0  0.04175  0.99756  0.26404  1.0000
  C   C38       1.0  0.26253  0.05765  0.21805  1.0000
  C   C39       1.0  0.12430  0.03575  0.32213  1.0000
  S   S6        1.0  0.24160  0.04265  0.32024  1.0000
  H   H80       1.0  0.24337  0.06361  0.09794  1.0000
  H   H81       1.0  0.25086  0.37416  0.30960  1.0000
  C   C40       1.0  0.04366  0.01039  0.24928  1.0000
  C   C41       1.0  0.05641  0.15830  0.27337  1.0000
  C   C42       1.0  0.18230  0.43463  0.32153  1.0000
  H   H82       1.0  0.26276  0.31215  0.30938  1.0000
  H   H83       1.0  0.11588  0.15018  0.31322  1.0000
  H   H84       1.0  0.05189  0.14647  0.25952  1.0000
  H   H85       1.0  0.17002  0.47987  0.24606  1.0000
  H   H86       1.0  0.26615  0.10469  0.19149  1.0000
  H   H87       1.0  0.24998  0.05360  0.21478  1.0000
  C   C43       1.0  0.26208  0.37238  0.30048  1.0000
  C   C44       1.0  0.24833  0.15314  0.08154  1.0000
  H   H88       1.0  0.03671  0.02755  0.07792  1.0000
  C   C45       1.0  0.15291  0.03764  0.32115  1.0000
  C   C46       1.0  0.25577  0.02012  0.17807  1.0000
  H   H89       1.0  0.06300  0.14257  0.28322  1.0000
  C   C47       1.0  0.24424  0.05090  0.05451  1.0000
  H   H90       1.0  0.25621  0.42061  0.32113  1.0000
  H   H91       1.0  0.03076  0.22177  0.11772  1.0000
  H   H92       1.0  0.02137  0.20507  0.14048  1.0000
  S   S7        1.0  0.23404  0.01128  0.26199  1.0000
  H   H93       1.0  0.05630  0.09137  0.02770  1.0000
  H   H94       1.0  0.23063  0.04931  0.00291  1.0000
  H   H95       1.0  0.14567  0.47944  0.23453  1.0000
  H   H96       1.0  0.03998  0.05624  0.04824  1.0000
  H   H97       1.0  0.24114  0.07544  0.24915  1.0000
  H   H98       1.0  0.19346  0.43902  0.29087  1.0000
  H   H99       1.0  0.23276  0.04755  0.06286  1.0000
  H   H100      1.0  0.19347  0.40195  0.30110  1.0000
  H   H101      1.0  0.25931  0.35821  0.28682  1.0000
  H   H102      1.0  0.22296  0.02991  0.02566  1.0000
  H   H103      1.0  0.01918  0.12881  0.08313  1.0000
  H   H104      1.0  0.25618  0.39743  0.26352  1.0000
  H   H105      1.0  0.09910  0.47400  0.28828  1.0000
  C   C48       1.0  0.03057  0.01047  0.06892  1.0000
  C   C49       1.0  0.11824  0.49477  0.27074  1.0000
  H   H106      1.0  0.20666  0.42924  0.31145  1.0000
  C   C50       1.0  0.25236  0.12897  0.00421  1.0000
  Fe  Fe6       1.0  0.22378  0.07842  0.32694  1.0000
  H   H107      1.0  0.24149  0.39414  0.00091  1.0000
  H   H108      1.0  0.02788  0.06341  0.14113  1.0000
  H   H109      1.0  0.11359  0.02645  0.32860  1.0000
  H   H110      1.0  0.05424  0.00168  0.24102  1.0000
  C   C51       1.0  0.02930  0.00761  0.23553  1.0000
  H   H111      1.0  0.25854  0.06268  0.26209  1.0000
  S   S8        1.0  0.21163  0.99788  0.31511  1.0000
  H   H112      1.0  0.10529  0.17676  0.32892  1.0000
  C   C52       1.0  0.11196  0.47687  0.28950  1.0000
  C   C53       1.0  0.26518  0.08275  0.18396  1.0000
  C   C54       1.0  0.26589  0.32651  0.32275  1.0000
  C   C55       1.0  0.02155  0.17733  0.32508  1.0000
  C   C56       1.0  0.26603  0.00053  0.26597  1.0000
  H   H113      1.0  0.26558  0.02908  0.12529  1.0000
  S   S9        1.0  0.17075  0.02482  0.33148  1.0000
  H   H114      1.0  0.11482  0.48310  0.25627  1.0000
  C   C57       1.0  0.25520  0.49623  0.25207  1.0000
  H   H115      1.0  0.15436  0.47721  0.19709  1.0000
  C   C58       1.0  0.17077  0.49243  0.26090  1.0000
  H   H116      1.0  0.25996  0.35360  0.00701  1.0000
  H   H117      1.0  0.26615  0.03842  0.22761  1.0000
  S   S10       1.0  0.07998  0.46498  0.33217  1.0000
  H   H118      1.0  0.23255  0.44911  0.33251  1.0000
  H   H119      1.0  0.22796  0.39508  0.33196  1.0000
  H   H120      1.0  0.15220  0.45556  0.33122  1.0000
  H   H121      1.0  0.12298  0.45382  0.33212  1.0000
  H   H122      1.0  0.25517  0.33121  0.33239  1.0000
  S   S11       1.0  0.23264  0.12527  0.33256  1.0000
  H   H123      1.0  0.13590  0.49478  0.19138  1.0000
  H   H124      1.0  0.25227  0.11982  0.66016  1.0000
  H   H125      1.0  0.12292  0.45481  0.41578  1.0000
  S   S12       1.0  0.06001  0.09806  0.37647  1.0000
  C   C59       1.0  0.02527  0.22426  0.41454  1.0000
  S   S13       1.0  0.21013  0.05089  0.35025  1.0000
  H   H126      1.0  0.01659  0.27577  0.65439  1.0000
  H   H127      1.0  0.08460  0.40275  0.33749  1.0000
  C   C60       1.0  0.14538  0.12249  0.36244  1.0000
  Fe  Fe7       1.0  0.05498  0.28113  0.44516  1.0000
  S   S14       1.0  0.04756  0.29912  0.41382  1.0000
  S   S15       1.0  0.03400  0.27588  0.46812  1.0000
  Fe  Fe8       1.0  0.08944  0.27859  0.42957  1.0000
  S   S16       1.0  0.08396  0.29609  0.39753  1.0000
  S   S17       1.0  0.11382  0.25998  0.43325  1.0000
  Fe  Fe9       1.0  0.06864  0.32864  0.41469  1.0000
  S   S18       1.0  0.06715  0.37863  0.41027  1.0000
  Fe  Fe10      1.0  0.06355  0.26498  0.39961  1.0000
  S   S19       1.0  0.05702  0.23726  0.37149  1.0000
  S   S20       1.0  0.07531  0.31288  0.44708  1.0000
  S   S21       1.0  0.06980  0.24545  0.43068  1.0000
  Fe  Fe11      1.0  0.19924  0.31435  0.43240  1.0000
  S   S22       1.0  0.20031  0.29656  0.39960  1.0000
  S   S23       1.0  0.17658  0.33189  0.44696  1.0000
  Fe  Fe12      1.0  0.23483  0.31035  0.43762  1.0000
  S   S24       1.0  0.23829  0.29180  0.40486  1.0000
  S   S25       1.0  0.25718  0.31667  0.45652  1.0000
  Fe  Fe13      1.0  0.22105  0.32648  0.39518  1.0000
  S   S26       1.0  0.22364  0.35241  0.36472  1.0000
  Fe  Fe14      1.0  0.21726  0.26326  0.41189  1.0000
  S   S27       1.0  0.21277  0.21424  0.40596  1.0000
  S   S28       1.0  0.21896  0.34676  0.42720  1.0000
  S   S29       1.0  0.21493  0.27922  0.44550  1.0000
  C   C61       1.0  0.13087  0.28161  0.43570  1.0000
  C   C62       1.0  0.14519  0.27073  0.42780  1.0000
  C   C63       1.0  0.15920  0.28624  0.43082  1.0000
  C   C64       1.0  0.15906  0.31253  0.44215  1.0000
  C   C65       1.0  0.14472  0.32347  0.45005  1.0000
  C   C66       1.0  0.13066  0.30817  0.44672  1.0000
  H   H128      1.0  0.14548  0.24997  0.41953  1.0000
  H   H129      1.0  0.17016  0.27741  0.42482  1.0000
  H   H130      1.0  0.14455  0.34335  0.45929  1.0000
  H   H131      1.0  0.11976  0.31607  0.45352  1.0000
  C   C67       1.0  0.22597  0.15083  0.35191  1.0000
  C   C68       1.0  0.23369  0.17808  0.35366  1.0000
  C   C69       1.0  0.22935  0.19839  0.36948  1.0000
  C   C70       1.0  0.21726  0.19158  0.38387  1.0000
  C   C71       1.0  0.20936  0.16456  0.38189  1.0000
  C   C72       1.0  0.21360  0.14437  0.36595  1.0000
  H   H132      1.0  0.02144  0.26090  0.39334  1.0000
  H   H133      1.0  0.23561  0.21897  0.37085  1.0000
  H   H134      1.0  0.19998  0.15904  0.39291  1.0000
  C   C73       1.0  0.18341  0.41580  0.34170  1.0000
  C   C74       1.0  0.23137  0.45203  0.36620  1.0000
  C   C75       1.0  0.22886  0.43640  0.38499  1.0000
  C   C76       1.0  0.22617  0.40590  0.38472  1.0000
  C   C77       1.0  0.22612  0.39083  0.36563  1.0000
  C   C78       1.0  0.22822  0.40659  0.34678  1.0000
  C   C79       1.0  0.23072  0.43716  0.34706  1.0000
  H   H135      1.0  0.22880  0.44804  0.39977  1.0000
  H   H136      1.0  0.22424  0.39409  0.39926  1.0000
  H   H137      1.0  0.06940  0.28856  0.53292  1.0000
  C   C80       1.0  0.15971  0.10830  0.35189  1.0000
  C   C81       1.0  0.07512  0.44078  0.35341  1.0000
  C   C82       1.0  0.07917  0.41081  0.35186  1.0000
  C   C83       1.0  0.07628  0.39116  0.36878  1.0000
  C   C84       1.0  0.06952  0.40141  0.38759  1.0000
  C   C85       1.0  0.06535  0.43131  0.38905  1.0000
  C   C86       1.0  0.06803  0.45086  0.37205  1.0000
  H   H138      1.0  0.23885  0.08694  0.37248  1.0000
  H   H139      1.0  0.07950  0.36822  0.36739  1.0000
  H   H140      1.0  0.06010  0.43948  0.40351  1.0000
  H   H141      1.0  0.06484  0.47381  0.37349  1.0000
  C   C87       1.0  0.06054  0.13671  0.37424  1.0000
  C   C88       1.0  0.06346  0.15346  0.39217  1.0000
  C   C89       1.0  0.06309  0.18434  0.39123  1.0000
  C   C90       1.0  0.05947  0.19872  0.37252  1.0000
  C   C91       1.0  0.05715  0.18200  0.35438  1.0000
  C   C92       1.0  0.05771  0.15106  0.35522  1.0000
  H   H142      1.0  0.06596  0.14252  0.40687  1.0000
  H   H143      1.0  0.06561  0.19699  0.40496  1.0000
  H   H144      1.0  0.01647  0.22405  0.44659  1.0000
  H   H145      1.0  0.25632  0.35526  0.55567  1.0000
  C   C93       1.0  0.02579  0.15722  0.42328  1.0000
  H   H146      1.0  0.06750  0.19307  0.47137  1.0000
  H   H147      1.0  0.04139  0.20732  0.45663  1.0000
  C   C94       1.0  0.13003  0.43433  0.33660  1.0000
  H   H148      1.0  0.12775  0.33964  0.37109  1.0000
  H   H149      1.0  0.12552  0.16220  0.37974  1.0000
  C   C95       1.0  0.11739  0.33434  0.38124  1.0000
  C   C96       1.0  0.03832  0.22873  0.49563  1.0000
  C   C97       1.0  0.02782  0.24807  0.48621  1.0000
  H   H150      1.0  0.24130  0.32699  0.53451  1.0000
  H   H151      1.0  0.05065  0.23011  0.49158  1.0000
  C   C98       1.0  0.20038  0.16367  0.45484  1.0000
  H   H152      1.0  0.24334  0.13420  0.38977  1.0000
  C   C99       1.0  0.24975  0.36015  0.48590  1.0000
  H   H153      1.0  0.03670  0.23338  0.41924  1.0000
  H   H154      1.0  0.09153  0.13290  0.34798  1.0000
  H   H155      1.0  0.14373  0.46087  0.35697  1.0000
  H   H156      1.0  0.23793  0.35904  0.48025  1.0000
  H   H157      1.0  0.25166  0.47276  0.59712  1.0000
  H   H158      1.0  0.26252  0.35193  0.60322  1.0000
  Fe  Fe15      1.0  0.06082  0.06976  0.34724  1.0000
  H   H159      1.0  0.05137  0.14273  0.44800  1.0000
  H   H160      1.0  0.04833  0.19376  0.43228  1.0000
  H   H161      1.0  0.03077  0.22912  0.59908  1.0000
  C   C100      1.0  0.23961  0.11530  0.39976  1.0000
  C   C101      1.0  0.26348  0.36219  0.58738  1.0000
  H   H162      1.0  0.24453  0.28761  0.55993  1.0000
  H   H163      1.0  0.03438  0.16422  0.41088  1.0000
  C   C102      1.0  0.01789  0.27355  0.57436  1.0000
  H   H164      1.0  0.19545  0.45092  0.38561  1.0000
  H   H165      1.0  0.04113  0.19330  0.51799  1.0000
  H   H166      1.0  0.10654  0.33848  0.37238  1.0000
  H   H167      1.0  0.22819  0.40259  0.46302  1.0000
  C   C103      1.0  0.04131  0.18753  0.44643  1.0000
  H   H168      1.0  0.24681  0.15731  0.46701  1.0000
  H   H169      1.0  0.04847  0.28015  0.56006  1.0000
  H   H170      1.0  0.14837  0.41052  0.36727  1.0000
  C   C104      1.0  0.01957  0.22319  0.59163  1.0000
  C   C105      1.0  0.10801  0.47974  0.38387  1.0000
  H   H171      1.0  0.23083  0.48151  0.66475  1.0000
  H   H172      1.0  0.15486  0.39973  0.34181  1.0000
  H   H173      1.0  0.13914  0.00989  0.34199  1.0000
  H   H174      1.0  0.12270  0.17782  0.35467  1.0000
  C   C106      1.0  0.17292  0.37060  0.37474  1.0000
  C   C107      1.0  0.25700  0.22433  0.42365  1.0000
  H   H175      1.0  0.24760  0.48849  0.55166  1.0000
  C   C108      1.0  0.24937  0.17044  0.42374  1.0000
  H   H176      1.0  0.25633  0.41825  0.46741  1.0000
  H   H177      1.0  0.24296  0.17451  0.40898  1.0000
  H   H178      1.0  0.07372  0.17750  0.44641  1.0000
  C   C109      1.0  0.01693  0.20640  0.51654  1.0000
  C   C110      1.0  0.06743  0.17291  0.46155  1.0000
  H   H179      1.0  0.24018  0.30083  0.50125  1.0000
  H   H180      1.0  0.01727  0.12538  0.34524  1.0000
  H   H181      1.0  0.20051  0.01740  0.39239  1.0000
  H   H182      1.0  0.26006  0.11594  0.41857  1.0000
  C   C111      1.0  0.25454  0.39126  0.58857  1.0000
  H   H183      1.0  0.19541  0.17315  0.46959  1.0000
  C   C112      1.0  0.25357  0.38005  0.50199  1.0000
  H   H184      1.0  0.24042  0.46313  0.62989  1.0000
  N   N4        1.0  0.17224  0.42373  0.35942  1.0000
  C   C113      1.0  0.17426  0.45523  0.36639  1.0000
  H   H185      1.0  0.11079  0.06271  0.40227  1.0000
  H   H186      1.0  0.02200  0.13925  0.38205  1.0000
  H   H187      1.0  0.03036  0.37894  0.56956  1.0000
  H   H188      1.0  0.22015  0.12220  0.43662  1.0000
  H   H189      1.0  0.18203  0.36119  0.36401  1.0000
  H   H190      1.0  0.02014  0.22485  0.35284  1.0000
  H   H191      1.0  0.04521  0.15725  0.47314  1.0000
  H   H192      1.0  0.19913  0.46307  0.35888  1.0000
  H   H193      1.0  0.05478  0.19307  0.33972  1.0000
  H   H194      1.0  0.18543  0.35672  0.40252  1.0000
  H   H195      1.0  0.09247  0.06329  0.38845  1.0000
  H   H196      1.0  0.03124  0.37388  0.59765  1.0000
  H   H197      1.0  0.01950  0.32478  0.59515  1.0000
  H   H198      1.0  0.18844  0.40576  0.38207  1.0000
  H   H199      1.0  0.03586  0.35927  0.65698  1.0000
  S   S30       1.0  0.23580  0.48982  0.36716  1.0000
  H   H200      1.0  0.02747  0.23297  0.56013  1.0000
  H   H201      1.0  0.19801  0.17926  0.44177  1.0000
  H   H202      1.0  0.25576  0.40349  0.57346  1.0000
  H   H203      1.0  0.07381  0.15528  0.46993  1.0000
  H   H204      1.0  0.10345  0.10897  0.33298  1.0000
  H   H205      1.0  0.02079  0.17859  0.47428  1.0000
  C   C114      1.0  0.25372  0.49661  0.59453  1.0000
  H   H206      1.0  0.05481  0.29321  0.51312  1.0000
  C   C115      1.0  0.14595  0.44436  0.34442  1.0000
  H   H207      1.0  0.16990  0.10991  0.36235  1.0000
  H   H208      1.0  0.24459  0.39436  0.50847  1.0000
  H   H209      1.0  0.24401  0.41667  0.42207  1.0000
  H   H210      1.0  0.24495  0.11888  0.46383  1.0000
  C   C116      1.0  0.24939  0.42710  0.45432  1.0000
  C   C117      1.0  0.22526  0.14478  0.43687  1.0000
  C   C118      1.0  0.26119  0.34151  0.47732  1.0000
  C   C119      1.0  0.13132  0.12333  0.34738  1.0000
  H   H211      1.0  0.13039  0.10170  0.33931  1.0000
  Fe  Fe16      1.0  0.22638  0.01407  0.34122  1.0000
  H   H212      1.0  0.23639  0.20689  0.43836  1.0000
  C   C120      1.0  0.04566  0.29237  0.54552  1.0000
  N   N5        1.0  0.02477  0.17998  0.44049  1.0000
  H   H213      1.0  0.24044  0.06738  0.39701  1.0000
  H   H214      1.0  0.24408  0.09623  0.43034  1.0000
  H   H215      1.0  0.17156  0.33019  0.39291  1.0000
  H   H216      1.0  0.22327  0.18060  0.46053  1.0000
  C   C121      1.0  0.19095  0.46459  0.37262  1.0000
  H   H217      1.0  0.05558  0.13834  0.34130  1.0000
  H   H218      1.0  0.11789  0.31055  0.38535  1.0000
  C   C122      1.0  0.10346  0.13087  0.34073  1.0000
  H   H219      1.0  0.17092  0.47093  0.35387  1.0000
  C   C123      1.0  0.15542  0.41809  0.35334  1.0000
  H   H220      1.0  0.24414  0.33739  0.57492  1.0000
  H   H221      1.0  0.16912  0.41134  0.39212  1.0000
  H   H222      1.0  0.11829  0.48200  0.37301  1.0000
  H   H223      1.0  0.16618  0.45988  0.37996  1.0000
  H   H224      1.0  0.25226  0.46411  0.41687  1.0000
  H   H225      1.0  0.22035  0.15622  0.42301  1.0000
  H   H226      1.0  0.26169  0.27456  0.54712  1.0000
  H   H227      1.0  0.10925  0.49502  0.39731  1.0000
  S   S31       1.0  0.04236  0.03715  0.33809  1.0000
  S   S32       1.0  0.08045  0.03714  0.34387  1.0000
  H   H228      1.0  0.01960  0.19912  0.58859  1.0000
  H   H229      1.0  0.02703  0.30093  0.52464  1.0000
  H   H230      1.0  0.03009  0.16562  0.33496  1.0000
  H   H231      1.0  0.25907  0.11849  0.62179  1.0000
  C   C124      1.0  0.17589  0.40406  0.37791  1.0000
  C   C125      1.0  0.05066  0.16295  0.45765  1.0000
  H   H232      1.0  0.03731  0.32721  0.57962  1.0000
  N   N6        1.0  0.12005  0.40746  0.41352  1.0000
  C   C126      1.0  0.13596  0.40037  0.42202  1.0000
  C   C127      1.0  0.11629  0.38593  0.39628  1.0000
  C   C128      1.0  0.12096  0.43778  0.40359  1.0000
  C   C129      1.0  0.10731  0.40770  0.43039  1.0000
  C   C130      1.0  0.10858  0.38482  0.44844  1.0000
  C   C131      1.0  0.14307  0.42384  0.43666  1.0000
  C   C132      1.0  0.10627  0.44797  0.39164  1.0000
  C   C133      1.0  0.11744  0.35258  0.40138  1.0000
  C   C134      1.0  0.09388  0.38493  0.46255  1.0000
  C   C135      1.0  0.15734  0.41182  0.44794  1.0000
  H   H233      1.0  0.14446  0.39700  0.40877  1.0000
  H   H234      1.0  0.13583  0.37925  0.43080  1.0000
  H   H235      1.0  0.10413  0.38922  0.39090  1.0000
  H   H236      1.0  0.12403  0.39028  0.38230  1.0000
  H   H237      1.0  0.13115  0.43921  0.39241  1.0000
  C   C136      1.0  0.24439  0.08723  0.38812  1.0000
  H   H238      1.0  0.10665  0.42958  0.43821  1.0000
  H   H239      1.0  0.09567  0.40482  0.42318  1.0000
  H   H240      1.0  0.11866  0.38994  0.45850  1.0000
  H   H241      1.0  0.11016  0.36232  0.44240  1.0000
  H   H242      1.0  0.14705  0.44326  0.42730  1.0000
  H   H243      1.0  0.13434  0.43129  0.44866  1.0000
  H   H244      1.0  0.18157  0.39261  0.33680  1.0000
  H   H245      1.0  0.10441  0.43418  0.37759  1.0000
  H   H246      1.0  0.12828  0.34657  0.40954  1.0000
  H   H247      1.0  0.10714  0.34559  0.41106  1.0000
  H   H248      1.0  0.09502  0.36817  0.47519  1.0000
  H   H249      1.0  0.09217  0.40685  0.46992  1.0000
  H   H250      1.0  0.08339  0.37943  0.45332  1.0000
  H   H251      1.0  0.16271  0.42951  0.45738  1.0000
  H   H252      1.0  0.15391  0.39357  0.45876  1.0000
  H   H253      1.0  0.16627  0.40355  0.43645  1.0000
  H   H254      1.0  0.10670  0.03501  0.38290  1.0000
  C   C137      1.0  0.03289  0.20799  0.51067  1.0000
  H   H255      1.0  0.09362  0.21674  0.38972  1.0000
  C   C138      1.0  0.25659  0.34181  0.57037  1.0000
  H   H256      1.0  0.05685  0.25823  0.52653  1.0000
  H   H257      1.0  0.22479  0.43652  0.44890  1.0000
  H   H258      1.0  0.16274  0.11945  0.33676  1.0000
  C   C139      1.0  0.25071  0.31070  0.53119  1.0000
  C   C140      1.0  0.23210  0.42575  0.46094  1.0000
  H   H259      1.0  0.16466  0.36186  0.40693  1.0000
  C   C141      1.0  0.17371  0.35398  0.39555  1.0000
  H   H260      1.0  0.26171  0.16679  0.41846  1.0000
  H   H261      1.0  0.25438  0.19807  0.45143  1.0000
  H   H262      1.0  0.20751  0.12359  0.36477  1.0000
  H   H263      1.0  0.02893  0.27849  0.58244  1.0000
  N   N7        1.0  0.11581  0.13195  0.35733  1.0000
  C   C142      1.0  0.11105  0.11095  0.37480  1.0000
  C   C143      1.0  0.11730  0.16243  0.36641  1.0000
  H   H264      1.0  0.24907  0.38606  0.43766  1.0000
  C   C144      1.0  0.21799  0.15905  0.45697  1.0000
  C   C145      1.0  0.24447  0.28880  0.51523  1.0000
  C   C146      1.0  0.11275  0.07773  0.36968  1.0000
  H   H265      1.0  0.03051  0.13616  0.42943  1.0000
  C   C147      1.0  0.10192  0.17631  0.37513  1.0000
  C   C148      1.0  0.10479  0.20725  0.38362  1.0000
  H   H266      1.0  0.02777  0.26393  0.53286  1.0000
  C   C149      1.0  0.10521  0.05862  0.38696  1.0000
  H   H267      1.0  0.25997  0.47084  0.33723  1.0000
  H   H268      1.0  0.09858  0.11468  0.37957  1.0000
  H   H269      1.0  0.11775  0.11525  0.38927  1.0000
  C   C150      1.0  0.25247  0.40921  0.43392  1.0000
  H   H270      1.0  0.25440  0.29744  0.59541  1.0000
  H   H271      1.0  0.26306  0.99824  0.33701  1.0000
  C   C151      1.0  0.01775  0.23977  0.57087  1.0000
  H   H272      1.0  0.01923  0.10777  0.39913  1.0000
  H   H273      1.0  0.23458  0.27590  0.52216  1.0000
  H   H274      1.0  0.14264  0.10993  0.37703  1.0000
  H   H275      1.0  0.14870  0.14522  0.36689  1.0000
  H   H276      1.0  0.10713  0.07232  0.35469  1.0000
  H   H277      1.0  0.12526  0.07136  0.36825  1.0000
  C   C152      1.0  0.24999  0.13904  0.45623  1.0000
  N   N8        1.0  0.24295  0.14344  0.43489  1.0000
  H   H278      1.0  0.09302  0.17819  0.36278  1.0000
  H   H279      1.0  0.09698  0.16278  0.38824  1.0000
  H   H280      1.0  0.11317  0.20663  0.39673  1.0000
  H   H281      1.0  0.10944  0.22197  0.37097  1.0000
  H   H282      1.0  0.25937  0.40498  0.60127  1.0000
  H   H283      1.0  0.16131  0.36592  0.36811  1.0000
  H   H284      1.0  0.19440  0.14245  0.45178  1.0000
  H   H285      1.0  0.22666  0.11526  0.40119  1.0000
  H   H286      1.0  0.19569  0.41654  0.34709  1.0000
  C   C153      1.0  0.24722  0.11688  0.42168  1.0000
  H   H287      1.0  0.04753  0.31626  0.54799  1.0000
  C   C154      1.0  0.26616  0.29743  0.58742  1.0000
  H   H288      1.0  0.09741  0.48620  0.37515  1.0000
  C   C155      1.0  0.05734  0.28249  0.52843  1.0000
  H   H289      1.0  0.15743  0.08465  0.34893  1.0000
  H   H290      1.0  0.22650  0.48573  0.61690  1.0000
  C   C156      1.0  0.25552  0.29504  0.55176  1.0000
  H   H291      1.0  0.25148  0.22756  0.40815  1.0000
  H   H292      1.0  0.01697  0.34762  0.64806  1.0000
  H   H293      1.0  0.25336  0.35840  0.40908  1.0000
  H   H294      1.0  0.09569  0.44674  0.40201  1.0000
  H   H295      1.0  0.21973  0.14435  0.47074  1.0000
  H   H296      1.0  0.26081  0.32244  0.52391  1.0000
  H   H297      1.0  0.26084  0.07249  0.64751  1.0000
  H   H298      1.0  0.02731  0.20930  0.40110  1.0000
  H   H299      1.0  0.24324  0.18335  0.34284  1.0000
  H   H300      1.0  0.25243  0.45066  0.45227  1.0000
  H   H301      1.0  0.25390  0.27359  0.50988  1.0000
  C   C157      1.0  0.23421  0.48444  0.63071  1.0000
  H   H302      1.0  0.23029  0.43738  0.47612  1.0000
  H   H303      1.0  0.25591  0.24815  0.61146  1.0000
  C   C158      1.0  0.02495  0.33444  0.58065  1.0000
  H   H304      1.0  0.25728  0.08641  0.38558  1.0000
  H   H305      1.0  0.13473  0.13907  0.33467  1.0000
  H   H306      1.0  0.21543  0.46525  0.64978  1.0000
  C   C159      1.0  0.24868  0.19977  0.43601  1.0000
  H   H307      1.0  0.01885  0.14399  0.46181  1.0000
  C   C160      1.0  0.02474  0.36784  0.58337  1.0000
  H   H308      1.0  0.12340  0.42214  0.34906  1.0000
  C   C161      1.0  0.26619  0.13126  0.63295  1.0000
  C   C162      1.0  0.02865  0.28684  0.53876  1.0000
  C   C163      1.0  0.26475  0.11813  0.65508  1.0000
  C   C164      1.0  0.22370  0.48408  0.65046  1.0000
  H   H309      1.0  0.26352  0.46412  0.64512  1.0000
  H   H310      1.0  0.24194  0.38728  0.59217  1.0000
  H   H311      1.0  0.25608  0.24527  0.43257  1.0000
  H   H312      1.0  0.25861  0.45733  0.56123  1.0000
  H   H313      1.0  0.01770  0.02218  0.59136  1.0000
  C   C165      1.0  0.26539  0.36278  0.40297  1.0000
  H   H314      1.0  0.02147  0.22533  0.64210  1.0000
  H   H315      1.0  0.02192  0.19089  0.36745  1.0000
  H   H316      1.0  0.01965  0.33895  0.54748  1.0000
  C   C166      1.0  0.02375  0.35345  0.66216  1.0000
  H   H317      1.0  0.26198  0.15439  0.63313  1.0000
  H   H318      1.0  0.26334  0.32749  0.38027  1.0000
  H   H319      1.0  0.01697  0.00033  0.65842  1.0000
  N   N9        1.0  0.26519  0.31319  0.56649  1.0000
  C   C167      1.0  0.25928  0.48096  0.55675  1.0000
  H   H320      1.0  0.26026  0.40689  0.39338  1.0000
  H   H321      1.0  0.26320  0.45504  0.39333  1.0000
  H   H322      1.0  0.25828  0.36322  0.37020  1.0000
  C   C168      1.0  0.26419  0.46258  0.40981  1.0000
  C   C169      1.0  0.01712  0.20812  0.43331  1.0000
  C   C170      1.0  0.19108  0.49650  0.38011  1.0000
  Fe  Fe17      1.0  0.05508  0.31670  0.79695  1.0000
  S   S33       1.0  0.04485  0.29799  0.82734  1.0000
  S   S34       1.0  0.04497  0.33451  0.76604  1.0000
  Fe  Fe18      1.0  0.08887  0.31377  0.81360  1.0000
  S   S35       1.0  0.08135  0.29534  0.84499  1.0000
  S   S36       1.0  0.11330  0.32862  0.80355  1.0000
  Fe  Fe19      1.0  0.06523  0.26597  0.82701  1.0000
  S   S37       1.0  0.06492  0.21569  0.83154  1.0000
  Fe  Fe20      1.0  0.06179  0.32838  0.84335  1.0000
  S   S38       1.0  0.05613  0.35471  0.87270  1.0000
  S   S39       1.0  0.07420  0.28247  0.79529  1.0000
  S   S40       1.0  0.07052  0.34905  0.81340  1.0000
  Fe  Fe21      1.0  0.19947  0.27832  0.82626  1.0000
  S   S41       1.0  0.21032  0.29545  0.85557  1.0000
  S   S42       1.0  0.17465  0.26170  0.83139  1.0000
  Fe  Fe22      1.0  0.23083  0.28004  0.80116  1.0000
  S   S43       1.0  0.24385  0.29680  0.82915  1.0000
  S   S44       1.0  0.24249  0.27775  0.76832  1.0000
  Fe  Fe23      1.0  0.22960  0.26358  0.84775  1.0000
  S   S45       1.0  0.23730  0.23526  0.87491  1.0000
  Fe  Fe24      1.0  0.22334  0.32722  0.83464  1.0000
  S   S46       1.0  0.22693  0.37649  0.83977  1.0000
  S   S47       1.0  0.21813  0.24450  0.81955  1.0000
  S   S48       1.0  0.21096  0.31261  0.80551  1.0000
  Fe  Fe25      1.0  0.05273  0.03227  0.94869  1.0000
  S   S49       1.0  0.03685  0.04726  0.92302  1.0000
  C   C171      1.0  0.26069  0.11056  0.90473  1.0000
  Fe  Fe26      1.0  0.08242  0.03915  0.92001  1.0000
  S   S50       1.0  0.06827  0.05360  0.89252  1.0000
  S   S51       1.0  0.10778  0.02921  0.91135  1.0000
  Fe  Fe27      1.0  0.05523  0.08208  0.91557  1.0000
  S   S52       1.0  0.05065  0.13140  0.91087  1.0000
  Fe  Fe28      1.0  0.05161  0.01765  0.90232  1.0000
  C   C172      1.0  0.01949  0.45017  0.80898  1.0000
  S   S53       1.0  0.07023  0.06924  0.94302  1.0000
  C   C173      1.0  0.12939  0.47262  0.89409  1.0000
  Fe  Fe29      1.0  0.19460  0.06431  0.93190  1.0000
  S   S54       1.0  0.19747  0.04533  0.89955  1.0000
  S   S55       1.0  0.17148  0.08370  0.94362  1.0000
  Fe  Fe30      1.0  0.22955  0.05649  0.94209  1.0000
  S   S56       1.0  0.23450  0.03604  0.91031  1.0000
  S   S57       1.0  0.25142  0.06062  0.96231  1.0000
  Fe  Fe31      1.0  0.21943  0.07245  0.89784  1.0000
  S   S58       1.0  0.22663  0.09771  0.86845  1.0000
  H   H323      1.0  0.05188  0.40972  0.98597  1.0000
  S   S59       1.0  0.20914  0.45675  0.91881  1.0000
  S   S60       1.0  0.21567  0.09408  0.92912  1.0000
  S   S61       1.0  0.20811  0.02821  0.94780  1.0000
  H   H324      1.0  0.24316  0.17962  0.96460  1.0000
  C   C174      1.0  0.12514  0.04501  0.92085  1.0000
  C   C175      1.0  0.13949  0.03502  0.91248  1.0000
  C   C176      1.0  0.15370  0.04657  0.91946  1.0000
  C   C177      1.0  0.15372  0.06850  0.93478  1.0000
  C   C178      1.0  0.13934  0.07880  0.94305  1.0000
  C   C179      1.0  0.12507  0.06703  0.93616  1.0000
  C   C180      1.0  0.02320  0.47314  0.84489  1.0000
  H   H325      1.0  0.16464  0.03828  0.91307  1.0000
  H   H326      1.0  0.13927  0.09564  0.95501  1.0000
  H   H327      1.0  0.11408  0.07469  0.94285  1.0000
  C   C181      1.0  0.24575  0.14876  0.93788  1.0000
  H   H328      1.0  0.04351  0.47955  0.99227  1.0000
  C   C182      1.0  0.11751  0.49162  0.88189  1.0000
  C   C183      1.0  0.25151  0.40820  0.96980  1.0000
  C   C184      1.0  0.25396  0.25035  0.75522  1.0000
  C   C185      1.0  0.21412  0.43484  0.89664  1.0000
  C   C186      1.0  0.21099  0.40444  0.89739  1.0000
  C   C187      1.0  0.21497  0.38613  0.88024  1.0000
  C   C188      1.0  0.22204  0.39814  0.86210  1.0000
  C   C189      1.0  0.22510  0.42857  0.86135  1.0000
  C   C190      1.0  0.22119  0.44684  0.87852  1.0000
  H   H329      1.0  0.20557  0.39493  0.91137  1.0000
  H   H330      1.0  0.21263  0.36274  0.88107  1.0000
  H   H331      1.0  0.23056  0.43806  0.84738  1.0000
  H   H332      1.0  0.22367  0.47018  0.87772  1.0000
  C   C191      1.0  0.23309  0.19760  0.87224  1.0000
  C   C192      1.0  0.22543  0.18244  0.88872  1.0000
  C   C193      1.0  0.22296  0.15192  0.88742  1.0000
  C   C194      1.0  0.22871  0.13623  0.87005  1.0000
  C   C195      1.0  0.23628  0.15146  0.85354  1.0000
  C   C196      1.0  0.23832  0.18211  0.85450  1.0000
  H   H333      1.0  0.22140  0.19434  0.90249  1.0000
  H   H334      1.0  0.21662  0.14061  0.89986  1.0000
  H   H335      1.0  0.24082  0.13946  0.84009  1.0000
  H   H336      1.0  0.24439  0.19363  0.84182  1.0000
  C   C197      1.0  0.06157  0.19290  0.85414  1.0000
  C   C198      1.0  0.06283  0.16212  0.85200  1.0000
  C   C199      1.0  0.05977  0.14302  0.86919  1.0000
  C   C200      1.0  0.05539  0.15446  0.88884  1.0000
  C   C201      1.0  0.05443  0.18524  0.89110  1.0000
  C   C202      1.0  0.05754  0.20436  0.87391  1.0000
  H   H337      1.0  0.06591  0.15298  0.83679  1.0000
  H   H338      1.0  0.06038  0.11945  0.86707  1.0000
  H   H339      1.0  0.05102  0.19438  0.90619  1.0000
  H   H340      1.0  0.05652  0.22793  0.87586  1.0000
  C   C203      1.0  0.05943  0.39300  0.87289  1.0000
  C   C204      1.0  0.05999  0.40750  0.89224  1.0000
  C   C205      1.0  0.06073  0.43838  0.89307  1.0000
  C   C206      1.0  0.06099  0.45495  0.87454  1.0000
  C   C207      1.0  0.06126  0.44039  0.85513  1.0000
  C   C208      1.0  0.06043  0.40948  0.85429  1.0000
  H   H341      1.0  0.05957  0.39471  0.90662  1.0000
  H   H342      1.0  0.06063  0.44941  0.90801  1.0000
  H   H343      1.0  0.06162  0.45310  0.84070  1.0000
  H   H344      1.0  0.06005  0.39850  0.83932  1.0000
  C   C209      1.0  0.13011  0.30902  0.81104  1.0000
  C   C210      1.0  0.14456  0.31587  0.80128  1.0000
  C   C211      1.0  0.15838  0.30185  0.80754  1.0000
  C   C212      1.0  0.15776  0.28065  0.82350  1.0000
  C   C213      1.0  0.14327  0.27338  0.83301  1.0000
  C   C214      1.0  0.12948  0.28759  0.82687  1.0000
  H   H345      1.0  0.14500  0.33174  0.78859  1.0000
  H   H346      1.0  0.16944  0.30706  0.79978  1.0000
  H   H347      1.0  0.14271  0.25671  0.84520  1.0000
  H   H348      1.0  0.11838  0.28204  0.83439  1.0000
  N   N10       1.0  0.26278  0.15309  0.93175  1.0000
  C   C215      1.0  0.03481  0.25488  0.73723  1.0000
  C   C216      1.0  0.23794  0.48669  0.98731  1.0000
  H   H349      1.0  0.03219  0.46958  0.92503  1.0000
  H   H350      1.0  0.09723  0.46320  0.91432  1.0000
  H   H351      1.0  0.24433  0.12885  0.94802  1.0000
  H   H352      1.0  0.24478  0.06320  0.74175  1.0000
  H   H353      1.0  0.02185  0.30452  0.72064  1.0000
  H   H354      1.0  0.25277  0.21809  0.78005  1.0000
  H   H355      1.0  0.25479  0.99989  0.87374  1.0000
  H   H356      1.0  0.25031  0.34857  0.98239  1.0000
  H   H357      1.0  0.24618  0.47071  0.90646  1.0000
  H   H358      1.0  0.07853  0.43347  0.93503  1.0000
  C   C217      1.0  0.09117  0.42819  0.93543  1.0000
  C   C218      1.0  0.02705  0.99841  0.98930  1.0000
  H   H359      1.0  0.13409  0.42126  0.78860  1.0000
  C   C219      1.0  0.05075  0.43558  0.78597  1.0000
  C   C220      1.0  0.06708  0.42188  0.78637  1.0000
  C   C221      1.0  0.25915  0.07853  0.69095  1.0000
  H   H360      1.0  0.06019  0.41182  0.95977  1.0000
  H   H361      1.0  0.02897  0.37931  0.90471  1.0000
  C   C222      1.0  0.19879  0.41993  0.97930  1.0000
  S   S62       1.0  0.06589  0.49577  0.93699  1.0000
  C   C223      1.0  0.02673  0.34585  0.75569  1.0000
  H   H362      1.0  0.04197  0.40503  0.80912  1.0000
  H   H363      1.0  0.19590  0.40934  0.96415  1.0000
  H   H364      1.0  0.25548  0.17107  0.90197  1.0000
  C   C224      1.0  0.14683  0.19785  0.80948  1.0000
  H   H365      1.0  0.24844  0.06958  0.68355  1.0000
  C   C225      1.0  0.03814  0.41319  0.79363  1.0000
  H   H366      1.0  0.03101  0.33483  0.69134  1.0000
  H   H367      1.0  0.04255  0.42045  0.92964  1.0000
  H   H368      1.0  0.21396  0.16395  0.93951  1.0000
  H   H369      1.0  0.07585  0.43783  0.78001  1.0000
  C   C226      1.0  0.02677  0.36282  0.73709  1.0000
  H   H370      1.0  0.23518  0.10941  0.98395  1.0000
  N   N11       1.0  0.12642  0.43975  0.89571  1.0000
  C   C227      1.0  0.11880  0.42869  0.87605  1.0000
  H   H371      1.0  0.08789  0.13061  0.96106  1.0000
  C   C228      1.0  0.14213  0.42467  0.89733  1.0000
  C   C229      1.0  0.11697  0.43234  0.91539  1.0000
  C   C230      1.0  0.09925  0.43920  0.91520  1.0000
  C   C231      1.0  0.11603  0.39494  0.87492  1.0000
  N   N12       1.0  0.24303  0.43732  0.96797  1.0000
  H   H372      1.0  0.17678  0.48153  0.84784  1.0000
  H   H373      1.0  0.07773  0.02192  0.85047  1.0000
  C   C232      1.0  0.10572  0.38697  0.85643  1.0000
  H   H374      1.0  0.02255  0.38554  0.83031  1.0000
  H   H375      1.0  0.12603  0.43501  0.86195  1.0000
  H   H376      1.0  0.10730  0.43953  0.87377  1.0000
  H   H377      1.0  0.17498  0.42383  0.90021  1.0000
  H   H378      1.0  0.16665  0.39509  0.91682  1.0000
  H   H379      1.0  0.14895  0.42738  0.88234  1.0000
  H   H380      1.0  0.14063  0.40053  0.89967  1.0000
  H   H381      1.0  0.11819  0.40857  0.91938  1.0000
  C   C233      1.0  0.22575  0.43279  0.96488  1.0000
  H   H382      1.0  0.09341  0.42826  0.90197  1.0000
  H   H383      1.0  0.12731  0.38317  0.87262  1.0000
  H   H384      1.0  0.11016  0.38648  0.88945  1.0000
  H   H385      1.0  0.02806  0.43290  0.89803  1.0000
  H   H386      1.0  0.14267  0.48667  0.94762  1.0000
  H   H387      1.0  0.12167  0.44420  0.92918  1.0000
  H   H388      1.0  0.13045  0.48237  0.91002  1.0000
  H   H389      1.0  0.21478  0.18643  0.96272  1.0000
  H   H390      1.0  0.11106  0.39471  0.84133  1.0000
  H   H391      1.0  0.10430  0.36268  0.85560  1.0000
  H   H392      1.0  0.09392  0.39689  0.85846  1.0000
  H   H393      1.0  0.07025  0.41617  0.80273  1.0000
  H   H394      1.0  0.22003  0.45414  0.96118  1.0000
  C   C234      1.0  0.25740  0.08753  0.98081  1.0000
  N   N13       1.0  0.18241  0.16155  0.83842  1.0000
  C   C235      1.0  0.17309  0.13777  0.84967  1.0000
  C   C236      1.0  0.17260  0.17682  0.82199  1.0000
  C   C237      1.0  0.19597  0.14671  0.82706  1.0000
  C   C238      1.0  0.18901  0.18360  0.85349  1.0000
  C   C239      1.0  0.17710  0.19889  0.86849  1.0000
  C   C240      1.0  0.18134  0.12150  0.86788  1.0000
  C   C241      1.0  0.20680  0.16725  0.81364  1.0000
  C   C242      1.0  0.15469  0.17930  0.82635  1.0000
  C   C243      1.0  0.18547  0.21851  0.88414  1.0000
  C   C244      1.0  0.17082  0.09726  0.87717  1.0000
  C   C245      1.0  0.21800  0.14953  0.79957  1.0000
  H   H395      1.0  0.16927  0.12095  0.83814  1.0000
  H   H396      1.0  0.16219  0.14679  0.85683  1.0000
  H   H397      1.0  0.17714  0.19946  0.81881  1.0000
  H   H398      1.0  0.17365  0.16524  0.80660  1.0000
  H   H399      1.0  0.19155  0.12898  0.81667  1.0000
  H   H400      1.0  0.20383  0.13563  0.83828  1.0000
  H   H401      1.0  0.19818  0.17316  0.86314  1.0000
  H   H402      1.0  0.19517  0.20163  0.84473  1.0000
  H   H403      1.0  0.16996  0.18283  0.87767  1.0000
  H   H404      1.0  0.16925  0.21326  0.85945  1.0000
  H   H405      1.0  0.19237  0.11082  0.86263  1.0000
  H   H406      1.0  0.18409  0.13704  0.88070  1.0000
  H   H407      1.0  0.21400  0.18083  0.82416  1.0000
  H   H408      1.0  0.20014  0.18226  0.80336  1.0000
  H   H409      1.0  0.14921  0.15711  0.82605  1.0000
  H   H410      1.0  0.15196  0.18937  0.84179  1.0000
  H   H411      1.0  0.15190  0.22035  0.80884  1.0000
  H   H412      1.0  0.19294  0.23501  0.87571  1.0000
  H   H413      1.0  0.17671  0.23048  0.89400  1.0000
  H   H414      1.0  0.19287  0.20503  0.89459  1.0000
  H   H415      1.0  0.17122  0.07746  0.86698  1.0000
  H   H416      1.0  0.17489  0.09107  0.89304  1.0000
  H   H417      1.0  0.15851  0.10460  0.87886  1.0000
  H   H418      1.0  0.22487  0.13379  0.80906  1.0000
  H   H419      1.0  0.21139  0.13716  0.78764  1.0000
  H   H420      1.0  0.22626  0.16473  0.79126  1.0000
  N   N14       1.0  0.17102  0.39385  0.82579  1.0000
  C   C246      1.0  0.18704  0.38788  0.81633  1.0000
  C   C247      1.0  0.16678  0.36939  0.84106  1.0000
  C   C248      1.0  0.15942  0.39267  0.80819  1.0000
  C   C249      1.0  0.16983  0.42370  0.83617  1.0000
  C   C250      1.0  0.18471  0.43586  0.84674  1.0000
  C   C251      1.0  0.19183  0.40740  0.79716  1.0000
  C   C252      1.0  0.14186  0.39435  0.81494  1.0000
  C   C253      1.0  0.17784  0.36428  0.85965  1.0000
  C   C254      1.0  0.17320  0.33649  0.87194  1.0000
  C   C255      1.0  0.18114  0.46431  0.85869  1.0000
  C   C256      1.0  0.20946  0.40632  0.79272  1.0000
  C   C257      1.0  0.13148  0.39959  0.79602  1.0000
  H   H421      1.0  0.18791  0.36452  0.81111  1.0000
  H   H422      1.0  0.19619  0.39014  0.82824  1.0000
  H   H423      1.0  0.15502  0.37314  0.84838  1.0000
  H   H424      1.0  0.16596  0.34819  0.83242  1.0000
  H   H425      1.0  0.16109  0.37211  0.79891  1.0000
  H   H426      1.0  0.16154  0.41106  0.79686  1.0000
  H   H427      1.0  0.16647  0.44087  0.82454  1.0000
  H   H428      1.0  0.16019  0.42360  0.84817  1.0000
  H   H429      1.0  0.19395  0.44104  0.83474  1.0000
  H   H430      1.0  0.18973  0.42000  0.85790  1.0000
  H   H431      1.0  0.18595  0.39932  0.78288  1.0000
  H   H432      1.0  0.18841  0.43070  0.79965  1.0000
  H   H433      1.0  0.13969  0.41242  0.82629  1.0000
  H   H434      1.0  0.13803  0.37329  0.82236  1.0000
  H   H435      1.0  0.19015  0.36130  0.85426  1.0000
  H   H436      1.0  0.17701  0.38287  0.87082  1.0000
  H   H437      1.0  0.16103  0.33827  0.87830  1.0000
  H   H438      1.0  0.17410  0.31680  0.86167  1.0000
  H   H439      1.0  0.18123  0.33336  0.88526  1.0000
  H   H440      1.0  0.23996  0.42341  0.92453  1.0000
  C   C258      1.0  0.24400  0.07130  0.72530  1.0000
  C   C259      1.0  0.01683  0.37574  0.81660  1.0000
  H   H441      1.0  0.21237  0.41868  0.77805  1.0000
  H   H442      1.0  0.21587  0.41655  0.80583  1.0000
  H   H443      1.0  0.21348  0.38320  0.79079  1.0000
  C   C260      1.0  0.23755  0.17481  0.94943  1.0000
  H   H444      1.0  0.13323  0.38192  0.78418  1.0000
  H   H445      1.0  0.11898  0.39926  0.80119  1.0000
  H   H446      1.0  0.14690  0.43093  0.93098  1.0000
  C   C261      1.0  0.08054  0.99833  0.84791  1.0000
  H   H447      1.0  0.09243  0.40396  0.93702  1.0000
  H   H448      1.0  0.04496  0.25231  0.72619  1.0000
  H   H449      1.0  0.09617  0.43915  0.94936  1.0000
  N   N15       1.0  0.10827  0.14349  0.90235  1.0000
  C   C262      1.0  0.11080  0.11704  0.88832  1.0000
  C   C263      1.0  0.12272  0.14982  0.91505  1.0000
  C   C264      1.0  0.09513  0.13593  0.91774  1.0000
  C   C265      1.0  0.10347  0.17031  0.89002  1.0000
  C   C266      1.0  0.11507  0.18056  0.87245  1.0000
  C   C267      1.0  0.09737  0.10949  0.87325  1.0000
  C   C268      1.0  0.09086  0.16014  0.93411  1.0000
  C   C269      1.0  0.13886  0.14144  0.90520  1.0000
  C   C270      1.0  0.15230  0.15264  0.91847  1.0000
  C   C271      1.0  0.10804  0.20535  0.85934  1.0000
  C   C272      1.0  0.10125  0.08204  0.86034  1.0000
  C   C273      1.0  0.08115  0.14763  0.95253  1.0000
  H   H450      1.0  0.11313  0.09717  0.89812  1.0000
  H   H451      1.0  0.12131  0.11972  0.87800  1.0000
  H   H452      1.0  0.12320  0.17354  0.91934  1.0000
  H   H453      1.0  0.12223  0.13766  0.93035  1.0000
  H   H454      1.0  0.09793  0.11518  0.92632  1.0000
  H   H455      1.0  0.08412  0.13133  0.90949  1.0000
  H   H456      1.0  0.09173  0.16695  0.88311  1.0000
  H   H457      1.0  0.10184  0.18952  0.90064  1.0000
  H   H458      1.0  0.11819  0.16244  0.86155  1.0000
  H   H459      1.0  0.12588  0.18923  0.87951  1.0000
  H   H460      1.0  0.08631  0.10504  0.88199  1.0000
  H   H461      1.0  0.09535  0.12777  0.86200  1.0000
  H   H462      1.0  0.08379  0.17759  0.92650  1.0000
  H   H463      1.0  0.10133  0.17063  0.94076  1.0000
  H   H464      1.0  0.13986  0.11706  0.90457  1.0000
  H   H465      1.0  0.14048  0.15048  0.88911  1.0000
  H   H466      1.0  0.15236  0.17707  0.91893  1.0000
  H   H467      1.0  0.15129  0.14380  0.93477  1.0000
  H   H468      1.0  0.16364  0.14505  0.91159  1.0000
  H   H469      1.0  0.09753  0.19742  0.85107  1.0000
  H   H470      1.0  0.10464  0.22429  0.86944  1.0000
  H   H471      1.0  0.11674  0.21315  0.84734  1.0000
  H   H472      1.0  0.10305  0.06278  0.87083  1.0000
  H   H473      1.0  0.09139  0.07700  0.84986  1.0000
  H   H474      1.0  0.11197  0.08564  0.85046  1.0000
  H   H475      1.0  0.07804  0.16554  0.96367  1.0000
  H   H476      1.0  0.07015  0.13773  0.94692  1.0000
  H   H477      1.0  0.24197  0.47258  0.94481  1.0000
  C   C274      1.0  0.24945  0.45331  0.94867  1.0000
  H   H478      1.0  0.13411  0.19980  0.81316  1.0000
  C   C275      1.0  0.24717  0.10884  0.98900  1.0000
  H   H479      1.0  0.23782  0.19506  0.93964  1.0000
  H   H480      1.0  0.03427  0.23531  0.74776  1.0000
  H   H481      1.0  0.25670  0.44033  0.89498  1.0000
  H   H482      1.0  0.23874  0.14444  0.92378  1.0000
  C   C276      1.0  0.01957  0.25758  0.72524  1.0000
  H   H483      1.0  0.13965  0.01802  0.90063  1.0000
  H   H484      1.0  0.04818  0.38061  0.96757  1.0000
  H   H485      1.0  0.21931  0.14777  0.96441  1.0000
  H   H486      1.0  0.22373  0.41887  0.95089  1.0000
  C   C277      1.0  0.03113  0.48062  0.99612  1.0000
  H   H487      1.0  0.02562  0.36171  0.80827  1.0000
  C   C278      1.0  0.16837  0.41922  0.91508  1.0000
  H   H488      1.0  0.03666  0.27467  0.74709  1.0000
  C   C279      1.0  0.25101  0.43479  0.92818  1.0000
  H   H489      1.0  0.22506  0.48391  0.98853  1.0000
  H   H490      1.0  0.02107  0.41686  0.76093  1.0000
  H   H491      1.0  0.03537  0.02658  0.83340  1.0000
  H   H492      1.0  0.02373  0.45434  0.76815  1.0000
  C   C280      1.0  0.26005  0.25644  0.73490  1.0000
  C   C281      1.0  0.03519  0.42119  0.96212  1.0000
  H   H493      1.0  0.23458  0.05890  0.71747  1.0000
  S   S63       1.0  0.04517  0.01480  0.98131  1.0000
  H   H494      1.0  0.25720  0.10262  0.69269  1.0000
  Fe  Fe32      1.0  0.21209  0.01063  0.91489  1.0000
  H   H495      1.0  0.24620  0.39166  0.95919  1.0000
  H   H496      1.0  0.03898  0.39374  0.78304  1.0000
  H   H497      1.0  0.21941  0.39439  0.98403  1.0000
  C   C282      1.0  0.15264  0.43528  0.91546  1.0000
  C   C283      1.0  0.01758  0.38966  0.90103  1.0000
  C   C284      1.0  0.03176  0.41490  0.93887  1.0000
  C   C285      1.0  0.02028  0.46340  0.93110  1.0000
  C   C286      1.0  0.22036  0.16770  0.95428  1.0000
  H   H498      1.0  0.25935  0.19791  0.92100  1.0000
  H   H499      1.0  0.14086  0.47703  0.88597  1.0000
  H   H500      1.0  0.14834  0.18750  0.79378  1.0000
  H   H501      1.0  0.06759  0.40169  0.77655  1.0000
  H   H502      1.0  0.03782  0.36852  0.72949  1.0000
  C   C287      1.0  0.25741  0.22319  0.76450  1.0000
  H   H503      1.0  0.03743  0.44488  0.96437  1.0000
  H   H504      1.0  0.19492  0.44328  0.97888  1.0000
  H   H505      1.0  0.15517  0.45921  0.91425  1.0000
  H   H506      1.0  0.24832  0.10508  0.90858  1.0000
  H   H507      1.0  0.17556  0.42701  0.92831  1.0000
  H   H508      1.0  0.05091  0.45525  0.79622  1.0000
  H   H509      1.0  0.03060  0.30952  0.66989  1.0000
  C   C288      1.0  0.02269  0.44446  0.83247  1.0000
  N   N16       1.0  0.02142  0.42409  0.79456  1.0000
  H   H510      1.0  0.02538  0.41358  0.97245  1.0000
  H   H511      1.0  0.04873  0.44261  0.76953  1.0000
  C   C289      1.0  0.01774  0.42295  0.90643  1.0000
  H   H512      1.0  0.17232  0.46041  0.87145  1.0000
  H   H513      1.0  0.10538  0.48852  0.88784  1.0000
  C   C290      1.0  0.24618  0.45632  0.98685  1.0000
  C   C291      1.0  0.25546  0.45417  0.90928  1.0000
  H   H514      1.0  0.02681  0.46898  0.80336  1.0000
  H   H515      1.0  0.11789  0.48592  0.86492  1.0000
  H   H516      1.0  0.25739  0.27728  0.72749  1.0000
  C   C292      1.0  0.04977  0.40476  0.96919  1.0000
  H   H517      1.0  0.19224  0.40846  0.99220  1.0000
  H   H518      1.0  0.26392  0.41068  0.96431  1.0000
  H   H519      1.0  0.01807  0.23705  0.71613  1.0000
  C   C293      1.0  0.21637  0.41809  0.98311  1.0000
  H   H520      1.0  0.19198  0.47265  0.86593  1.0000
  H   H521      1.0  0.24090  0.09506  0.72574  1.0000
  H   H522      1.0  0.02525  0.46818  0.86173  1.0000
  H   H523      1.0  0.03075  0.28296  0.70068  1.0000
  H   H524      1.0  0.03397  0.43321  0.83453  1.0000
  H   H525      1.0  0.26026  0.41783  0.92956  1.0000
  H   H526      1.0  0.10027  0.99880  0.86831  1.0000
  S   S64       1.0  0.05988  0.49369  0.87511  1.0000
  C   C294      1.0  0.03098  0.02027  0.81772  1.0000
  H   H527      1.0  0.26223  0.07279  0.88415  1.0000
  S   S65       1.0  0.06659  0.00117  0.92818  1.0000
  H   H528      1.0  0.26106  0.12597  0.89115  1.0000
  C   C295      1.0  0.25276  0.39433  0.99208  1.0000
  H   H529      1.0  0.03296  0.48736  0.83901  1.0000
  H   H530      1.0  0.02458  0.39608  0.86825  1.0000
  H   H531      1.0  0.02012  0.47083  0.94769  1.0000
  C   C296      1.0  0.02414  0.32768  0.67762  1.0000
  C   C297      1.0  0.26360  0.17645  0.91481  1.0000
  H   H532      1.0  0.04005  0.02617  0.80564  1.0000
  H   H533      1.0  0.02732  0.25446  0.67350  1.0000
  H   H534      1.0  0.03031  0.39062  0.93797  1.0000
  C   C298      1.0  0.01996  0.28491  0.71053  1.0000
  H   H535      1.0  0.25902  0.46010  0.98807  1.0000
  H   H536      1.0  0.26128  0.46253  0.95171  1.0000
  N   N17       1.0  0.01792  0.43053  0.92957  1.0000
  H   H537      1.0  0.01842  0.37300  0.66982  1.0000
  C   C299      1.0  0.01729  0.43385  0.77258  1.0000
  C   C300      1.0  0.25970  0.06678  0.71379  1.0000
  H   H538      1.0  0.02013  0.03294  0.81478  1.0000
  C   C301      1.0  0.25870  0.36264  0.99087  1.0000
  H   H539      1.0  0.26373  0.02966  0.67004  1.0000
  H   H540      1.0  0.26239  0.04295  0.71440  1.0000
  H   H541      1.0  0.26587  0.15267  0.96552  1.0000
  H   H542      1.0  0.21856  0.42876  0.99840  1.0000
  Fe  Fe33      1.0  0.08883  0.57009  0.31341  1.0000
  S   S66       1.0  0.11190  0.59118  0.30359  1.0000
  Fe  Fe34      1.0  0.05480  0.55816  0.30114  1.0000
  H   H543      1.0  0.06433  0.67630  0.30719  1.0000
  S   S67       1.0  0.03383  0.56047  0.27918  1.0000
  H   H544      1.0  0.16212  0.91334  0.32688  1.0000
  S   S68       1.0  0.06674  0.59703  0.31543  1.0000
  S   S69       1.0  0.07737  0.53297  0.29625  1.0000
  Fe  Fe35      1.0  0.22871  0.52730  0.29207  1.0000
  H   H545      1.0  0.13919  0.50660  0.28735  1.0000
  C   C302      1.0  0.14164  0.52960  0.32578  1.0000
  H   H546      1.0  0.15178  0.57196  0.23372  1.0000
  C   C303      1.0  0.01910  0.56245  0.03148  1.0000
  H   H547      1.0  0.03162  0.98764  0.18616  1.0000
  S   S70       1.0  0.21025  0.56278  0.29461  1.0000
  H   H548      1.0  0.06614  0.54394  0.21763  1.0000
  C   C304      1.0  0.12895  0.57277  0.31147  1.0000
  C   C305      1.0  0.14373  0.58465  0.30631  1.0000
  C   C306      1.0  0.15744  0.56863  0.31036  1.0000
  H   H549      1.0  0.23330  0.91184  0.30897  1.0000
  C   C307      1.0  0.04120  0.53333  0.21829  1.0000
  C   C308      1.0  0.23705  0.93500  0.27967  1.0000
  N   N18       1.0  0.02511  0.54903  0.05151  1.0000
  H   H550      1.0  0.14454  0.60583  0.29853  1.0000
  C   C309      1.0  0.25576  0.57736  0.23292  1.0000
  H   H551      1.0  0.24524  0.53757  0.17653  1.0000
  C   C310      1.0  0.03462  0.65042  0.30582  1.0000
  H   H552      1.0  0.23510  0.60502  0.22964  1.0000
  H   H553      1.0  0.25880  0.97263  0.18125  1.0000
  H   H554      1.0  0.01732  0.51475  0.08978  1.0000
  H   H555      1.0  0.20083  0.71786  0.33100  1.0000
  H   H556      1.0  0.16251  0.52130  0.21699  1.0000
  H   H557      1.0  0.04336  0.51268  0.20951  1.0000
  C   C311      1.0  0.14986  0.51769  0.21456  1.0000
  C   C312      1.0  0.03635  0.61124  0.25444  1.0000
  C   C313      1.0  0.02631  0.98192  0.00809  1.0000
  H   H558      1.0  0.04824  0.61313  0.25977  1.0000
  H   H559      1.0  0.03779  0.62897  0.29841  1.0000
  H   H560      1.0  0.12500  0.54668  0.24552  1.0000
  H   H561      1.0  0.24831  0.95595  0.31832  1.0000
  H   H562      1.0  0.12634  0.59900  0.23447  1.0000
  H   H563      1.0  0.24354  0.97714  0.22601  1.0000
  H   H564      1.0  0.06404  0.65065  0.28547  1.0000
  H   H565      1.0  0.18835  0.94597  0.30247  1.0000
  H   H566      1.0  0.23101  0.56819  0.23929  1.0000
  H   H567      1.0  0.03194  0.63363  0.14430  1.0000
  H   H568      1.0  0.06496  0.68967  0.28047  1.0000
  C   C314      1.0  0.02818  0.60076  0.06838  1.0000
  C   C315      1.0  0.02946  0.59576  0.16509  1.0000
  C   C316      1.0  0.15637  0.54077  0.31973  1.0000
  C   C317      1.0  0.05243  0.56132  0.03386  1.0000
  C   C318      1.0  0.05637  0.54123  0.22927  1.0000
  H   H569      1.0  0.03394  0.49947  0.07576  1.0000
  C   C319      1.0  0.24228  0.91187  0.29611  1.0000
  S   S71       1.0  0.17279  0.51769  0.32198  1.0000
  C   C320      1.0  0.05995  0.67249  0.29112  1.0000
  H   H570      1.0  0.03862  0.69669  0.29544  1.0000
  H   H571      1.0  0.04112  0.60117  0.06719  1.0000
  H   H572      1.0  0.24426  0.85875  0.31501  1.0000
  N   N19       1.0  0.14386  0.51758  0.25475  1.0000
  H   H573      1.0  0.11666  0.53606  0.32551  1.0000
  Fe  Fe36      1.0  0.07314  0.51352  0.32869  1.0000
  S   S72       1.0  0.21506  0.49671  0.31343  1.0000
  H   H574      1.0  0.03796  0.64941  0.23411  1.0000
  C   C321      1.0  0.02112  0.50293  0.07530  1.0000
  H   H575      1.0  0.04386  0.51890  0.04249  1.0000
  H   H576      1.0  0.02796  0.98399  0.23172  1.0000
  H   H577      1.0  0.02527  0.58329  0.02753  1.0000
  H   H578      1.0  0.22025  0.90683  0.26404  1.0000
  C   C322      1.0  0.02689  0.58811  0.26181  1.0000
  H   H579      1.0  0.02042  0.64036  0.16781  1.0000
  H   H580      1.0  0.03845  0.67043  0.27461  1.0000
  H   H581      1.0  0.04018  0.60190  0.17355  1.0000
  H   H582      1.0  0.21210  0.92827  0.28560  1.0000
  H   H583      1.0  0.24137  0.89005  0.28833  1.0000
  H   H584      1.0  0.16188  0.53194  0.27560  1.0000
  C   C323      1.0  0.13566  0.54717  0.25528  1.0000
  H   H585      1.0  0.02322  0.61225  0.05465  1.0000
  H   H586      1.0  0.03384  0.57835  0.21360  1.0000
  C   C324      1.0  0.18805  0.49946  0.26421  1.0000
  H   H587      1.0  0.02788  0.55931  0.08441  1.0000
  H   H588      1.0  0.07177  0.53019  0.03082  1.0000
  H   H589      1.0  0.02414  0.95174  0.15841  1.0000
  H   H590      1.0  0.03683  0.97865  0.01694  1.0000
  H   H591      1.0  0.16780  0.95515  0.30278  1.0000
  H   H592      1.0  0.25913  0.55208  0.15739  1.0000
  S   S73       1.0  0.24321  0.54564  0.31808  1.0000
  H   H593      1.0  0.16875  0.57730  0.30552  1.0000
  C   C325      1.0  0.06979  0.55363  0.03504  1.0000
  H   H594      1.0  0.24659  0.50706  0.14467  1.0000
  C   C326      1.0  0.13500  0.60199  0.24706  1.0000
  H   H595      1.0  0.16706  0.53603  0.24881  1.0000
  C   C327      1.0  0.16091  0.52106  0.26005  1.0000
  C   C328      1.0  0.17423  0.92179  0.32576  1.0000
  H   H596      1.0  0.13126  0.55207  0.27148  1.0000
  H   H597      1.0  0.03270  0.60279  0.33003  1.0000
  H   H598      1.0  0.12914  0.50158  0.23007  1.0000
  C   C329      1.0  0.14541  0.57480  0.24889  1.0000
  C   C330      1.0  0.02225  0.56868  0.07026  1.0000
  C   C331      1.0  0.25686  0.53402  0.16887  1.0000
  C   C332      1.0  0.25979  0.89536  0.32357  1.0000
  H   H599      1.0  0.11219  0.51637  0.27118  1.0000
  H   H600      1.0  0.04808  0.54115  0.06448  1.0000
  H   H601      1.0  0.05110  0.58499  0.03747  1.0000
  C   C333      1.0  0.25387  0.98068  0.23521  1.0000
  H   H602      1.0  0.15399  0.51013  0.18123  1.0000
  N   N20       1.0  0.25838  0.91605  0.30504  1.0000
  C   C334      1.0  0.25662  0.86232  0.31937  1.0000
  H   H603      1.0  0.15417  0.57950  0.26110  1.0000
  H   H604      1.0  0.24568  0.98369  0.16098  1.0000
  H   H605      1.0  0.12866  0.60623  0.26219  1.0000
  H   H606      1.0  0.14230  0.62156  0.24313  1.0000
  H   H607      1.0  0.02792  0.64127  0.08645  1.0000
  H   H608      1.0  0.26443  0.85385  0.30664  1.0000
  C   C335      1.0  0.03050  0.63171  0.23981  1.0000
  C   C336      1.0  0.22058  0.92843  0.27213  1.0000
  C   C337      1.0  0.14177  0.50279  0.23382  1.0000
  Fe  Fe37      1.0  0.19790  0.53356  0.31827  1.0000
  S   S74       1.0  0.22856  0.62873  0.32430  1.0000
  H   H609      1.0  0.23951  0.59505  0.25634  1.0000
  N   N21       1.0  0.01714  0.65196  0.30997  1.0000
  H   H610      1.0  0.07416  0.55770  0.05108  1.0000
  H   H611      1.0  0.24615  0.64354  0.01396  1.0000
  H   H612      1.0  0.26347  0.59683  0.23366  1.0000
  H   H613      1.0  0.17437  0.92077  0.29159  1.0000
  H   H614      1.0  0.21700  0.94582  0.26087  1.0000
  H   H615      1.0  0.14411  0.53901  0.21117  1.0000
  H   H616      1.0  0.04895  0.55784  0.01730  1.0000
  H   H617      1.0  0.24495  0.93511  0.26563  1.0000
  H   H618      1.0  0.26310  0.96210  0.29881  1.0000
  Fe  Fe38      1.0  0.22391  0.57934  0.32224  1.0000
  H   H619      1.0  0.03265  0.58069  0.15203  1.0000
  C   C338      1.0  0.04209  0.67410  0.29104  1.0000
  S   S75       1.0  0.23651  0.51023  0.25967  1.0000
  C   C339      1.0  0.02308  0.62396  0.15533  1.0000
  C   C340      1.0  0.23931  0.58696  0.23988  1.0000
  H   H620      1.0  0.23679  0.95740  0.28648  1.0000
  H   H621      1.0  0.03222  0.52886  0.23078  1.0000
  H   H622      1.0  0.24795  0.57641  0.20057  1.0000
  C   C341      1.0  0.25983  0.94761  0.31233  1.0000
  H   H623      1.0  0.02188  0.54765  0.01804  1.0000
  C   C342      1.0  0.02835  0.98362  0.08322  1.0000
  H   H624      1.0  0.23342  0.69046  0.33134  1.0000
  H   H625      1.0  0.04632  0.56424  0.19332  1.0000
  H   H626      1.0  0.03086  0.51268  0.13204  1.0000
  C   C343      1.0  0.17635  0.93687  0.30435  1.0000
  C   C344      1.0  0.04235  0.54159  0.04892  1.0000
  H   H627      1.0  0.02896  0.50846  0.18190  1.0000
  H   H628      1.0  0.24962  0.54163  0.21320  1.0000
  C   C345      1.0  0.03598  0.55869  0.20350  1.0000
  H   H629      1.0  0.17851  0.62847  0.32248  1.0000
  H   H630      1.0  0.03747  0.53613  0.16585  1.0000
  C   C346      1.0  0.12798  0.54544  0.32155  1.0000
  C   C347      1.0  0.25575  0.56312  0.21073  1.0000
  H   H631      1.0  0.04087  0.65090  0.32090  1.0000
  H   H632      1.0  0.18224  0.90252  0.32616  1.0000
  C   C348      1.0  0.25599  0.50543  0.15638  1.0000
  H   H633      1.0  0.07661  0.56756  0.02371  1.0000
  H   H634      1.0  0.05493  0.56191  0.23834  1.0000
  H   H635      1.0  0.25570  0.50937  0.00532  1.0000
  H   H636      1.0  0.02819  0.60833  0.10234  1.0000
  H   H637      1.0  0.02160  0.98967  0.09767  1.0000
  H   H638      1.0  0.18951  0.51104  0.27937  1.0000
  C   C349      1.0  0.25399  0.62627  0.00867  1.0000
  H   H639      1.0  0.05944  0.52341  0.24047  1.0000
  C   C350      1.0  0.13634  0.49817  0.27151  1.0000
  C   C351      1.0  0.01680  0.70479  0.32579  1.0000
  C   C352      1.0  0.01715  0.58145  0.18024  1.0000
  H   H640      1.0  0.23669  0.52622  0.00627  1.0000
  C   C353      1.0  0.25681  0.98921  0.16874  1.0000
  C   C354      1.0  0.02337  0.61843  0.08791  1.0000
  C   C355      1.0  0.24293  0.50477  0.00624  1.0000
  H   H641      1.0  0.18186  0.73400  0.32722  1.0000
  H   H642      1.0  0.02960  0.70856  0.32667  1.0000
  C   C356      1.0  0.01927  0.99330  0.19038  1.0000
  C   C357      1.0  0.02636  0.52981  0.17414  1.0000
  N   N22       1.0  0.02182  0.55265  0.19031  1.0000
  H   H643      1.0  0.19284  0.51348  0.25124  1.0000
  H   H644      1.0  0.03994  0.97511  0.08796  1.0000
  H   H645      1.0  0.20361  0.76911  0.31921  1.0000
  H   H646      1.0  0.02210  0.96580  0.07494  1.0000
  C   C358      1.0  0.02083  0.50215  0.14056  1.0000
  H   H647      1.0  0.25881  0.99298  0.11840  1.0000
  H   H648      1.0  0.25993  0.56109  0.24463  1.0000
  H   H649      1.0  0.01765  0.50592  0.04153  1.0000
  C   C359      1.0  0.14840  0.49870  0.19492  1.0000
  C   C360      1.0  0.25256  0.99634  0.25422  1.0000
  S   S76       1.0  0.04971  0.53570  0.33232  1.0000
  C   C361      1.0  0.17417  0.90160  0.36878  1.0000
  C   C362      1.0  0.25192  0.77650  0.61847  1.0000
  C   C363      1.0  0.18429  0.94853  0.38111  1.0000
  H   H650      1.0  0.19509  0.98521  0.36297  1.0000
  S   S77       1.0  0.21016  0.55252  0.34591  1.0000
  H   H651      1.0  0.21061  0.76521  0.34561  1.0000
  H   H652      1.0  0.06172  0.64204  0.34492  1.0000
  H   H653      1.0  0.23777  0.53072  0.62829  1.0000
  Fe  Fe39      1.0  0.05340  0.77028  0.44979  1.0000
  S   S78       1.0  0.03822  0.78897  0.42457  1.0000
  S   S79       1.0  0.04537  0.75636  0.48305  1.0000
  Fe  Fe40      1.0  0.08349  0.77710  0.42228  1.0000
  S   S80       1.0  0.07028  0.79611  0.39523  1.0000
  S   S81       1.0  0.10888  0.76511  0.41488  1.0000
  Fe  Fe41      1.0  0.05724  0.82299  0.41936  1.0000
  S   S82       1.0  0.05131  0.87208  0.41771  1.0000
  Fe  Fe42      1.0  0.05262  0.76069  0.40254  1.0000
  S   S83       1.0  0.04320  0.73467  0.37532  1.0000
  S   S84       1.0  0.07166  0.80621  0.44626  1.0000
  S   S85       1.0  0.06655  0.73971  0.42796  1.0000
  Fe  Fe43      1.0  0.19681  0.80422  0.43251  1.0000
  S   S86       1.0  0.19877  0.78740  0.39953  1.0000
  S   S87       1.0  0.17352  0.81271  0.44943  1.0000
  Fe  Fe44      1.0  0.23253  0.80921  0.43707  1.0000
  S   S88       1.0  0.23693  0.79247  0.40397  1.0000
  S   S89       1.0  0.25478  0.81855  0.45557  1.0000
  Fe  Fe45      1.0  0.21714  0.82242  0.39521  1.0000
  S   S90       1.0  0.21633  0.84898  0.36508  1.0000
  Fe  Fe46      1.0  0.21825  0.75867  0.41097  1.0000
  S   S91       1.0  0.21855  0.70876  0.40581  1.0000
  S   S92       1.0  0.21399  0.84154  0.42749  1.0000
  S   S93       1.0  0.21512  0.77326  0.44473  1.0000
  C   C364      1.0  0.12633  0.78095  0.42425  1.0000
  C   C365      1.0  0.12684  0.79730  0.44280  1.0000
  C   C366      1.0  0.14136  0.80711  0.45031  1.0000
  C   C367      1.0  0.15542  0.80083  0.43928  1.0000
  C   C368      1.0  0.15479  0.78500  0.42054  1.0000
  C   C369      1.0  0.14034  0.77504  0.41319  1.0000
  H   H654      1.0  0.11613  0.80187  0.45156  1.0000
  H   H655      1.0  0.14172  0.81941  0.46481  1.0000
  H   H656      1.0  0.16544  0.78035  0.41180  1.0000
  H   H657      1.0  0.13990  0.76259  0.39886  1.0000
  C   C370      1.0  0.22691  0.65030  0.34748  1.0000
  C   C371      1.0  0.22977  0.68079  0.34623  1.0000
  C   C372      1.0  0.22776  0.69896  0.36402  1.0000
  C   C373      1.0  0.22278  0.68681  0.38329  1.0000
  C   C374      1.0  0.22020  0.65624  0.38462  1.0000
  C   C375      1.0  0.22224  0.63807  0.36685  1.0000
  H   H658      1.0  0.15697  0.74784  0.37329  1.0000
  H   H659      1.0  0.22986  0.72239  0.36277  1.0000
  H   H660      1.0  0.21640  0.64659  0.39946  1.0000
  H   H661      1.0  0.22005  0.61468  0.36810  1.0000
  C   C376      1.0  0.22915  0.94672  0.36639  1.0000
  C   C377      1.0  0.23054  0.92946  0.38458  1.0000
  C   C378      1.0  0.22635  0.89951  0.38448  1.0000
  C   C379      1.0  0.22071  0.88674  0.36623  1.0000
  C   C380      1.0  0.21876  0.90422  0.34831  1.0000
  C   C381      1.0  0.22302  0.93408  0.34837  1.0000
  H   H662      1.0  0.23470  0.93943  0.39879  1.0000
  H   H663      1.0  0.22750  0.88613  0.39840  1.0000
  H   H664      1.0  0.12701  0.96919  0.36654  1.0000
  H   H665      1.0  0.23867  0.83665  0.57091  1.0000
  C   C382      1.0  0.06026  0.93348  0.36031  1.0000
  C   C383      1.0  0.06320  0.90305  0.35883  1.0000
  C   C384      1.0  0.06070  0.88410  0.37625  1.0000
  C   C385      1.0  0.05511  0.89531  0.39544  1.0000
  C   C386      1.0  0.05220  0.92576  0.39697  1.0000
  C   C387      1.0  0.05481  0.94477  0.37956  1.0000
  C   C388      1.0  0.02620  0.54614  0.49515  1.0000
  H   H666      1.0  0.06298  0.86079  0.37474  1.0000
  H   H667      1.0  0.04788  0.93472  0.41170  1.0000
  H   H668      1.0  0.05247  0.96807  0.38098  1.0000
  C   C389      1.0  0.05078  0.63491  0.37523  1.0000
  C   C390      1.0  0.04346  0.64856  0.39257  1.0000
  C   C391      1.0  0.04158  0.67930  0.39305  1.0000
  C   C392      1.0  0.04642  0.69642  0.37579  1.0000
  C   C393      1.0  0.05316  0.68267  0.35813  1.0000
  C   C394      1.0  0.05576  0.65214  0.35811  1.0000
  H   H669      1.0  0.03931  0.63535  0.40573  1.0000
  H   H670      1.0  0.03607  0.68970  0.40658  1.0000
  H   H671      1.0  0.24148  0.81230  0.60185  1.0000
  H   H672      1.0  0.18681  0.51146  0.36763  1.0000
  C   C395      1.0  0.02340  0.65046  0.48634  1.0000
  Fe  Fe47      1.0  0.06286  0.57362  0.34620  1.0000
  H   H673      1.0  0.17190  0.72222  0.43636  1.0000
  H   H674      1.0  0.25886  0.85293  0.59823  1.0000
  H   H675      1.0  0.02610  0.67276  0.56739  1.0000
  H   H676      1.0  0.15657  0.97044  0.36903  1.0000
  H   H677      1.0  0.13369  0.73067  0.33917  1.0000
  H   H678      1.0  0.01744  0.73501  0.46180  1.0000
  H   H679      1.0  0.19030  0.99330  0.41064  1.0000
  H   H680      1.0  0.02799  0.84549  0.50601  1.0000
  H   H681      1.0  0.15947  0.71989  0.40149  1.0000
  H   H682      1.0  0.20830  0.98141  0.39778  1.0000
  H   H683      1.0  0.06739  0.89402  0.34404  1.0000
  C   C396      1.0  0.17145  0.85599  0.39183  1.0000
  C   C397      1.0  0.25066  0.79271  0.54925  1.0000
  C   C398      1.0  0.17595  0.64438  0.35472  1.0000
  H   H684      1.0  0.05674  0.69581  0.34464  1.0000
  H   H685      1.0  0.26596  0.72643  0.65191  1.0000
  H   H686      1.0  0.23602  0.88480  0.59017  1.0000
  C   C399      1.0  0.17043  0.88958  0.39121  1.0000
  S   S94       1.0  0.06335  0.95596  0.33749  1.0000
  H   H687      1.0  0.16631  0.88985  0.35803  1.0000
  H   H688      1.0  0.03398  0.74253  0.52472  1.0000
  H   H689      1.0  0.24318  0.90101  0.42460  1.0000
  H   H690      1.0  0.20321  0.50306  0.38390  1.0000
  H   H691      1.0  0.16900  0.84802  0.40811  1.0000
  H   H692      1.0  0.13152  0.64019  0.35155  1.0000
  N   N23       1.0  0.10622  0.66984  0.40445  1.0000
  C   C400      1.0  0.09293  0.64882  0.40938  1.0000
  C   C401      1.0  0.11904  0.65429  0.39202  1.0000
  C   C402      1.0  0.11280  0.67992  0.42514  1.0000
  C   C403      1.0  0.10062  0.69691  0.39308  1.0000
  C   C404      1.0  0.09424  0.69252  0.37085  1.0000
  C   C405      1.0  0.07896  0.66136  0.42250  1.0000
  C   C406      1.0  0.12915  0.69503  0.42410  1.0000
  C   C407      1.0  0.11399  0.63041  0.37604  1.0000
  H   H693      1.0  0.03269  0.64206  0.58287  1.0000
  C   C408      1.0  0.08787  0.72150  0.36222  1.0000
  C   C409      1.0  0.06864  0.63654  0.43136  1.0000
  C   C410      1.0  0.13294  0.70915  0.44518  1.0000
  H   H694      1.0  0.09755  0.62917  0.41777  1.0000
  H   H695      1.0  0.08767  0.64017  0.39484  1.0000
  H   H696      1.0  0.12659  0.67077  0.38363  1.0000
  H   H697      1.0  0.12684  0.64218  0.40287  1.0000
  H   H698      1.0  0.11372  0.66107  0.43633  1.0000
  H   H699      1.0  0.10477  0.69612  0.43284  1.0000
  H   H700      1.0  0.09154  0.70856  0.40269  1.0000
  H   H701      1.0  0.11024  0.71306  0.39116  1.0000
  H   H702      1.0  0.08469  0.67605  0.37099  1.0000
  H   H703      1.0  0.10379  0.68547  0.35991  1.0000
  H   H704      1.0  0.08262  0.67460  0.43608  1.0000
  H   H705      1.0  0.07174  0.67558  0.41230  1.0000
  H   H706      1.0  0.12978  0.71243  0.41191  1.0000
  H   H707      1.0  0.13849  0.67880  0.42045  1.0000
  H   H708      1.0  0.10992  0.61038  0.38468  1.0000
  H   H709      1.0  0.10431  0.63761  0.36599  1.0000
  C   C411      1.0  0.24553  0.51130  0.63065  1.0000
  H   H710      1.0  0.03232  0.66856  0.45678  1.0000
  C   C412      1.0  0.13677  0.73943  0.35482  1.0000
  H   H711      1.0  0.08350  0.71815  0.34610  1.0000
  H   H712      1.0  0.07804  0.72960  0.37233  1.0000
  H   H713      1.0  0.24229  0.50592  0.58966  1.0000
  H   H714      1.0  0.07489  0.62424  0.44374  1.0000
  H   H715      1.0  0.05777  0.64595  0.43842  1.0000
  H   H716      1.0  0.06543  0.62093  0.41878  1.0000
  H   H717      1.0  0.14422  0.72116  0.44386  1.0000
  H   H718      1.0  0.12380  0.72540  0.44983  1.0000
  H   H719      1.0  0.13380  0.69213  0.45769  1.0000
  C   C413      1.0  0.18798  0.98179  0.37760  1.0000
  C   C414      1.0  0.17211  0.71493  0.40269  1.0000
  C   C415      1.0  0.25172  0.87670  0.50456  1.0000
  H   H720      1.0  0.17647  0.60001  0.34221  1.0000
  H   H721      1.0  0.26616  0.88393  0.39409  1.0000
  H   H722      1.0  0.25146  0.90222  0.33636  1.0000
  C   C416      1.0  0.12755  0.94475  0.36635  1.0000
  H   H723      1.0  0.21680  0.50476  0.65165  1.0000
  H   H724      1.0  0.01996  0.66466  0.34245  1.0000
  N   N24       1.0  0.25881  0.51139  0.61451  1.0000
  H   H725      1.0  0.09716  0.73861  0.36154  1.0000
  S   S95       1.0  0.08587  0.54962  0.34536  1.0000
  H   H726      1.0  0.23925  0.77680  0.58979  1.0000
  H   H727      1.0  0.02117  0.96368  0.64926  1.0000
  Fe  Fe48      1.0  0.22810  0.51737  0.33957  1.0000
  S   S96       1.0  0.05377  0.59647  0.37562  1.0000
  H   H728      1.0  0.15386  0.94241  0.38797  1.0000
  C   C417      1.0  0.25936  0.84385  0.33911  1.0000
  N   N25       1.0  0.17312  0.93458  0.36594  1.0000
  H   H729      1.0  0.02043  0.63605  0.45399  1.0000
  H   H730      1.0  0.12383  0.60334  0.35112  1.0000
  C   C418      1.0  0.22259  0.91820  0.45402  1.0000
  C   C419      1.0  0.19227  0.73416  0.33733  1.0000
  H   H731      1.0  0.02711  0.60786  0.55361  1.0000
  H   H732      1.0  0.24273  0.88947  0.51255  1.0000
  H   H733      1.0  0.24810  0.88226  0.44789  1.0000
  H   H734      1.0  0.18619  0.89401  0.36431  1.0000
  C   C420      1.0  0.14343  0.93426  0.35773  1.0000
  H   H735      1.0  0.13764  0.61325  0.37087  1.0000
  H   H736      1.0  0.25627  0.56347  0.63993  1.0000
  C   C421      1.0  0.23989  0.92677  0.45255  1.0000
  H   H737      1.0  0.24785  0.76163  0.51130  1.0000
  H   H738      1.0  0.23557  0.85690  0.48293  1.0000
  H   H739      1.0  0.15214  0.69124  0.36476  1.0000
  H   H740      1.0  0.17888  0.63563  0.37048  1.0000
  C   C422      1.0  0.15443  0.73797  0.35792  1.0000
  H   H741      1.0  0.12536  0.93615  0.38253  1.0000
  H   H742      1.0  0.03287  0.81199  0.49387  1.0000
  H   H743      1.0  0.19574  0.93679  0.38060  1.0000
  H   H744      1.0  0.03187  0.87172  0.47009  1.0000
  C   C423      1.0  0.20002  0.76447  0.33578  1.0000
  H   H745      1.0  0.02617  0.67162  0.49416  1.0000
  H   H746      1.0  0.14462  0.94285  0.34140  1.0000
  H   H747      1.0  0.23882  0.78863  0.55624  1.0000
  C   C424      1.0  0.25808  0.86285  0.58234  1.0000
  H   H748      1.0  0.16011  0.75205  0.34565  1.0000
  C   C425      1.0  0.18777  0.72635  0.36042  1.0000
  C   C426      1.0  0.25907  0.84152  0.47730  1.0000
  C   C427      1.0  0.05347  0.85695  0.48285  1.0000
  C   C428      1.0  0.26240  0.79708  0.58391  1.0000
  H   H749      1.0  0.25656  0.82042  0.33596  1.0000
  C   C429      1.0  0.24800  0.89049  0.58439  1.0000
  H   H750      1.0  0.24416  0.92823  0.46887  1.0000
  C   C430      1.0  0.26284  0.54304  0.60918  1.0000
  C   C431      1.0  0.16057  0.70592  0.35619  1.0000
  H   H751      1.0  0.02979  0.64824  0.52534  1.0000
  H   H752      1.0  0.25053  0.85333  0.55117  1.0000
  H   H753      1.0  0.19116  0.94555  0.34266  1.0000
  H   H754      1.0  0.24728  0.90200  0.56898  1.0000
  C   C432      1.0  0.24761  0.85826  0.48775  1.0000
  C   C433      1.0  0.24939  0.90372  0.43957  1.0000
  H   H755      1.0  0.04325  0.65223  0.55907  1.0000
  H   H756      1.0  0.22115  0.89627  0.46162  1.0000
  H   H757      1.0  0.14314  0.90989  0.35755  1.0000
  H   H758      1.0  0.18336  0.84855  0.38698  1.0000
  C   C434      1.0  0.03724  0.85040  0.47443  1.0000
  H   H759      1.0  0.02126  0.97531  0.60253  1.0000
  H   H760      1.0  0.22184  0.94707  0.33432  1.0000
  N   N26       1.0  0.17702  0.70019  0.36352  1.0000
  H   H761      1.0  0.19470  0.61954  0.33921  1.0000
  C   C435      1.0  0.12766  0.62136  0.36158  1.0000
  H   H762      1.0  0.26024  0.79036  0.62722  1.0000
  H   H763      1.0  0.06071  0.86790  0.47035  1.0000
  H   H764      1.0  0.05263  0.87183  0.49662  1.0000
  H   H765      1.0  0.05940  0.83622  0.48748  1.0000
  H   H766      1.0  0.15843  0.89579  0.39649  1.0000
  H   H767      1.0  0.25437  0.86093  0.41140  1.0000
  H   H768      1.0  0.24123  0.77306  0.62841  1.0000
  C   C436      1.0  0.24791  0.80445  0.52670  1.0000
  H   H769      1.0  0.25625  0.77061  0.54811  1.0000
  C   C437      1.0  0.17696  0.69121  0.38644  1.0000
  S   S97       1.0  0.23561  0.98360  0.36645  1.0000
  C   C438      1.0  0.25109  0.84104  0.56632  1.0000
  H   H770      1.0  0.21410  0.89449  0.33427  1.0000
  H   H771      1.0  0.02324  0.91643  0.55172  1.0000
  H   H772      1.0  0.03216  0.59805  0.51650  1.0000
  C   C439      1.0  0.17493  0.70434  0.42513  1.0000
  H   H773      1.0  0.16271  0.84601  0.38133  1.0000
  H   H774      1.0  0.24005  0.82388  0.52721  1.0000
  H   H775      1.0  0.19886  0.72270  0.36881  1.0000
  H   H776      1.0  0.16884  0.67247  0.38945  1.0000
  H   H777      1.0  0.18881  0.68315  0.39065  1.0000
  H   H778      1.0  0.21747  0.91755  0.43811  1.0000
  H   H779      1.0  0.13051  0.72666  0.36729  1.0000
  H   H780      1.0  0.25900  0.81090  0.51866  1.0000
  H   H781      1.0  0.23809  0.79045  0.49720  1.0000
  H   H782      1.0  0.17893  0.89796  0.40269  1.0000
  H   H783      1.0  0.01939  0.56412  0.35085  1.0000
  H   H784      1.0  0.22870  0.77435  0.52015  1.0000
  H   H785      1.0  0.17722  0.99517  0.37636  1.0000
  H   H786      1.0  0.16767  0.68470  0.42898  1.0000
  H   H787      1.0  0.18746  0.69882  0.42719  1.0000
  C   C440      1.0  0.01831  0.57623  0.49368  1.0000
  H   H788      1.0  0.18289  0.74644  0.36783  1.0000
  H   H789      1.0  0.17897  0.73535  0.40054  1.0000
  H   H790      1.0  0.13278  0.76267  0.35585  1.0000
  C   C441      1.0  0.02704  0.83349  0.49098  1.0000
  H   H791      1.0  0.25333  0.90584  0.59574  1.0000
  H   H792      1.0  0.25025  0.51377  0.64676  1.0000
  H   H793      1.0  0.03895  0.83710  0.45998  1.0000
  C   C442      1.0  0.02742  0.74054  0.49222  1.0000
  H   H794      1.0  0.03872  0.54864  0.49916  1.0000
  H   H795      1.0  0.21604  0.93463  0.46361  1.0000
  H   H796      1.0  0.25744  0.75474  0.61540  1.0000
  C   C443      1.0  0.15693  0.94614  0.37108  1.0000
  C   C444      1.0  0.24015  0.78119  0.51311  1.0000
  C   C445      1.0  0.02490  0.73639  0.51398  1.0000
  H   H797      1.0  0.19177  0.78194  0.34112  1.0000
  H   H798      1.0  0.25669  0.60430  0.61458  1.0000
  N   N27       1.0  0.25994  0.81261  0.56324  1.0000
  H   H799      1.0  0.24059  0.94896  0.44532  1.0000
  H   H800      1.0  0.17972  0.94625  0.39756  1.0000
  H   H801      1.0  0.25329  0.55308  0.59986  1.0000
  C   C446      1.0  0.24757  0.79147  0.59783  1.0000
  H   H802      1.0  0.01844  0.79234  0.46592  1.0000
  H   H803      1.0  0.25167  0.85141  0.35233  1.0000
  C   C447      1.0  0.02173  0.65687  0.46288  1.0000
  C   C448      1.0  0.18382  0.67483  0.35102  1.0000
  H   H804      1.0  0.03351  0.63549  0.48833  1.0000
  H   H805      1.0  0.18361  0.49908  0.39448  1.0000
  C   C449      1.0  0.18178  0.62182  0.33862  1.0000
  C   C450      1.0  0.03143  0.65048  0.56657  1.0000
  H   H806      1.0  0.15943  0.69997  0.33931  1.0000
  H   H807      1.0  0.11809  0.93658  0.35618  1.0000
  H   H808      1.0  0.18334  0.67947  0.33384  1.0000
  C   C451      1.0  0.26494  0.49952  0.57509  1.0000
  H   H809      1.0  0.02557  0.53474  0.47978  1.0000
  H   H810      1.0  0.19644  0.67220  0.35441  1.0000
  H   H811      1.0  0.02429  0.58860  0.48074  1.0000
  C   C452      1.0  0.02112  0.62949  0.55422  1.0000
  H   H812      1.0  0.26320  0.50816  0.39971  1.0000
  C   C453      1.0  0.19734  0.99412  0.39577  1.0000
  H   H813      1.0  0.17349  0.96529  0.33990  1.0000
  H   H814      1.0  0.26106  0.95485  0.42527  1.0000
  C   C454      1.0  0.17821  0.94321  0.34383  1.0000
  H   H815      1.0  0.16304  0.64597  0.35360  1.0000
  H   H816      1.0  0.01876  0.61775  0.34864  1.0000
  H   H817      1.0  0.24648  0.73866  0.65952  1.0000
  H   H818      1.0  0.26103  0.92884  0.40486  1.0000
  H   H819      1.0  0.03092  0.99503  0.63708  1.0000
  H   H820      1.0  0.26558  0.52268  0.56948  1.0000
  H   H821      1.0  0.25787  0.83575  0.66539  1.0000
  C   C455      1.0  0.26594  0.56380  0.62804  1.0000
  C   C456      1.0  0.02004  0.60545  0.33369  1.0000
  C   C457      1.0  0.01975  0.98696  0.64424  1.0000
  C   C458      1.0  0.01946  0.59330  0.51471  1.0000
  C   C459      1.0  0.01810  0.64178  0.53180  1.0000
  H   H822      1.0  0.02020  0.53225  0.50729  1.0000
  C   C460      1.0  0.25733  0.72809  0.66514  1.0000
  H   H823      1.0  0.01864  0.80401  0.52759  1.0000
  H   H824      1.0  0.26598  0.94555  0.34559  1.0000
  H   H825      1.0  0.14071  0.50809  0.33301  1.0000
  Fe  Fe49      1.0  0.04602  0.81225  0.81021  1.0000
  S   S98       1.0  0.04224  0.79561  0.84348  1.0000
  H   H826      1.0  0.25935  0.78599  0.66729  1.0000
  Fe  Fe50      1.0  0.08177  0.80674  0.81373  1.0000
  S   S99       1.0  0.08034  0.79010  0.84689  1.0000
  S   S100      1.0  0.10496  0.81197  0.79596  1.0000
  Fe  Fe51      1.0  0.06068  0.76158  0.83614  1.0000
  S   S101      1.0  0.05873  0.71172  0.84081  1.0000
  Fe  Fe52      1.0  0.06221  0.82549  0.85136  1.0000
  S   S102      1.0  0.06336  0.85284  0.88092  1.0000
  S   S103      1.0  0.06311  0.77611  0.80226  1.0000
  S   S104      1.0  0.06493  0.84440  0.81882  1.0000
  Fe  Fe53      1.0  0.19319  0.77989  0.82900  1.0000
  S   S105      1.0  0.20694  0.79546  0.85663  1.0000
  S   S106      1.0  0.16782  0.76934  0.83794  1.0000
  Fe  Fe54      1.0  0.22316  0.77406  0.80083  1.0000
  S   S107      1.0  0.23858  0.78921  0.82680  1.0000
  S   S108      1.0  0.23147  0.75858  0.76803  1.0000
  Fe  Fe55      1.0  0.22383  0.75959  0.84773  1.0000
  S   S109      1.0  0.23373  0.73017  0.87320  1.0000
  Fe  Fe56      1.0  0.22013  0.82388  0.83339  1.0000
  S   S110      1.0  0.22758  0.87187  0.83793  1.0000
  S   S111      1.0  0.20948  0.74233  0.82149  1.0000
  S   S112      1.0  0.20538  0.81056  0.80592  1.0000
  Fe  Fe57      1.0  0.05217  0.53402  0.95013  1.0000
  S   S113      1.0  0.04841  0.55470  0.91816  1.0000
  S   S114      1.0  0.03054  0.53235  0.97240  1.0000
  Fe  Fe58      1.0  0.08722  0.52464  0.93990  1.0000
  S   S115      1.0  0.08569  0.54455  0.90781  1.0000
  H   H827      1.0  0.01907  0.98251  0.83040  1.0000
  Fe  Fe59      1.0  0.07082  0.57949  0.92304  1.0000
  S   S116      1.0  0.07594  0.62858  0.91826  1.0000
  Fe  Fe60      1.0  0.06366  0.51800  0.90566  1.0000
  H   H828      1.0  0.10568  0.71139  0.88776  1.0000
  S   S117      1.0  0.07382  0.56121  0.95587  1.0000
  H   H829      1.0  0.26272  0.57201  0.89586  1.0000
  Fe  Fe61      1.0  0.19581  0.55951  0.93986  1.0000
  S   S118      1.0  0.19754  0.53917  0.90804  1.0000
  S   S119      1.0  0.17237  0.57944  0.94889  1.0000
  Fe  Fe62      1.0  0.23112  0.55359  0.94741  1.0000
  S   S120      1.0  0.23515  0.53273  0.91548  1.0000
  S   S121      1.0  0.25342  0.55806  0.96669  1.0000
  Fe  Fe63      1.0  0.21879  0.56769  0.90380  1.0000
  S   S122      1.0  0.22043  0.59311  0.87327  1.0000
  H   H830      1.0  0.26194  0.74490  0.84789  1.0000
  S   S123      1.0  0.20720  0.96152  0.91048  1.0000
  S   S124      1.0  0.21629  0.59024  0.93486  1.0000
  S   S125      1.0  0.21030  0.52451  0.95528  1.0000
  C   C461      1.0  0.12153  0.52435  0.88351  1.0000
  C   C462      1.0  0.12742  0.52440  0.94698  1.0000
  C   C463      1.0  0.12674  0.55515  0.94658  1.0000
  C   C464      1.0  0.14063  0.57177  0.94704  1.0000
  C   C465      1.0  0.15527  0.55781  0.94724  1.0000
  C   C466      1.0  0.15598  0.52706  0.94685  1.0000
  C   C467      1.0  0.02049  0.77883  0.73738  1.0000
  H   H831      1.0  0.11551  0.56612  0.94659  1.0000
  H   H832      1.0  0.13999  0.59551  0.94760  1.0000
  H   H833      1.0  0.16721  0.51612  0.94715  1.0000
  C   C468      1.0  0.23093  0.68120  0.96432  1.0000
  H   H834      1.0  0.12323  0.73015  0.87915  1.0000
  H   H835      1.0  0.05310  0.95199  0.79845  1.0000
  S   S126      1.0  0.04220  0.98648  0.87792  1.0000
  H   H836      1.0  0.23999  0.72290  0.73250  1.0000
  H   H837      1.0  0.23240  0.63192  0.90528  1.0000
  C   C469      1.0  0.21143  0.93795  0.88887  1.0000
  C   C470      1.0  0.20653  0.90839  0.89001  1.0000
  C   C471      1.0  0.21087  0.88811  0.87419  1.0000
  C   C472      1.0  0.22035  0.89711  0.85713  1.0000
  C   C473      1.0  0.22495  0.92684  0.85576  1.0000
  C   C474      1.0  0.22035  0.94725  0.87138  1.0000
  H   H838      1.0  0.19957  0.90097  0.90342  1.0000
  H   H839      1.0  0.20719  0.86537  0.87545  1.0000
  H   H840      1.0  0.23220  0.93407  0.84257  1.0000
  H   H841      1.0  0.22407  0.96996  0.87017  1.0000
  C   C475      1.0  0.22834  0.69268  0.87412  1.0000
  C   C476      1.0  0.22071  0.67943  0.85743  1.0000
  C   C477      1.0  0.21788  0.64898  0.85761  1.0000
  C   C478      1.0  0.22238  0.63164  0.87469  1.0000
  C   C479      1.0  0.22919  0.64510  0.89196  1.0000
  C   C480      1.0  0.23231  0.67551  0.89159  1.0000
  H   H842      1.0  0.21732  0.69248  0.84414  1.0000
  H   H843      1.0  0.21239  0.63876  0.84433  1.0000
  H   H844      1.0  0.03726  0.94445  0.94012  1.0000
  H   H845      1.0  0.09942  0.96679  0.94285  1.0000
  C   C481      1.0  0.06302  0.68927  0.86291  1.0000
  C   C482      1.0  0.06128  0.65856  0.86125  1.0000
  C   C483      1.0  0.06487  0.63972  0.87816  1.0000
  C   C484      1.0  0.07047  0.65138  0.89686  1.0000
  C   C485      1.0  0.07233  0.68208  0.89848  1.0000
  C   C486      1.0  0.06845  0.70096  0.88171  1.0000
  H   H846      1.0  0.05705  0.64928  0.84681  1.0000
  H   H847      1.0  0.06342  0.61617  0.87666  1.0000
  H   H848      1.0  0.07660  0.69133  0.91290  1.0000
  H   H849      1.0  0.06962  0.72453  0.88332  1.0000
  C   C487      1.0  0.05786  0.89005  0.87960  1.0000
  C   C488      1.0  0.05936  0.90769  0.89745  1.0000
  C   C489      1.0  0.05480  0.93739  0.89702  1.0000
  C   C490      1.0  0.04863  0.94961  0.87881  1.0000
  C   C491      1.0  0.04731  0.93199  0.86094  1.0000
  C   C492      1.0  0.05193  0.90232  0.86124  1.0000
  H   H850      1.0  0.06393  0.89828  0.91171  1.0000
  H   H851      1.0  0.05566  0.95043  0.91099  1.0000
  H   H852      1.0  0.04288  0.94146  0.84679  1.0000
  H   H853      1.0  0.05075  0.88889  0.84739  1.0000
  C   C493      1.0  0.12278  0.80267  0.80804  1.0000
  C   C494      1.0  0.13666  0.80093  0.79584  1.0000
  C   C495      1.0  0.15082  0.79217  0.80495  1.0000
  C   C496      1.0  0.15113  0.78489  0.82633  1.0000
  C   C497      1.0  0.13735  0.78736  0.83860  1.0000
  C   C498      1.0  0.12331  0.79648  0.82954  1.0000
  H   H854      1.0  0.13640  0.80591  0.77920  1.0000
  H   H855      1.0  0.16136  0.79019  0.79532  1.0000
  H   H856      1.0  0.13751  0.78193  0.85517  1.0000
  H   H857      1.0  0.11288  0.79867  0.83921  1.0000
  H   H858      1.0  0.09397  0.89911  0.84566  1.0000
  C   C499      1.0  0.03134  0.85465  0.75753  1.0000
  N   N28       1.0  0.01913  0.94452  0.79244  1.0000
  H   H859      1.0  0.04024  0.89791  0.97532  1.0000
  H   H860      1.0  0.04342  0.85018  0.76118  1.0000
  H   H861      1.0  0.02326  0.88463  0.80483  1.0000
  H   H862      1.0  0.05734  0.88897  0.78202  1.0000
  H   H863      1.0  0.25440  0.70545  0.67059  1.0000
  H   H864      1.0  0.10882  0.65227  0.93056  1.0000
  H   H865      1.0  0.23798  0.90482  0.90034  1.0000
  H   H866      1.0  0.06940  0.98619  0.84580  1.0000
  C   C500      1.0  0.25323  0.61748  0.82862  1.0000
  H   H867      1.0  0.05279  0.94556  0.98379  1.0000
  H   H868      1.0  0.09205  0.89780  0.88339  1.0000
  C   C501      1.0  0.12003  0.95247  0.87445  1.0000
  H   H869      1.0  0.25611  0.83899  0.87301  1.0000
  H   H870      1.0  0.02651  0.79911  0.73180  1.0000
  H   H871      1.0  0.23731  0.82387  0.73436  1.0000
  C   C502      1.0  0.02114  0.97731  0.79604  1.0000
  H   H872      1.0  0.10901  0.93509  0.95377  1.0000
  C   C503      1.0  0.23939  0.66333  0.80382  1.0000
  H   H873      1.0  0.09827  0.97143  0.90365  1.0000
  H   H874      1.0  0.11302  0.53753  0.87447  1.0000
  H   H875      1.0  0.25493  0.74644  0.69581  1.0000
  H   H876      1.0  0.09773  0.74806  0.81605  1.0000
  H   H877      1.0  0.15379  0.71559  0.81039  1.0000
  H   H878      1.0  0.07180  0.91129  0.79450  1.0000
  C   C504      1.0  0.24968  0.89911  0.90645  1.0000
  C   C505      1.0  0.13448  0.93288  0.87907  1.0000
  H   H879      1.0  0.23787  0.85306  0.88323  1.0000
  C   C506      1.0  0.21648  0.67435  0.78031  1.0000
  H   H880      1.0  0.22502  0.68286  0.94899  1.0000
  H   H881      1.0  0.16019  0.67782  0.81012  1.0000
  H   H882      1.0  0.20835  0.67521  0.79418  1.0000
  H   H883      1.0  0.21211  0.68978  0.76817  1.0000
  H   H884      1.0  0.21658  0.65176  0.77372  1.0000
  H   H885      1.0  0.25434  0.57690  0.84666  1.0000
  C   C507      1.0  0.04835  0.92965  0.79577  1.0000
  H   H886      1.0  0.02941  0.91210  0.91360  1.0000
  C   C508      1.0  0.14969  0.95053  0.87719  1.0000
  H   H887      1.0  0.08663  0.93923  0.90455  1.0000
  C   C509      1.0  0.02220  0.50381  0.98832  1.0000
  H   H888      1.0  0.24087  0.49971  0.97303  1.0000
  C   C510      1.0  0.14207  0.51042  0.94708  1.0000
  C   C511      1.0  0.22881  0.94465  0.96067  1.0000
  S   S127      1.0  0.02318  0.82187  0.79318  1.0000
  H   H889      1.0  0.24697  0.70452  0.83028  1.0000
  H   H890      1.0  0.11945  0.85660  0.86053  1.0000
  N   N29       1.0  0.11115  0.70205  0.84244  1.0000
  C   C512      1.0  0.10224  0.70101  0.82222  1.0000
  C   C513      1.0  0.10823  0.67435  0.85523  1.0000
  C   C514      1.0  0.12843  0.70715  0.83850  1.0000
  C   C515      1.0  0.13719  0.68441  0.82464  1.0000
  C   C516      1.0  0.10325  0.72893  0.80808  1.0000
  C   C517      1.0  0.10601  0.64511  0.84314  1.0000
  C   C518      1.0  0.10638  0.61867  0.85811  1.0000
  C   C519      1.0  0.15390  0.69472  0.81960  1.0000
  C   C520      1.0  0.09460  0.72437  0.78759  1.0000
  H   H891      1.0  0.08960  0.69689  0.82584  1.0000
  H   H892      1.0  0.10599  0.68223  0.81229  1.0000
  H   H893      1.0  0.11771  0.67123  0.86668  1.0000
  H   H894      1.0  0.09722  0.67648  0.86485  1.0000
  H   H895      1.0  0.09187  0.72748  0.85545  1.0000
  H   H896      1.0  0.13476  0.70765  0.85353  1.0000
  H   H897      1.0  0.13137  0.68099  0.80945  1.0000
  H   H898      1.0  0.13804  0.66316  0.83320  1.0000
  H   H899      1.0  0.11555  0.73456  0.80387  1.0000
  H   H900      1.0  0.09441  0.64517  0.83554  1.0000
  H   H901      1.0  0.11507  0.64175  0.83072  1.0000
  H   H902      1.0  0.09729  0.62094  0.87078  1.0000
  H   H903      1.0  0.10396  0.59816  0.84932  1.0000
  H   H904      1.0  0.11803  0.61667  0.86537  1.0000
  H   H905      1.0  0.16043  0.69846  0.83427  1.0000
  H   H906      1.0  0.08213  0.71878  0.79091  1.0000
  H   H907      1.0  0.09506  0.74504  0.77817  1.0000
  H   H908      1.0  0.10015  0.70652  0.77819  1.0000
  N   N30       1.0  0.16102  0.65431  0.90317  1.0000
  C   C521      1.0  0.17021  0.67205  0.88699  1.0000
  C   C522      1.0  0.15958  0.62255  0.89617  1.0000
  C   C523      1.0  0.14470  0.66705  0.90470  1.0000
  C   C524      1.0  0.16804  0.65607  0.92472  1.0000
  C   C525      1.0  0.18575  0.64980  0.92617  1.0000
  C   C526      1.0  0.17163  0.70554  0.89132  1.0000
  C   C527      1.0  0.13302  0.65038  0.91965  1.0000
  C   C528      1.0  0.17325  0.60922  0.88285  1.0000
  C   C529      1.0  0.17005  0.57688  0.87795  1.0000
  C   C530      1.0  0.19124  0.65438  0.94863  1.0000
  C   C531      1.0  0.11656  0.66336  0.91868  1.0000
  H   H909      1.0  0.16481  0.66975  0.87129  1.0000
  H   H910      1.0  0.18229  0.66331  0.88491  1.0000
  H   H911      1.0  0.15752  0.60776  0.91001  1.0000
  H   H912      1.0  0.14909  0.61972  0.88625  1.0000
  H   H913      1.0  0.13953  0.66807  0.88881  1.0000
  H   H914      1.0  0.14498  0.69014  0.91045  1.0000
  H   H915      1.0  0.16578  0.67804  0.93185  1.0000
  H   H916      1.0  0.16214  0.64018  0.93567  1.0000
  H   H917      1.0  0.19286  0.66456  0.91583  1.0000
  H   H918      1.0  0.18822  0.62664  0.92206  1.0000
  H   H919      1.0  0.16034  0.71671  0.88829  1.0000
  H   H920      1.0  0.17495  0.70994  0.90775  1.0000
  H   H921      1.0  0.13677  0.65205  0.93620  1.0000
  H   H922      1.0  0.13212  0.62672  0.91561  1.0000
  H   H923      1.0  0.17459  0.62084  0.86752  1.0000
  H   H924      1.0  0.18453  0.61053  0.89096  1.0000
  H   H925      1.0  0.16804  0.56412  0.89271  1.0000
  H   H926      1.0  0.15961  0.57478  0.86799  1.0000
  H   H927      1.0  0.18030  0.56740  0.86933  1.0000
  H   H928      1.0  0.18439  0.64042  0.95989  1.0000
  H   H929      1.0  0.20370  0.64798  0.94964  1.0000
  H   H930      1.0  0.19005  0.67784  0.95323  1.0000
  H   H931      1.0  0.11667  0.68729  0.92216  1.0000
  H   H932      1.0  0.11148  0.65962  0.90302  1.0000
  C   C532      1.0  0.10491  0.72778  0.85504  1.0000
  H   H933      1.0  0.11099  0.91203  0.91883  1.0000
  C   C533      1.0  0.03304  0.75789  0.74535  1.0000
  H   H934      1.0  0.06450  0.92217  0.76922  1.0000
  H   H935      1.0  0.22208  0.81987  0.71541  1.0000
  H   H936      1.0  0.22704  0.66087  0.97272  1.0000
  H   H937      1.0  0.13047  0.72930  0.83146  1.0000
  C   C534      1.0  0.23294  0.68362  0.78644  1.0000
  H   H938      1.0  0.10828  0.74880  0.84730  1.0000
  C   C535      1.0  0.18406  0.71978  0.87692  1.0000
  H   H939      1.0  0.12046  0.94778  0.91917  1.0000
  H   H940      1.0  0.14988  0.96816  0.88923  1.0000
  C   C536      1.0  0.02331  0.89724  0.92493  1.0000
  H   H941      1.0  0.24235  0.90694  0.95147  1.0000
  H   H942      1.0  0.26002  0.78031  0.71935  1.0000
  C   C537      1.0  0.11032  0.73003  0.87817  1.0000
  H   H943      1.0  0.18403  0.74402  0.87921  1.0000
  H   H944      1.0  0.25745  0.89246  0.87364  1.0000
  C   C538      1.0  0.10803  0.86200  0.85346  1.0000
  H   H945      1.0  0.24658  0.65209  0.93429  1.0000
  H   H946      1.0  0.10832  0.85454  0.83685  1.0000
  H   H947      1.0  0.05024  0.89751  0.95010  1.0000
  H   H948      1.0  0.08170  0.99040  0.88100  1.0000
  H   H949      1.0  0.25074  0.63380  0.95804  1.0000
  H   H950      1.0  0.19586  0.71141  0.88071  1.0000
  H   H951      1.0  0.09853  0.84990  0.86202  1.0000
  Fe  Fe64      1.0  0.21345  0.50608  0.92252  1.0000
  C   C539      1.0  0.02097  0.80741  0.68623  1.0000
  H   H952      1.0  0.18170  0.71529  0.86014  1.0000
  C   C540      1.0  0.05757  0.93150  0.97092  1.0000
  H   H953      1.0  0.15103  0.96054  0.86128  1.0000
  H   H954      1.0  0.12147  0.97373  0.88292  1.0000
  H   H955      1.0  0.03217  0.88052  0.92931  1.0000
  H   H956      1.0  0.02874  0.98715  0.78340  1.0000
  H   H957      1.0  0.08089  0.94133  0.86634  1.0000
  H   H958      1.0  0.04591  0.91866  0.81107  1.0000
  C   C541      1.0  0.23633  0.92534  0.94362  1.0000
  H   H959      1.0  0.23799  0.64041  0.79828  1.0000
  H   H960      1.0  0.11467  0.90647  0.84536  1.0000
  H   H961      1.0  0.23686  0.60629  0.98855  1.0000
  C   C542      1.0  0.06125  0.91197  0.78462  1.0000
  C   C543      1.0  0.10503  0.89511  0.85410  1.0000
  C   C544      1.0  0.02769  0.87155  0.73965  1.0000
  C   C545      1.0  0.09237  0.95274  0.86459  1.0000
  S   S128      1.0  0.11021  0.50283  0.94786  1.0000
  H   H962      1.0  0.23131  0.66522  0.81763  1.0000
  C   C546      1.0  0.10439  0.75838  0.88842  1.0000
  H   H963      1.0  0.10913  0.77796  0.87989  1.0000
  H   H964      1.0  0.25224  0.60593  0.92243  1.0000
  H   H965      1.0  0.03953  0.76871  0.75816  1.0000
  C   C547      1.0  0.26411  0.74553  0.68328  1.0000
  H   H966      1.0  0.25732  0.60957  0.86191  1.0000
  H   H967      1.0  0.22746  0.70048  0.97402  1.0000
  H   H968      1.0  0.10824  0.75932  0.90496  1.0000
  H   H969      1.0  0.13532  0.91458  0.86760  1.0000
  H   H970      1.0  0.09628  0.94916  0.84799  1.0000
  H   H971      1.0  0.13347  0.52878  0.87701  1.0000
  H   H972      1.0  0.12119  0.95842  0.85748  1.0000
  H   H973      1.0  0.02015  0.88559  0.84338  1.0000
  H   H974      1.0  0.03062  0.79655  0.69466  1.0000
  C   C548      1.0  0.10341  0.90649  0.87701  1.0000
  H   H975      1.0  0.11235  0.89534  0.88656  1.0000
  N   N31       1.0  0.10405  0.93954  0.87948  1.0000
  C   C549      1.0  0.24992  0.74435  0.75925  1.0000
  H   H976      1.0  0.09140  0.75921  0.88847  1.0000
  H   H977      1.0  0.24721  0.88402  0.91985  1.0000
  C   C550      1.0  0.24549  0.81166  0.70275  1.0000
  N   N32       1.0  0.25782  0.92680  0.91347  1.0000
  H   H978      1.0  0.23785  0.95375  0.97110  1.0000
  C   C551      1.0  0.26381  0.74989  0.76978  1.0000
  C   C552      1.0  0.25065  0.72748  0.74074  1.0000
  H   H979      1.0  0.04150  0.75226  0.73249  1.0000
  H   H980      1.0  0.23788  0.68580  0.90476  1.0000
  C   C553      1.0  0.24866  0.68107  0.96087  1.0000
  C   C554      1.0  0.10131  0.94271  0.94101  1.0000
  H   H981      1.0  0.22672  0.91588  0.93427  1.0000
  H   H982      1.0  0.24036  0.61833  0.83131  1.0000
  C   C555      1.0  0.10904  0.93611  0.91964  1.0000
  C   C556      1.0  0.09876  0.94725  0.90157  1.0000
  H   H983      1.0  0.13391  0.92297  0.89497  1.0000
  H   H984      1.0  0.24050  0.68305  0.77206  1.0000
  H   H985      1.0  0.25186  0.70167  0.95246  1.0000
  H   H986      1.0  0.12091  0.53157  0.90018  1.0000
  H   H987      1.0  0.23133  0.78765  0.72600  1.0000
  H   H988      1.0  0.03706  0.88007  0.72964  1.0000
  H   H989      1.0  0.23203  0.70649  0.79220  1.0000
  H   H990      1.0  0.02341  0.93283  0.82491  1.0000
  H   H991      1.0  0.02703  0.85138  0.89641  1.0000
  C   C557      1.0  0.25051  0.85072  0.88648  1.0000
  H   H992      1.0  0.03873  0.97588  0.82111  1.0000
  C   C558      1.0  0.25886  0.58339  0.98661  1.0000
  C   C559      1.0  0.25990  0.59903  0.84648  1.0000
  H   H993      1.0  0.22226  0.96310  0.95347  1.0000
  H   H994      1.0  0.02763  0.73741  0.75178  1.0000
  H   H995      1.0  0.23967  0.95903  0.92062  1.0000
  H   H996      1.0  0.25459  0.71665  0.80552  1.0000
  C   C560      1.0  0.25403  0.65336  0.94837  1.0000
  H   H997      1.0  0.24909  0.94934  0.88624  1.0000
  H   H998      1.0  0.15984  0.93577  0.87978  1.0000
  C   C561      1.0  0.03154  0.93081  0.95263  1.0000
  H   H999      1.0  0.26565  0.68497  0.78072  1.0000
  C   C562      1.0  0.26163  0.80109  0.71023  1.0000
  C   C563      1.0  0.08922  0.98624  0.86685  1.0000
  C   C564      1.0  0.02712  0.83707  0.67815  1.0000
  C   C565      1.0  0.01936  0.84334  0.77050  1.0000
  H   H1000     1.0  0.03710  0.94443  0.76789  1.0000
  C   C566      1.0  0.04472  0.91189  0.96219  1.0000
  H   H1001     1.0  0.02048  0.96960  0.92233  1.0000
  C   C567      1.0  0.26501  0.71625  0.73287  1.0000
  H   H1002     1.0  0.25609  0.65865  0.84373  1.0000
  C   C568      1.0  0.25815  0.88091  0.88903  1.0000
  C   C569      1.0  0.23337  0.81072  0.72077  1.0000
  H   H1003     1.0  0.24097  0.79767  0.69002  1.0000
  H   H1004     1.0  0.25551  0.60579  0.81368  1.0000
  H   H1005     1.0  0.24633  0.83479  0.69717  1.0000
  C   C570      1.0  0.24753  0.94356  0.92903  1.0000
  H   H1006     1.0  0.03737  0.83354  0.66743  1.0000
  H   H1007     1.0  0.01796  0.84893  0.66934  1.0000
  H   H1008     1.0  0.26529  0.70273  0.71892  1.0000
  H   H1009     1.0  0.25398  0.68159  0.97664  1.0000
  H   H1010     1.0  0.01891  0.52429  0.92698  1.0000
  H   H1011     1.0  0.06265  0.94588  0.95836  1.0000
  H   H1012     1.0  0.22044  0.93134  0.97034  1.0000
  H   H1013     1.0  0.02756  0.94691  0.96471  1.0000
  H   H1014     1.0  0.02198  0.88436  0.88207  1.0000
  C   C571      1.0  0.26020  0.64908  0.82843  1.0000
  H   H1015     1.0  0.08990  0.93111  0.94266  1.0000
  N   N33       1.0  0.25593  0.66934  0.81045  1.0000
  C   C572      1.0  0.26037  0.94607  0.89427  1.0000
  H   H1016     1.0  0.26434  0.62507  0.90313  1.0000
  H   H1017     1.0  0.01923  0.87428  0.96260  1.0000
  H   H1018     1.0  0.03105  0.90917  0.77614  1.0000
  C   C573      1.0  0.25658  0.70065  0.81845  1.0000
  H   H1019     1.0  0.25601  0.63078  0.77499  1.0000
  H   H1020     1.0  0.01907  0.75501  0.70780  1.0000
  C   C574      1.0  0.01738  0.86685  0.89275  1.0000
  H   H1021     1.0  0.26523  0.67185  0.91221  1.0000
  H   H1022     1.0  0.01813  0.79392  0.67236  1.0000
  H   H1023     1.0  0.25187  0.83717  0.90090  1.0000
  C   C575      1.0  0.02770  0.98720  0.81748  1.0000
  H   H1024     1.0  0.26350  0.76312  0.78387  1.0000
  C   C576      1.0  0.03360  0.93155  0.78216  1.0000
  C   C577      1.0  0.26442  0.60954  0.91661  1.0000
  H   H1025     1.0  0.25476  0.95791  0.93915  1.0000
  H   H1026     1.0  0.03085  0.85098  0.69147  1.0000
  N   N34       1.0  0.01780  0.91424  0.94398  1.0000
  H   H1027     1.0  0.26119  0.98901  0.91085  1.0000
  H   H1028     1.0  0.26535  0.81737  0.72215  1.0000
  C   C578      1.0  0.24870  0.60520  0.99420  1.0000
  H   H1029     1.0  0.06705  0.91764  0.97733  1.0000
  H   H1030     1.0  0.01662  0.94477  0.74610  1.0000
  H   H1031     1.0  0.08790  0.99647  0.83338  1.0000
  Fe  Fe65      1.0  0.44101  0.19557  0.07860  1.0000
  S   S129      1.0  0.45244  0.17654  0.10696  1.0000
  S   S130      1.0  0.41556  0.20838  0.08497  1.0000
  Fe  Fe66      1.0  0.47256  0.19758  0.05350  1.0000
  S   S131      1.0  0.48594  0.17753  0.08026  1.0000
  S   S132      1.0  0.48181  0.21511  0.02151  1.0000
  Fe  Fe67      1.0  0.46537  0.14645  0.08478  1.0000
  S   S133      1.0  0.46395  0.09651  0.09070  1.0000
  Fe  Fe68      1.0  0.47177  0.20889  0.10045  1.0000
  S   S134      1.0  0.48158  0.23383  0.12805  1.0000
  S   S135      1.0  0.45288  0.16408  0.05628  1.0000
  S   S136      1.0  0.45948  0.23034  0.07375  1.0000
  Fe  Fe69      1.0  0.29516  0.16071  0.05152  1.0000
  S   S137      1.0  0.29022  0.17929  0.08399  1.0000
  H   H1032     1.0  0.49908  0.35100  0.09573  1.0000
  Fe  Fe70      1.0  0.33079  0.16366  0.05829  1.0000
  S   S138      1.0  0.32811  0.18205  0.09073  1.0000
  S   S139      1.0  0.35479  0.15511  0.04346  1.0000
  Fe  Fe71      1.0  0.30904  0.14821  0.09450  1.0000
  S   S140      1.0  0.30842  0.12226  0.12500  1.0000
  Fe  Fe72      1.0  0.30977  0.21159  0.07744  1.0000
  S   S141      1.0  0.31029  0.26183  0.08096  1.0000
  S   S142      1.0  0.31282  0.12760  0.06277  1.0000
  S   S143      1.0  0.31351  0.19514  0.04425  1.0000
  Fe  Fe73      1.0  0.47293  0.39921  0.16001  1.0000
  S   S144      1.0  0.46843  0.37928  0.19184  1.0000
  S   S145      1.0  0.47288  0.37248  0.13010  1.0000
  Fe  Fe74      1.0  0.47144  0.46287  0.17618  1.0000
  S   S146      1.0  0.46640  0.44708  0.20937  1.0000
  H   H1033     1.0  0.31999  0.04109  0.23176  1.0000
  Fe  Fe75      1.0  0.48531  0.41321  0.20372  1.0000
  S   S147      1.0  0.50607  0.40819  0.22585  1.0000
  Fe  Fe76      1.0  0.45005  0.41459  0.19466  1.0000
  S   S148      1.0  0.42591  0.40109  0.20695  1.0000
  S   S149      1.0  0.49125  0.43079  0.17116  1.0000
  S   S150      1.0  0.45369  0.43286  0.16218  1.0000
  Fe  Fe77      1.0  0.30924  0.45571  0.15268  1.0000
  S   S151      1.0  0.32309  0.47499  0.17866  1.0000
  H   H1034     1.0  0.30527  0.36337  0.24509  1.0000
  Fe  Fe78      1.0  0.31548  0.39224  0.16673  1.0000
  S   S152      1.0  0.32977  0.40773  0.19413  1.0000
  S   S153      1.0  0.31280  0.34229  0.16331  1.0000
  Fe  Fe79      1.0  0.31075  0.44172  0.19934  1.0000
  S   S154      1.0  0.30286  0.45621  0.23236  1.0000
  Fe  Fe80      1.0  0.34064  0.43968  0.17105  1.0000
  S   S155      1.0  0.36571  0.45442  0.16471  1.0000
  S   S156      1.0  0.29569  0.42414  0.17370  1.0000
  S   S157      1.0  0.32754  0.42234  0.14347  1.0000
  C   C579      1.0  0.27802  0.04503  0.04672  1.0000
  H   H1035     1.0  0.49771  0.11077  0.21067  1.0000
  C   C580      1.0  0.27143  0.46905  0.22647  1.0000
  C   C581      1.0  0.35282  0.25798  0.11956  1.0000
  H   H1036     1.0  0.47706  0.32006  0.03787  1.0000
  C   C582      1.0  0.40922  0.41385  0.19387  1.0000
  C   C583      1.0  0.41053  0.43408  0.17732  1.0000
  C   C584      1.0  0.39706  0.44560  0.16817  1.0000
  C   C585      1.0  0.38213  0.43691  0.17537  1.0000
  C   C586      1.0  0.38075  0.41597  0.19151  1.0000
  C   C587      1.0  0.39429  0.40455  0.20078  1.0000
  H   H1037     1.0  0.42189  0.44159  0.17192  1.0000
  H   H1038     1.0  0.39821  0.46165  0.15562  1.0000
  H   H1039     1.0  0.36928  0.40911  0.19715  1.0000
  H   H1040     1.0  0.39316  0.38887  0.21358  1.0000
  C   C588      1.0  0.31106  0.28368  0.10411  1.0000
  C   C589      1.0  0.31296  0.31437  0.10207  1.0000
  C   C590      1.0  0.31365  0.33263  0.11995  1.0000
  C   C591      1.0  0.31235  0.32039  0.14014  1.0000
  C   C592      1.0  0.31057  0.28967  0.14216  1.0000
  C   C593      1.0  0.30989  0.27142  0.12429  1.0000
  H   H1041     1.0  0.31372  0.32415  0.08656  1.0000
  H   H1042     1.0  0.31495  0.35619  0.11811  1.0000
  H   H1043     1.0  0.30951  0.27995  0.15769  1.0000
  H   H1044     1.0  0.30825  0.24794  0.12615  1.0000
  C   C594      1.0  0.30083  0.02259  0.12495  1.0000
  C   C595      1.0  0.29924  0.03883  0.10632  1.0000
  C   C596      1.0  0.30207  0.06931  0.10596  1.0000
  C   C597      1.0  0.30643  0.08372  0.12426  1.0000
  C   C598      1.0  0.30868  0.06731  0.14264  1.0000
  C   C599      1.0  0.30576  0.03688  0.14306  1.0000
  H   H1045     1.0  0.29584  0.02775  0.09215  1.0000
  H   H1046     1.0  0.30078  0.08178  0.09166  1.0000
  H   H1047     1.0  0.31243  0.07833  0.15670  1.0000
  H   H1048     1.0  0.30700  0.02472  0.15750  1.0000
  C   C600      1.0  0.47890  0.03605  0.14557  1.0000
  C   C601      1.0  0.48741  0.06183  0.14063  1.0000
  C   C602      1.0  0.48305  0.08042  0.12389  1.0000
  C   C603      1.0  0.46995  0.07375  0.11200  1.0000
  C   C604      1.0  0.46160  0.04771  0.11668  1.0000
  C   C605      1.0  0.46598  0.02903  0.13338  1.0000
  H   H1049     1.0  0.49760  0.06720  0.14965  1.0000
  H   H1050     1.0  0.48997  0.09961  0.11986  1.0000
  H   H1051     1.0  0.45160  0.04204  0.10739  1.0000
  H   H1052     1.0  0.27660  0.41564  0.32331  1.0000
  C   C606      1.0  0.47863  0.27226  0.12898  1.0000
  C   C607      1.0  0.47355  0.28767  0.11137  1.0000
  C   C608      1.0  0.47159  0.31829  0.11214  1.0000
  C   C609      1.0  0.47467  0.33386  0.13055  1.0000
  C   C610      1.0  0.47956  0.31851  0.14836  1.0000
  C   C611      1.0  0.48160  0.28776  0.14753  1.0000
  H   H1053     1.0  0.47142  0.27615  0.09697  1.0000
  H   H1054     1.0  0.46785  0.33005  0.09829  1.0000
  H   H1055     1.0  0.48214  0.33038  0.16257  1.0000
  H   H1056     1.0  0.48562  0.27603  0.16122  1.0000
  C   C612      1.0  0.39946  0.18991  0.07396  1.0000
  C   C613      1.0  0.39998  0.17911  0.05339  1.0000
  C   C614      1.0  0.38629  0.16793  0.04432  1.0000
  C   C615      1.0  0.37204  0.16726  0.05577  1.0000
  C   C616      1.0  0.37175  0.17680  0.07663  1.0000
  C   C617      1.0  0.38533  0.18842  0.08558  1.0000
  H   H1057     1.0  0.41079  0.18023  0.04424  1.0000
  H   H1058     1.0  0.38669  0.16031  0.02823  1.0000
  H   H1059     1.0  0.36103  0.17549  0.08582  1.0000
  H   H1060     1.0  0.38487  0.19640  0.10157  1.0000
  H   H1061     1.0  0.27483  0.01193  0.19873  1.0000
  C   C618      1.0  0.39195  0.28235  0.07337  1.0000
  C   C619      1.0  0.28282  0.48745  0.25823  1.0000
  H   H1062     1.0  0.44472  0.23999  0.20329  1.0000
  H   H1063     1.0  0.35629  0.46612  0.23898  1.0000
  H   H1064     1.0  0.49791  0.18967  0.15816  1.0000
  H   H1065     1.0  0.49626  0.43853  0.31852  1.0000
  C   C620      1.0  0.51409  0.22472  0.02327  1.0000
  H   H1066     1.0  0.27011  0.11012  0.13268  1.0000
  C   C621      1.0  0.28392  0.40142  0.28397  1.0000
  H   H1067     1.0  0.27520  0.09064  0.23676  1.0000
  H   H1068     1.0  0.36998  0.33104  0.07069  1.0000
  H   H1069     1.0  0.27250  0.45717  0.21180  1.0000
  H   H1070     1.0  0.40949  0.43998  0.23898  1.0000
  H   H1071     1.0  0.39591  0.46759  0.21116  1.0000
  C   C622      1.0  0.35093  0.23556  0.02731  1.0000
  H   H1072     1.0  0.36239  0.06660  0.15019  1.0000
  C   C623      1.0  0.38151  0.47245  0.23912  1.0000
  H   H1073     1.0  0.32079  0.05482  0.20517  1.0000
  H   H1074     1.0  0.36983  0.26958  0.04837  1.0000
  N   N35       1.0  0.26753  0.40249  0.29328  1.0000
  C   C624      1.0  0.31427  0.05610  0.22043  1.0000
  H   H1075     1.0  0.49835  0.15953  0.00516  1.0000
  H   H1076     1.0  0.50384  0.17007  0.12245  1.0000
  H   H1077     1.0  0.34848  0.01539  0.08530  1.0000
  H   H1078     1.0  0.41093  0.27507  0.09500  1.0000
  H   H1079     1.0  0.27654  0.36813  0.32874  1.0000
  H   H1080     1.0  0.36437  0.05614  0.09131  1.0000
  H   H1081     1.0  0.34490  0.24049  0.14978  1.0000
  H   H1082     1.0  0.30877  0.39969  0.25511  1.0000
  H   H1083     1.0  0.42719  0.40634  0.25965  1.0000
  N   N36       1.0  0.42152  0.32879  0.15239  1.0000
  C   C625      1.0  0.43345  0.33261  0.16934  1.0000
  C   C626      1.0  0.42618  0.34832  0.13402  1.0000
  C   C627      1.0  0.40563  0.33704  0.16133  1.0000
  C   C628      1.0  0.42089  0.29735  0.14493  1.0000
  C   C629      1.0  0.43662  0.28434  0.13668  1.0000
  C   C630      1.0  0.43226  0.31057  0.18804  1.0000
  C   C631      1.0  0.39196  0.33635  0.14563  1.0000
  C   C632      1.0  0.42418  0.38187  0.13766  1.0000
  C   C633      1.0  0.43006  0.39962  0.11862  1.0000
  C   C634      1.0  0.43505  0.25151  0.13198  1.0000
  C   C635      1.0  0.44502  0.31623  0.20395  1.0000
  C   C636      1.0  0.37712  0.34989  0.15529  1.0000
  H   H1084     1.0  0.43254  0.35500  0.17624  1.0000
  H   H1085     1.0  0.44559  0.33163  0.16262  1.0000
  H   H1086     1.0  0.43871  0.34470  0.12955  1.0000
  H   H1087     1.0  0.41963  0.34237  0.11974  1.0000
  H   H1088     1.0  0.40603  0.35915  0.16883  1.0000
  H   H1089     1.0  0.40214  0.32185  0.17435  1.0000
  H   H1090     1.0  0.41597  0.28268  0.15748  1.0000
  H   H1091     1.0  0.41265  0.29530  0.13175  1.0000
  H   H1092     1.0  0.44605  0.28680  0.14820  1.0000
  H   H1093     1.0  0.44031  0.29557  0.12186  1.0000
  H   H1094     1.0  0.42083  0.31261  0.19649  1.0000
  H   H1095     1.0  0.43367  0.28756  0.18264  1.0000
  H   H1096     1.0  0.38919  0.31327  0.14139  1.0000
  H   H1097     1.0  0.39478  0.34867  0.13096  1.0000
  H   H1098     1.0  0.41172  0.38781  0.14038  1.0000
  H   H1099     1.0  0.43082  0.38899  0.15148  1.0000
  H   H1100     1.0  0.44269  0.39538  0.11549  1.0000
  H   H1101     1.0  0.42337  0.39387  0.10445  1.0000
  H   H1102     1.0  0.42856  0.42349  0.12177  1.0000
  H   H1103     1.0  0.43213  0.23894  0.14655  1.0000
  H   H1104     1.0  0.42586  0.24760  0.12028  1.0000
  H   H1105     1.0  0.44629  0.24303  0.12537  1.0000
  H   H1106     1.0  0.45681  0.31412  0.19638  1.0000
  H   H1107     1.0  0.44370  0.33860  0.21077  1.0000
  H   H1108     1.0  0.44405  0.29992  0.21697  1.0000
  H   H1109     1.0  0.37377  0.33866  0.17028  1.0000
  H   H1110     1.0  0.37893  0.37370  0.15832  1.0000
  H   H1111     1.0  0.36730  0.34766  0.14426  1.0000
  H   H1112     1.0  0.34469  0.27688  0.12141  1.0000
  S   S158      1.0  0.48473  0.01388  0.16728  1.0000
  H   H1113     1.0  0.42872  0.12502  0.13999  1.0000
  C   C637      1.0  0.35869  0.32196  0.06542  1.0000
  H   H1114     1.0  0.36674  0.48549  0.11930  1.0000
  H   H1115     1.0  0.33347  0.02611  0.10311  1.0000
  H   H1116     1.0  0.38860  0.29966  0.06207  1.0000
  H   H1117     1.0  0.38294  0.25552  0.09829  1.0000
  H   H1118     1.0  0.48856  0.07539  0.20746  1.0000
  H   H1119     1.0  0.34284  0.22701  0.05881  1.0000
  H   H1120     1.0  0.37824  0.29337  0.10149  1.0000
  C   C638      1.0  0.48089  0.15421  0.15202  1.0000
  H   H1121     1.0  0.37109  0.23512  0.06101  1.0000
  H   H1122     1.0  0.50177  0.26925  0.31830  1.0000
  C   C639      1.0  0.26779  0.12807  0.01151  1.0000
  C   C640      1.0  0.42294  0.49067  0.21670  1.0000
  C   C641      1.0  0.35293  0.11013  0.10082  1.0000
  C   C642      1.0  0.45479  0.19997  0.19021  1.0000
  C   C643      1.0  0.43338  0.42603  0.26564  1.0000
  H   H1123     1.0  0.49964  0.26953  0.04777  1.0000
  C   C644      1.0  0.47994  0.29661  0.04092  1.0000
  C   C645      1.0  0.50166  0.36053  0.25335  1.0000
  H   H1124     1.0  0.35942  0.21705  0.02677  1.0000
  N   N37       1.0  0.27204  0.05922  0.19779  1.0000
  H   H1125     1.0  0.49276  0.30686  0.07783  1.0000
  C   C646      1.0  0.43179  0.45181  0.25032  1.0000
  H   H1126     1.0  0.34190  0.24472  0.09117  1.0000
  H   H1127     1.0  0.29791  0.06895  0.03290  1.0000
  H   H1128     1.0  0.47872  0.20001  0.17945  1.0000
  C   C647      1.0  0.51579  0.25018  0.08062  1.0000
  H   H1129     1.0  0.34336  0.08400  0.12604  1.0000
  H   H1130     1.0  0.34328  0.12633  0.10239  1.0000
  C   C648      1.0  0.29729  0.04664  0.21781  1.0000
  C   C649      1.0  0.51049  0.34531  0.10265  1.0000
  H   H1131     1.0  0.34054  0.29265  0.07739  1.0000
  C   C650      1.0  0.35717  0.47554  0.11019  1.0000
  H   H1132     1.0  0.40464  0.31312  0.09296  1.0000
  H   H1133     1.0  0.50288  0.15452  0.16959  1.0000
  C   C651      1.0  0.35967  0.04361  0.15490  1.0000
  H   H1134     1.0  0.33479  0.22561  0.12769  1.0000
  S   S159      1.0  0.29826  0.48437  0.12771  1.0000
  H   H1135     1.0  0.33791  0.03815  0.13828  1.0000
  H   H1136     1.0  0.28155  0.45925  0.29899  1.0000
  H   H1137     1.0  0.28997  0.09009  0.20712  1.0000
  H   H1138     1.0  0.35828  0.05602  0.18780  1.0000
  S   S160      1.0  0.27337  0.15314  0.03149  1.0000
  H   H1139     1.0  0.42380  0.46983  0.20760  1.0000
  H   H1140     1.0  0.43734  0.44495  0.23522  1.0000
  H   H1141     1.0  0.33977  0.22781  0.02067  1.0000
  H   H1142     1.0  0.35252  0.30804  0.09660  1.0000
  H   H1143     1.0  0.48207  0.13087  0.14752  1.0000
  H   H1144     1.0  0.29287  0.49011  0.26809  1.0000
  H   H1145     1.0  0.31050  0.36791  0.27220  1.0000
  C   C652      1.0  0.45415  0.23353  0.19195  1.0000
  C   C653      1.0  0.37865  0.27532  0.08970  1.0000
  H   H1146     1.0  0.35453  0.21383  0.13297  1.0000
  H   H1147     1.0  0.28749  0.42347  0.27786  1.0000
  H   H1148     1.0  0.47657  0.16558  0.13772  1.0000
  H   H1149     1.0  0.35155  0.36510  0.05433  1.0000
  H   H1150     1.0  0.35044  0.46059  0.12086  1.0000
  H   H1151     1.0  0.47258  0.28828  0.05426  1.0000
  H   H1152     1.0  0.33958  0.26410  0.04961  1.0000
  H   H1153     1.0  0.30207  0.04988  0.05710  1.0000
  H   H1154     1.0  0.28071  0.02784  0.17463  1.0000
  C   C654      1.0  0.50011  0.23046  0.01296  1.0000
  H   H1155     1.0  0.48996  0.35879  0.24737  1.0000
  H   H1156     1.0  0.33666  0.48800  0.09372  1.0000
  H   H1157     1.0  0.35993  0.22670  0.09554  1.0000
  C   C655      1.0  0.49729  0.29319  0.04569  1.0000
  C   C656      1.0  0.34812  0.24577  0.04996  1.0000
  C   C657      1.0  0.45329  0.14622  0.16389  1.0000
  H   H1158     1.0  0.46544  0.24228  0.19761  1.0000
  C   C658      1.0  0.35296  0.29765  0.08080  1.0000
  H   H1159     1.0  0.47866  0.10339  0.22270  1.0000
  H   H1160     1.0  0.50406  0.30098  0.03161  1.0000
  H   H1161     1.0  0.49853  0.32523  0.27594  1.0000
  H   H1162     1.0  0.47715  0.28362  0.02673  1.0000
  C   C659      1.0  0.29556  0.04865  0.04222  1.0000
  N   N38       1.0  0.46919  0.15786  0.16996  1.0000
  H   H1163     1.0  0.35627  0.10837  0.08388  1.0000
  H   H1164     1.0  0.29748  0.02353  0.21229  1.0000
  C   C660      1.0  0.49955  0.41496  0.31750  1.0000
  C   C661      1.0  0.43624  0.10757  0.14672  1.0000
  H   H1165     1.0  0.43485  0.49397  0.22280  1.0000
  H   H1166     1.0  0.34766  0.00513  0.14444  1.0000
  C   C662      1.0  0.27122  0.07221  0.05848  1.0000
  H   H1167     1.0  0.44302  0.19229  0.18564  1.0000
  C   C663      1.0  0.40681  0.29245  0.08414  1.0000
  H   H1168     1.0  0.44594  0.42036  0.26721  1.0000
  H   H1169     1.0  0.33979  0.05685  0.17470  1.0000
  N   N39       1.0  0.35657  0.02681  0.11630  1.0000
  C   C664      1.0  0.47464  0.14345  0.18992  1.0000
  H   H1170     1.0  0.48504  0.15519  0.19596  1.0000
  C   C665      1.0  0.28648  0.38012  0.26518  1.0000
  H   H1171     1.0  0.45748  0.12489  0.13342  1.0000
  C   C666      1.0  0.47846  0.11017  0.18870  1.0000
  H   H1172     1.0  0.43871  0.47039  0.25626  1.0000
  H   H1173     1.0  0.38239  0.02116  0.08628  1.0000
  H   H1174     1.0  0.45173  0.24365  0.17643  1.0000
  H   H1175     1.0  0.26919  0.01846  0.08738  1.0000
  H   H1176     1.0  0.46496  0.20208  0.15889  1.0000
  C   C667      1.0  0.37135  0.00870  0.11667  1.0000
  C   C668      1.0  0.50844  0.15927  0.13675  1.0000
  H   H1177     1.0  0.33559  0.33980  0.05902  1.0000
  C   C669      1.0  0.35412  0.24853  0.09613  1.0000
  H   H1178     1.0  0.48650  0.10496  0.17536  1.0000
  C   C670      1.0  0.27032  0.45566  0.30761  1.0000
  C   C671      1.0  0.51182  0.38215  0.24525  1.0000
  H   H1179     1.0  0.50849  0.32838  0.11502  1.0000
  H   H1180     1.0  0.38075  0.48505  0.25396  1.0000
  H   H1181     1.0  0.46752  0.09728  0.18731  1.0000
  C   C672      1.0  0.41432  0.45971  0.24696  1.0000
  H   H1182     1.0  0.46556  0.14553  0.20260  1.0000
  C   C673      1.0  0.30383  0.37769  0.25912  1.0000
  C   C674      1.0  0.28446  0.47198  0.23920  1.0000
  H   H1183     1.0  0.26841  0.12469  0.07911  1.0000
  H   H1184     1.0  0.30435  0.49544  0.05014  1.0000
  N   N40       1.0  0.36245  0.26970  0.08131  1.0000
  C   C675      1.0  0.27163  0.02943  0.18737  1.0000
  C   C676      1.0  0.35097  0.04463  0.17613  1.0000
  H   H1185     1.0  0.39498  0.26219  0.06429  1.0000
  C   C677      1.0  0.34638  0.23287  0.13329  1.0000
  C   C678      1.0  0.48893  0.40058  0.30147  1.0000
  C   C679      1.0  0.28888  0.06685  0.20187  1.0000
  C   C680      1.0  0.48632  0.09944  0.20867  1.0000
  H   H1186     1.0  0.50789  0.38005  0.12578  1.0000
  H   H1187     1.0  0.27946  0.07839  0.07096  1.0000
  C   C681      1.0  0.46757  0.19052  0.17389  1.0000
  H   H1188     1.0  0.28479  0.09645  0.16354  1.0000
  C   C682      1.0  0.34738  0.08044  0.10955  1.0000
  C   C683      1.0  0.27103  0.47327  0.32797  1.0000
  H   H1189     1.0  0.50008  0.33468  0.06057  1.0000
  H   H1190     1.0  0.38318  0.44886  0.24316  1.0000
  H   H1191     1.0  0.43642  0.08861  0.13573  1.0000
  C   C684      1.0  0.49773  0.16551  0.15577  1.0000
  H   H1192     1.0  0.44604  0.14113  0.17822  1.0000
  H   H1193     1.0  0.30000  0.02950  0.03309  1.0000
  H   H1194     1.0  0.35549  0.25394  0.01736  1.0000
  C   C685      1.0  0.45291  0.11890  0.14932  1.0000
  C   C686      1.0  0.50174  0.31124  0.06533  1.0000
  H   H1195     1.0  0.37099  0.06617  0.11636  1.0000
  H   H1196     1.0  0.43120  0.10005  0.16206  1.0000
  H   H1197     1.0  0.45934  0.00927  0.13687  1.0000
  C   C687      1.0  0.36368  0.25522  0.06000  1.0000
  H   H1198     1.0  0.36003  0.31366  0.04913  1.0000
  H   H1199     1.0  0.36431  0.26437  0.12587  1.0000
  H   H1200     1.0  0.44670  0.16342  0.15519  1.0000
  H   H1201     1.0  0.46005  0.10051  0.15518  1.0000
  H   H1202     1.0  0.37081  0.03165  0.15727  1.0000
  H   H1203     1.0  0.33719  0.07363  0.10024  1.0000
  H   H1204     1.0  0.41620  0.29649  0.07212  1.0000
  C   C688      1.0  0.34702  0.34744  0.06496  1.0000
  C   C689      1.0  0.37880  0.00093  0.09496  1.0000
  H   H1205     1.0  0.45730  0.19111  0.20605  1.0000
  C   C690      1.0  0.26746  0.42253  0.31215  1.0000
  H   H1206     1.0  0.49105  0.37648  0.30094  1.0000
  H   H1207     1.0  0.31487  0.07892  0.22656  1.0000
  H   H1208     1.0  0.38054  0.02038  0.12554  1.0000
  H   H1209     1.0  0.34850  0.02198  0.18199  1.0000
  H   H1210     1.0  0.49109  0.41006  0.28551  1.0000
  C   C691      1.0  0.36066  0.05719  0.10817  1.0000
  H   H1211     1.0  0.29149  0.04726  0.23357  1.0000
  H   H1212     1.0  0.34520  0.35680  0.08095  1.0000
  H   H1213     1.0  0.36307  0.11845  0.10966  1.0000
  H   H1214     1.0  0.47648  0.40432  0.30602  1.0000
  H   H1215     1.0  0.29253  0.39607  0.29631  1.0000
  H   H1216     1.0  0.50209  0.23828  0.30068  1.0000
  C   C692      1.0  0.34968  0.02784  0.13830  1.0000
  H   H1217     1.0  0.29592  0.06571  0.18700  1.0000
  H   H1218     1.0  0.36225  0.46227  0.09711  1.0000
  C   C693      1.0  0.34461  0.01350  0.10207  1.0000
  H   H1219     1.0  0.27632  0.02436  0.05562  1.0000
  H   H1220     1.0  0.28217  0.35763  0.26881  1.0000
  H   H1221     1.0  0.50885  0.28427  0.10171  1.0000
  C   C694      1.0  0.27305  0.08642  0.16191  1.0000
  N   N41       1.0  0.41091  0.48717  0.23429  1.0000
  H   H1222     1.0  0.42850  0.43188  0.28140  1.0000
  H   H1223     1.0  0.40826  0.46072  0.26262  1.0000
  H   H1224     1.0  0.50943  0.13520  0.13402  1.0000
  H   H1225     1.0  0.28033  0.38846  0.25115  1.0000
  C   C695      1.0  0.50808  0.24867  0.31406  1.0000
  C   C696      1.0  0.39508  0.48347  0.22439  1.0000
  C   C697      1.0  0.36569  0.47522  0.22849  1.0000
  H   H1226     1.0  0.36567  0.46279  0.21352  1.0000
  C   C698      1.0  0.50658  0.34150  0.26955  1.0000
  H   H1227     1.0  0.50320  0.24664  0.07745  1.0000
  C   C699      1.0  0.27808  0.10706  0.00309  1.0000
  H   H1228     1.0  0.51438  0.20708  0.32732  1.0000
  H   H1229     1.0  0.27218  0.09069  0.04698  1.0000
  H   H1230     1.0  0.27435  0.06518  0.15358  1.0000
  H   H1231     1.0  0.29003  0.10637  0.00827  1.0000
  H   H1232     1.0  0.51386  0.22940  0.11160  1.0000
  H   H1233     1.0  0.28432  0.34926  0.30599  1.0000
  H   H1234     1.0  0.51393  0.21062  0.03702  1.0000
  H   H1235     1.0  0.27229  0.04233  0.03136  1.0000
  C   C700      1.0  0.27340  0.35512  0.31475  1.0000
  H   H1236     1.0  0.44065  0.06974  0.62144  1.0000
  H   H1237     1.0  0.43230  0.27671  0.63235  1.0000
  S   S161      1.0  0.47671  0.12206  0.62794  1.0000
  N   N42       1.0  0.41067  0.25962  0.64573  1.0000
  H   H1238     1.0  0.29599  0.45290  0.62507  1.0000
  S   S162      1.0  0.33539  0.18386  0.64887  1.0000
  Fe  Fe81      1.0  0.31266  0.20874  0.64876  1.0000
  S   S163      1.0  0.30827  0.23570  0.61951  1.0000
  C   C701      1.0  0.27094  0.49371  0.40905  1.0000
  C   C702      1.0  0.37875  0.09233  0.64133  1.0000
  Fe  Fe82      1.0  0.46757  0.44873  0.55640  1.0000
  S   S164      1.0  0.48469  0.43343  0.58027  1.0000
  S   S165      1.0  0.47463  0.46179  0.52264  1.0000
  Fe  Fe83      1.0  0.43958  0.44006  0.58735  1.0000
  S   S166      1.0  0.45513  0.42463  0.61338  1.0000
  S   S167      1.0  0.41396  0.44394  0.59738  1.0000
  Fe  Fe84      1.0  0.47090  0.46179  0.60290  1.0000
  H   H1239     1.0  0.49247  0.01413  0.57562  1.0000
  Fe  Fe85      1.0  0.46727  0.39759  0.58851  1.0000
  S   S168      1.0  0.47467  0.34922  0.59006  1.0000
  S   S169      1.0  0.45465  0.47912  0.57858  1.0000
  S   S170      1.0  0.45084  0.41094  0.56294  1.0000
  Fe  Fe86      1.0  0.30694  0.40115  0.59273  1.0000
  S   S171      1.0  0.31198  0.38235  0.56069  1.0000
  S   S172      1.0  0.30054  0.37451  0.62182  1.0000
  Fe  Fe87      1.0  0.30865  0.46546  0.57757  1.0000
  S   S173      1.0  0.31327  0.45095  0.54418  1.0000
  C   C703      1.0  0.47936  0.03888  0.53990  1.0000
  Fe  Fe88      1.0  0.29484  0.41593  0.54916  1.0000
  C   C704      1.0  0.42014  0.03291  0.64134  1.0000
  Fe  Fe89      1.0  0.33002  0.41877  0.55854  1.0000
  S   S174      1.0  0.35423  0.41446  0.54353  1.0000
  S   S175      1.0  0.28890  0.43308  0.58153  1.0000
  S   S176      1.0  0.32624  0.43497  0.59155  1.0000
  H   H1240     1.0  0.44091  0.11839  0.63705  1.0000
  H   H1241     1.0  0.33497  0.03866  0.64339  1.0000
  C   C705      1.0  0.40657  0.07858  0.65100  1.0000
  H   H1242     1.0  0.30523  0.38167  0.46393  1.0000
  H   H1243     1.0  0.31825  0.37016  0.44286  1.0000
  C   C706      1.0  0.39798  0.43260  0.58222  1.0000
  C   C707      1.0  0.38334  0.42876  0.59230  1.0000
  C   C708      1.0  0.36996  0.42249  0.58065  1.0000
  C   C709      1.0  0.37104  0.42038  0.55874  1.0000
  C   C710      1.0  0.38577  0.42344  0.54869  1.0000
  C   C711      1.0  0.39922  0.42939  0.56038  1.0000
  H   H1244     1.0  0.38232  0.43089  0.60920  1.0000
  H   H1245     1.0  0.35883  0.41928  0.58864  1.0000
  H   H1246     1.0  0.38674  0.42159  0.53176  1.0000
  H   H1247     1.0  0.41045  0.43232  0.55246  1.0000
  C   C712      1.0  0.32021  0.07485  0.63435  1.0000
  C   C713      1.0  0.30865  0.08394  0.62053  1.0000
  C   C714      1.0  0.30278  0.06413  0.60561  1.0000
  C   C715      1.0  0.30849  0.03512  0.60413  1.0000
  C   C716      1.0  0.32024  0.02618  0.61773  1.0000
  C   C717      1.0  0.32602  0.04593  0.63278  1.0000
  H   H1248     1.0  0.30420  0.10617  0.62142  1.0000
  H   H1249     1.0  0.29377  0.07132  0.59509  1.0000
  H   H1250     1.0  0.48339  0.08038  0.66158  1.0000
  C   C718      1.0  0.27944  0.39406  0.43982  1.0000
  C   C719      1.0  0.30766  0.27443  0.62129  1.0000
  C   C720      1.0  0.30201  0.28850  0.63943  1.0000
  C   C721      1.0  0.30005  0.31926  0.63954  1.0000
  C   C722      1.0  0.30401  0.33617  0.62167  1.0000
  C   C723      1.0  0.31017  0.32215  0.60382  1.0000
  C   C724      1.0  0.31177  0.29137  0.60352  1.0000
  H   H1251     1.0  0.27979  0.40554  0.45522  1.0000
  H   H1252     1.0  0.27599  0.36714  0.58384  1.0000
  H   H1253     1.0  0.31363  0.33493  0.59018  1.0000
  H   H1254     1.0  0.31621  0.28061  0.58949  1.0000
  C   C725      1.0  0.46486  0.28521  0.64543  1.0000
  C   C726      1.0  0.46184  0.31549  0.64766  1.0000
  C   C727      1.0  0.46438  0.33521  0.63074  1.0000
  C   C728      1.0  0.47019  0.32493  0.61140  1.0000
  C   C729      1.0  0.47298  0.29455  0.60907  1.0000
  C   C730      1.0  0.47019  0.27474  0.62591  1.0000
  H   H1255     1.0  0.49819  0.22391  0.39842  1.0000
  H   H1256     1.0  0.46216  0.35848  0.63279  1.0000
  H   H1257     1.0  0.47744  0.28634  0.59418  1.0000
  H   H1258     1.0  0.47255  0.25151  0.62393  1.0000
  C   C731      1.0  0.47747  0.02112  0.62968  1.0000
  C   C732      1.0  0.47255  0.03622  0.61180  1.0000
  C   C733      1.0  0.47193  0.06716  0.61169  1.0000
  C   C734      1.0  0.47591  0.08327  0.62955  1.0000
  C   C735      1.0  0.48019  0.06819  0.64775  1.0000
  C   C736      1.0  0.48110  0.03723  0.64773  1.0000
  C   C737      1.0  0.43616  0.12540  0.60449  1.0000
  H   H1259     1.0  0.46856  0.07868  0.59759  1.0000
  C   C738      1.0  0.38133  0.26255  0.63477  1.0000
  H   H1260     1.0  0.27371  0.34984  0.41244  1.0000
  H   H1261     1.0  0.43070  0.24327  0.66257  1.0000
  H   H1262     1.0  0.48548  0.02815  0.52641  1.0000
  C   C739      1.0  0.27004  0.08548  0.65549  1.0000
  C   C740      1.0  0.49197  0.48001  0.51364  1.0000
  H   H1263     1.0  0.39753  0.15939  0.63704  1.0000
  H   H1264     1.0  0.49105  0.20840  0.37508  1.0000
  C   C741      1.0  0.30578  0.37163  0.44803  1.0000
  S   S177      1.0  0.45003  0.17814  0.65437  1.0000
  H   H1265     1.0  0.35206  0.44367  0.62718  1.0000
  H   H1266     1.0  0.28276  0.49377  0.40143  1.0000
  C   C742      1.0  0.26887  0.38172  0.50966  1.0000
  C   C743      1.0  0.51198  0.40851  0.54102  1.0000
  C   C744      1.0  0.27156  0.46503  0.63121  1.0000
  H   H1267     1.0  0.30090  0.34897  0.44892  1.0000
  H   H1268     1.0  0.51035  0.18262  0.35844  1.0000
  C   C745      1.0  0.43341  0.07097  0.66271  1.0000
  H   H1269     1.0  0.41243  0.27483  0.60189  1.0000
  H   H1270     1.0  0.28049  0.40001  0.39517  1.0000
  H   H1271     1.0  0.48535  0.47894  0.48114  1.0000
  H   H1272     1.0  0.46670  0.27612  0.38435  1.0000
  H   H1273     1.0  0.35501  0.47427  0.59466  1.0000
  H   H1274     1.0  0.36462  0.49359  0.54901  1.0000
  C   C746      1.0  0.26908  0.39621  0.40350  1.0000
  C   C747      1.0  0.49118  0.05130  0.55519  1.0000
  H   H1275     1.0  0.47158  0.02255  0.54789  1.0000
  H   H1276     1.0  0.29210  0.36379  0.50698  1.0000
  H   H1277     1.0  0.42068  0.32274  0.58695  1.0000
  H   H1278     1.0  0.27387  0.15505  0.44846  1.0000
  H   H1279     1.0  0.31322  0.30658  0.55335  1.0000
  H   H1280     1.0  0.31194  0.28776  0.52859  1.0000
  H   H1281     1.0  0.47200  0.05696  0.53373  1.0000
  H   H1282     1.0  0.46609  0.23646  0.38470  1.0000
  H   H1283     1.0  0.26721  0.45034  0.61880  1.0000
  H   H1284     1.0  0.37401  0.07888  0.65465  1.0000
  C   C748      1.0  0.49432  0.48528  0.49196  1.0000
  H   H1285     1.0  0.34254  0.49117  0.52516  1.0000
  H   H1286     1.0  0.35563  0.46026  0.65228  1.0000
  H   H1287     1.0  0.39386  0.29350  0.65413  1.0000
  H   H1288     1.0  0.44706  0.11475  0.59855  1.0000
  C   C749      1.0  0.41983  0.28360  0.63443  1.0000
  H   H1289     1.0  0.26959  0.21907  0.42117  1.0000
  C   C750      1.0  0.49824  0.22694  0.38102  1.0000
  C   C751      1.0  0.27644  0.34279  0.48526  1.0000
  H   H1290     1.0  0.37314  0.48119  0.62473  1.0000
  H   H1291     1.0  0.38460  0.27058  0.61884  1.0000
  Fe  Fe90      1.0  0.32103  0.14611  0.66175  1.0000
  C   C752      1.0  0.26808  0.13616  0.45655  1.0000
  C   C753      1.0  0.39440  0.08007  0.63323  1.0000
  C   C754      1.0  0.48884  0.25534  0.37609  1.0000
  H   H1292     1.0  0.30264  0.41186  0.43098  1.0000
  C   C755      1.0  0.42535  0.31516  0.60220  1.0000
  C   C756      1.0  0.27390  0.13523  0.47910  1.0000
  H   H1293     1.0  0.27859  0.35364  0.37396  1.0000
  H   H1294     1.0  0.28342  0.29441  0.52857  1.0000
  H   H1295     1.0  0.42069  0.12464  0.63141  1.0000
  H   H1296     1.0  0.27397  0.22796  0.60867  1.0000
  H   H1297     1.0  0.45768  0.32386  0.66266  1.0000
  H   H1298     1.0  0.27687  0.49216  0.57876  1.0000
  H   H1299     1.0  0.29818  0.04304  0.65816  1.0000
  H   H1300     1.0  0.48452  0.06331  0.56762  1.0000
  C   C757      1.0  0.28944  0.29658  0.54377  1.0000
  H   H1301     1.0  0.26863  0.11633  0.48787  1.0000
  C   C758      1.0  0.30644  0.30490  0.53870  1.0000
  H   H1302     1.0  0.50443  0.01071  0.55274  1.0000
  H   H1303     1.0  0.27859  0.13131  0.62736  1.0000
  H   H1304     1.0  0.28683  0.13264  0.47891  1.0000
  H   H1305     1.0  0.39853  0.09468  0.62023  1.0000
  H   H1306     1.0  0.50196  0.48462  0.54408  1.0000
  C   C759      1.0  0.50629  0.29126  0.65141  1.0000
  H   H1307     1.0  0.44573  0.06653  0.65762  1.0000
  H   H1308     1.0  0.37864  0.48529  0.57771  1.0000
  H   H1309     1.0  0.28640  0.44185  0.41443  1.0000
  H   H1310     1.0  0.29863  0.27556  0.65309  1.0000
  H   H1311     1.0  0.27411  0.30934  0.59812  1.0000
  H   H1312     1.0  0.27198  0.11548  0.44884  1.0000
  H   H1313     1.0  0.50895  0.08194  0.57788  1.0000
  C   C760      1.0  0.39412  0.26938  0.65106  1.0000
  C   C761      1.0  0.26872  0.25032  0.60858  1.0000
  H   H1314     1.0  0.49686  0.37136  0.49907  1.0000
  Fe  Fe91      1.0  0.47118  0.14902  0.65703  1.0000
  H   H1315     1.0  0.42173  0.07368  0.61149  1.0000
  C   C762      1.0  0.43142  0.11303  0.62607  1.0000
  H   H1316     1.0  0.39449  0.20826  0.65375  1.0000
  H   H1317     1.0  0.40101  0.06589  0.66416  1.0000
  H   H1318     1.0  0.40794  0.10120  0.65736  1.0000
  H   H1319     1.0  0.36165  0.26814  0.65685  1.0000
  H   H1320     1.0  0.50192  0.06163  0.59979  1.0000
  C   C763      1.0  0.51218  0.06414  0.58892  1.0000
  C   C764      1.0  0.36082  0.48876  0.62554  1.0000
  S   S178      1.0  0.30023  0.01087  0.58548  1.0000
  H   H1321     1.0  0.28579  0.42982  0.64387  1.0000
  H   H1322     1.0  0.29192  0.46619  0.65137  1.0000
  H   H1323     1.0  0.40346  0.49180  0.55636  1.0000
  H   H1324     1.0  0.42669  0.12190  0.59309  1.0000
  H   H1325     1.0  0.26661  0.25139  0.57537  1.0000
  C   C765      1.0  0.41385  0.29356  0.61276  1.0000
  H   H1326     1.0  0.29530  0.32996  0.65342  1.0000
  H   H1327     1.0  0.34712  0.48076  0.56232  1.0000
  C   C766      1.0  0.48259  0.37453  0.52749  1.0000
  C   C767      1.0  0.46705  0.37793  0.51628  1.0000
  H   H1328     1.0  0.50729  0.39806  0.55573  1.0000
  C   C768      1.0  0.50366  0.48840  0.52741  1.0000
  H   H1329     1.0  0.48190  0.38704  0.54243  1.0000
  H   H1330     1.0  0.48376  0.35076  0.53122  1.0000
  H   H1331     1.0  0.46453  0.40150  0.51317  1.0000
  H   H1332     1.0  0.46730  0.36577  0.50118  1.0000
  H   H1333     1.0  0.45741  0.36885  0.52636  1.0000
  C   C769      1.0  0.40509  0.20371  0.64393  1.0000
  C   C770      1.0  0.50098  0.02643  0.56534  1.0000
  H   H1334     1.0  0.40253  0.30526  0.61478  1.0000
  H   H1335     1.0  0.42713  0.33478  0.61226  1.0000
  H   H1336     1.0  0.39122  0.18659  0.61837  1.0000
  H   H1337     1.0  0.50682  0.34977  0.54445  1.0000
  H   H1338     1.0  0.47544  0.25627  0.40568  1.0000
  H   H1339     1.0  0.48604  0.25643  0.35916  1.0000
  H   H1340     1.0  0.48489  0.02575  0.66166  1.0000
  H   H1341     1.0  0.49851  0.06749  0.54648  1.0000
  H   H1342     1.0  0.32478  0.00400  0.61677  1.0000
  H   H1343     1.0  0.37927  0.23850  0.63372  1.0000
  H   H1344     1.0  0.36674  0.30089  0.64177  1.0000
  H   H1345     1.0  0.42360  0.22730  0.62749  1.0000
  C   C771      1.0  0.49648  0.38547  0.51336  1.0000
  C   C772      1.0  0.27475  0.44152  0.42257  1.0000
  C   C773      1.0  0.47333  0.25597  0.38850  1.0000
  H   H1346     1.0  0.29756  0.37896  0.41693  1.0000
  H   H1347     1.0  0.28534  0.32820  0.47897  1.0000
  C   C774      1.0  0.36569  0.27654  0.64120  1.0000
  H   H1348     1.0  0.41143  0.17444  0.61808  1.0000
  H   H1349     1.0  0.42003  0.30402  0.64398  1.0000
  C   C775      1.0  0.43537  0.01514  0.63691  1.0000
  H   H1350     1.0  0.40484  0.23477  0.61787  1.0000
  C   C776      1.0  0.42897  0.07924  0.62525  1.0000
  H   H1351     1.0  0.28067  0.08388  0.64512  1.0000
  N   N43       1.0  0.42228  0.06542  0.64506  1.0000
  H   H1352     1.0  0.27679  0.45149  0.43824  1.0000
  H   H1353     1.0  0.50988  0.37460  0.37658  1.0000
  H   H1354     1.0  0.41364  0.02255  0.65481  1.0000
  H   H1355     1.0  0.28929  0.32599  0.57053  1.0000
  C   C777      1.0  0.41129  0.23197  0.63267  1.0000
  H   H1356     1.0  0.51530  0.42037  0.35502  1.0000
  H   H1357     1.0  0.33866  0.47104  0.63775  1.0000
  H   H1358     1.0  0.46954  0.02419  0.59790  1.0000
  H   H1359     1.0  0.43685  0.30443  0.59913  1.0000
  H   H1360     1.0  0.43841  0.14940  0.60578  1.0000
  C   C778      1.0  0.29671  0.39019  0.43234  1.0000
  C   C779      1.0  0.28130  0.32035  0.55759  1.0000
  H   H1361     1.0  0.49315  0.40790  0.50786  1.0000
  H   H1362     1.0  0.30705  0.32628  0.53017  1.0000
  H   H1363     1.0  0.44001  0.02014  0.62084  1.0000
  H   H1364     1.0  0.49532  0.27562  0.37984  1.0000
  H   H1365     1.0  0.28247  0.03372  0.64118  1.0000
  C   C780      1.0  0.40110  0.17960  0.62829  1.0000
  H   H1366     1.0  0.39212  0.05792  0.62673  1.0000
  C   C781      1.0  0.28725  0.03014  0.65710  1.0000
  C   C782      1.0  0.28030  0.36288  0.50123  1.0000
  S   S179      1.0  0.27291  0.40761  0.52977  1.0000
  H   H1367     1.0  0.28095  0.46581  0.33764  1.0000
  H   H1368     1.0  0.44464  0.02003  0.64826  1.0000
  H   H1369     1.0  0.27092  0.15599  0.48744  1.0000
  C   C783      1.0  0.27216  0.26523  0.58736  1.0000
  H   H1370     1.0  0.50355  0.42652  0.53765  1.0000
  H   H1371     1.0  0.38009  0.11548  0.64651  1.0000
  H   H1372     1.0  0.51109  0.10088  0.62424  1.0000
  H   H1373     1.0  0.26768  0.48307  0.54323  1.0000
  H   H1374     1.0  0.28940  0.27476  0.55149  1.0000
  N   N44       1.0  0.51518  0.03541  0.57766  1.0000
  H   H1375     1.0  0.41266  0.02911  0.62753  1.0000
  H   H1376     1.0  0.50846  0.00544  0.34126  1.0000
  H   H1377     1.0  0.49990  0.27258  0.64438  1.0000
  H   H1378     1.0  0.51331  0.27142  0.40517  1.0000
  H   H1379     1.0  0.51425  0.33916  0.51917  1.0000
  H   H1380     1.0  0.50813  0.01263  0.60635  1.0000
  H   H1381     1.0  0.51541  0.46270  0.33367  1.0000
  C   C784      1.0  0.28729  0.45288  0.63828  1.0000
  H   H1382     1.0  0.41421  0.19486  0.65441  1.0000
  H   H1383     1.0  0.27458  0.37192  0.44360  1.0000
  H   H1384     1.0  0.50202  0.31199  0.64418  1.0000
  H   H1385     1.0  0.50971  0.17770  0.39983  1.0000
  N   N45       1.0  0.26895  0.41028  0.42495  1.0000
  C   C785      1.0  0.35116  0.46444  0.63628  1.0000
  H   H1386     1.0  0.28100  0.34060  0.54761  1.0000
  H   H1387     1.0  0.35668  0.27081  0.62956  1.0000
  H   H1388     1.0  0.27384  0.26314  0.62157  1.0000
  S   S180      1.0  0.48394  0.49121  0.62536  1.0000
  S   S181      1.0  0.29800  0.16980  0.65941  1.0000
  S   S182      1.0  0.32709  0.09801  0.65462  1.0000
  H   H1389     1.0  0.28502  0.26494  0.58473  1.0000
  H   H1390     1.0  0.37009  0.09195  0.62856  1.0000
  H   H1391     1.0  0.51174  0.41722  0.48171  1.0000
  C   C786      1.0  0.51556  0.35573  0.53190  1.0000
  N   N46       1.0  0.51236  0.38621  0.52342  1.0000
  C   C787      1.0  0.35464  0.49546  0.60327  1.0000
  H   H1392     1.0  0.49607  0.22141  0.33715  1.0000
  H   H1393     1.0  0.50840  0.13440  0.37656  1.0000
  H   H1394     1.0  0.51382  0.26444  0.35268  1.0000
  N   N47       1.0  0.51483  0.22518  0.37234  1.0000
  C   C788      1.0  0.26649  0.35120  0.38044  1.0000
  C   C789      1.0  0.29130  0.99750  0.65899  1.0000
  C   C790      1.0  0.41899  0.25320  0.66595  1.0000
  H   H1395     1.0  0.27178  0.13166  0.66581  1.0000
  H   H1396     1.0  0.49703  0.40430  0.33291  1.0000
  C   C791      1.0  0.50829  0.22738  0.33274  1.0000
  H   H1397     1.0  0.27423  0.31441  0.33276  1.0000
  Fe  Fe92      1.0  0.47694  0.16569  0.70264  1.0000
  C   C792      1.0  0.26892  0.12380  0.92404  1.0000
  S   S183      1.0  0.49052  0.16625  0.73336  1.0000
  H   H1398     1.0  0.41441  0.19999  0.70487  1.0000
  H   H1399     1.0  0.43913  0.04870  0.71477  1.0000
  H   H1400     1.0  0.29308  0.28139  0.69390  1.0000
  S   S184      1.0  0.45573  0.19531  0.70332  1.0000
  Fe  Fe93      1.0  0.30213  0.18678  0.69220  1.0000
  H   H1401     1.0  0.41055  0.29295  0.68270  1.0000
  S   S185      1.0  0.28533  0.18219  0.72068  1.0000
  C   C793      1.0  0.42996  0.05372  0.68341  1.0000
  N   N48       1.0  0.31275  0.26234  0.75310  1.0000
  S   S186      1.0  0.41931  0.13985  0.69077  1.0000
  S   S187      1.0  0.32422  0.16025  0.69530  1.0000
  C   C794      1.0  0.50453  0.31157  0.72568  1.0000
  H   H1402     1.0  0.38732  0.12808  0.68171  1.0000
  H   H1403     1.0  0.28792  0.25690  0.75921  1.0000
  H   H1404     1.0  0.36344  0.15909  0.68281  1.0000
  H   H1405     1.0  0.48118  0.22779  0.73731  1.0000
  C   C795      1.0  0.49801  0.16970  0.97160  1.0000
  H   H1406     1.0  0.30632  0.21708  0.76023  1.0000
  H   H1407     1.0  0.41245  0.23644  0.67527  1.0000
  H   H1408     1.0  0.46454  0.28780  0.73884  1.0000
  Fe  Fe94      1.0  0.44345  0.15961  0.68604  1.0000
  C   C796      1.0  0.37531  0.19718  0.69469  1.0000
  H   H1409     1.0  0.50254  0.00878  0.80660  1.0000
  C   C797      1.0  0.51271  0.01588  0.79670  1.0000
  C   C798      1.0  0.50340  0.29211  0.67522  1.0000
  H   H1410     1.0  0.49087  0.29729  0.67798  1.0000
  H   H1411     1.0  0.29660  0.19420  0.96831  1.0000
  C   C799      1.0  0.48142  0.25208  0.73528  1.0000
  H   H1412     1.0  0.47968  0.45811  0.70399  1.0000
  H   H1413     1.0  0.43088  0.29422  0.67449  1.0000
  H   H1414     1.0  0.49343  0.19235  0.97410  1.0000
  H   H1415     1.0  0.30891  0.16253  0.97223  1.0000
  H   H1416     1.0  0.46040  0.45830  0.69259  1.0000
  C   C800      1.0  0.46486  0.26339  0.73976  1.0000
  C   C801      1.0  0.27136  0.16270  0.95114  1.0000
  H   H1417     1.0  0.48136  0.24395  0.70200  1.0000
  S   S188      1.0  0.31502  0.22737  0.68113  1.0000
  H   H1418     1.0  0.42910  0.28890  0.71244  1.0000
  H   H1419     1.0  0.29061  0.05790  0.71328  1.0000
  H   H1420     1.0  0.43343  0.09470  0.66685  1.0000
  H   H1421     1.0  0.30424  0.05139  0.69220  1.0000
  C   C802      1.0  0.40333  0.19119  0.69992  1.0000
  C   C803      1.0  0.28891  0.15427  0.95260  1.0000
  C   C804      1.0  0.29660  0.17001  0.97090  1.0000
  H   H1422     1.0  0.39031  0.23087  0.70683  1.0000
  C   C805      1.0  0.29826  0.26283  0.78961  1.0000
  H   H1423     1.0  0.32363  0.22925  0.77261  1.0000
  H   H1424     1.0  0.35413  0.30591  0.77169  1.0000
  H   H1425     1.0  0.28155  0.12500  0.91984  1.0000
  C   C806      1.0  0.30987  0.08791  0.71167  1.0000
  H   H1426     1.0  0.47754  0.45280  0.67611  1.0000
  C   C807      1.0  0.50923  0.11591  0.73389  1.0000
  H   H1427     1.0  0.30756  0.27559  0.79729  1.0000
  C   C808      1.0  0.42140  0.27975  0.68083  1.0000
  S   S189      1.0  0.46232  0.26189  0.66777  1.0000
  H   H1428     1.0  0.48927  0.26109  0.74731  1.0000
  H   H1429     1.0  0.28451  0.10834  0.69338  1.0000
  H   H1430     1.0  0.50315  0.11367  0.90078  1.0000
  Fe  Fe95      1.0  0.33675  0.19961  0.68207  1.0000
  H   H1431     1.0  0.31959  0.26136  0.71999  1.0000
  H   H1432     1.0  0.50461  0.11074  0.71865  1.0000
  H   H1433     1.0  0.28998  0.13019  0.95546  1.0000
  H   H1434     1.0  0.29565  0.15969  0.93807  1.0000
  C   C809      1.0  0.48714  0.25989  0.71258  1.0000
  H   H1435     1.0  0.51420  0.03797  0.76558  1.0000
  H   H1436     1.0  0.49225  0.16070  0.95765  1.0000
  C   C810      1.0  0.38970  0.20855  0.70107  1.0000
  H   H1437     1.0  0.31836  0.09690  0.69987  1.0000
  H   H1438     1.0  0.48216  0.28153  0.70822  1.0000
  H   H1439     1.0  0.43964  0.08583  0.70485  1.0000
  H   H1440     1.0  0.50106  0.20123  0.93798  1.0000
  S   S190      1.0  0.46383  0.12845  0.68778  1.0000
  C   C811      1.0  0.27513  0.03975  0.67425  1.0000
  H   H1441     1.0  0.27828  0.02888  0.68919  1.0000
  C   C812      1.0  0.28773  0.08726  0.68548  1.0000
  H   H1442     1.0  0.27401  0.24081  0.70838  1.0000
  C   C813      1.0  0.51321  0.28205  0.72133  1.0000
  H   H1443     1.0  0.29659  0.32042  0.69505  1.0000
  H   H1444     1.0  0.49618  0.12776  0.98835  1.0000
  C   C814      1.0  0.50422  0.14133  0.74436  1.0000
  H   H1445     1.0  0.30415  0.10635  0.72030  1.0000
  C   C815      1.0  0.37451  0.16816  0.68757  1.0000
  C   C816      1.0  0.30291  0.29661  0.72330  1.0000
  C   C817      1.0  0.42628  0.26952  0.70265  1.0000
  H   H1446     1.0  0.28561  0.16245  0.89892  1.0000
  C   C818      1.0  0.33317  0.18506  0.74881  1.0000
  H   H1447     1.0  0.28092  0.08620  0.89259  1.0000
  H   H1448     1.0  0.36359  0.30446  0.74610  1.0000
  H   H1449     1.0  0.49684  0.01599  0.77010  1.0000
  H   H1450     1.0  0.43680  0.25530  0.70139  1.0000
  H   H1451     1.0  0.28742  0.19370  0.91632  1.0000
  H   H1452     1.0  0.28092  0.07052  0.98173  1.0000
  H   H1453     1.0  0.50905  0.35519  0.73796  1.0000
  C   C819      1.0  0.30919  0.26604  0.73009  1.0000
  H   H1454     1.0  0.26673  0.46565  0.91186  1.0000
  C   C820      1.0  0.49622  0.05862  0.78414  1.0000
  C   C821      1.0  0.51308  0.20855  0.94148  1.0000
  C   C822      1.0  0.40254  0.16228  0.69262  1.0000
  H   H1455     1.0  0.50405  0.07456  0.79192  1.0000
  H   H1456     1.0  0.28331  0.26703  0.81754  1.0000
  C   C823      1.0  0.50817  0.25048  0.91600  1.0000
  C   C824      1.0  0.32654  0.21390  0.74036  1.0000
  H   H1457     1.0  0.31645  0.07437  0.72304  1.0000
  H   H1458     1.0  0.26805  0.10723  0.93700  1.0000
  H   H1459     1.0  0.50536  0.13027  0.93713  1.0000
  C   C825      1.0  0.26955  0.23584  0.72404  1.0000
  H   H1460     1.0  0.30042  0.24929  0.72547  1.0000
  C   C826      1.0  0.34134  0.28151  0.74805  1.0000
  S   S191      1.0  0.35851  0.21962  0.69574  1.0000
  H   H1461     1.0  0.49495  0.30829  0.73750  1.0000
  H   H1462     1.0  0.51069  0.31025  0.68129  1.0000
  H   H1463     1.0  0.49136  0.06954  0.77005  1.0000
  C   C827      1.0  0.27851  0.20372  0.88597  1.0000
  C   C828      1.0  0.32537  0.28321  0.75997  1.0000
  C   C829      1.0  0.29775  0.06884  0.70086  1.0000
  H   H1464     1.0  0.48639  0.05280  0.79511  1.0000
  H   H1465     1.0  0.31090  0.31449  0.72803  1.0000
  H   H1466     1.0  0.32353  0.17016  0.75409  1.0000
  H   H1467     1.0  0.34108  0.18930  0.76208  1.0000
  H   H1468     1.0  0.34008  0.17392  0.73618  1.0000
  C   C830      1.0  0.28274  0.27131  0.80037  1.0000
  H   H1469     1.0  0.29110  0.30063  0.73032  1.0000
  H   H1470     1.0  0.30020  0.23907  0.79274  1.0000
  N   N49       1.0  0.27328  0.07260  0.67694  1.0000
  H   H1471     1.0  0.34737  0.26070  0.75211  1.0000
  H   H1472     1.0  0.45664  0.25411  0.72827  1.0000
  H   H1473     1.0  0.29490  0.29306  0.76406  1.0000
  H   H1474     1.0  0.31284  0.29564  0.69135  1.0000
  H   H1475     1.0  0.33637  0.22686  0.73362  1.0000
  C   C831      1.0  0.26696  0.20263  0.75366  1.0000
  C   C832      1.0  0.29796  0.26936  0.76560  1.0000
  H   H1476     1.0  0.31870  0.20838  0.72727  1.0000
  H   H1477     1.0  0.29032  0.16497  0.98597  1.0000
  H   H1478     1.0  0.34013  0.28306  0.73078  1.0000
  C   C833      1.0  0.27319  0.20887  0.73345  1.0000
  H   H1479     1.0  0.46095  0.25644  0.75580  1.0000
  C   C834      1.0  0.35211  0.30663  0.75450  1.0000
  H   H1480     1.0  0.32809  0.27935  0.77675  1.0000
  H   H1481     1.0  0.50127  0.16096  0.91977  1.0000
  H   H1482     1.0  0.34696  0.32825  0.75025  1.0000
  H   H1483     1.0  0.41665  0.25701  0.71058  1.0000
  H   H1484     1.0  0.27263  0.01762  0.88134  1.0000
  C   C835      1.0  0.31710  0.23068  0.75767  1.0000
  H   H1485     1.0  0.32115  0.30635  0.75930  1.0000
  C   C836      1.0  0.27987  0.18277  0.90475  1.0000
  C   C837      1.0  0.50530  0.03107  0.77749  1.0000
  C   C838      1.0  0.44134  0.06237  0.70050  1.0000
  H   H1486     1.0  0.43119  0.02967  0.68096  1.0000
  H   H1487     1.0  0.41796  0.05830  0.68949  1.0000
  H   H1488     1.0  0.45364  0.05892  0.69504  1.0000
  C   C839      1.0  0.30129  0.29850  0.69945  1.0000
  H   H1489     1.0  0.50718  0.26655  0.92908  1.0000
  H   H1490     1.0  0.26833  0.06556  0.91065  1.0000
  C   C840      1.0  0.38806  0.15066  0.68683  1.0000
  C   C841      1.0  0.27288  0.08687  0.98793  1.0000
  C   C842      1.0  0.51024  0.14486  0.92457  1.0000
  H   H1491     1.0  0.28016  0.29504  0.79793  1.0000
  H   H1492     1.0  0.51160  0.22489  0.95430  1.0000
  C   C843      1.0  0.26860  0.08202  0.89766  1.0000
  H   H1493     1.0  0.27294  0.22478  0.89087  1.0000
  C   C844      1.0  0.47285  0.46474  0.69010  1.0000
  H   H1494     1.0  0.29032  0.20862  0.87924  1.0000
  S   S192      1.0  0.48601  0.18440  0.67169  1.0000
  Fe  Fe96      1.0  0.46405  0.21183  0.67148  1.0000
  C   C845      1.0  0.50806  0.26256  0.68554  1.0000
  H   H1495     1.0  0.50226  0.24449  0.67679  1.0000
  H   H1496     1.0  0.48996  0.25296  0.98667  1.0000
  H   H1497     1.0  0.27031  0.36176  0.98269  1.0000
  H   H1498     1.0  0.49919  0.32092  0.71147  1.0000
  C   C846      1.0  0.51389  0.12543  0.90552  1.0000
  H   H1499     1.0  0.51626  0.27319  0.73709  1.0000
  C   C847      1.0  0.51489  0.26074  0.98724  1.0000
  H   H1500     1.0  0.27137  0.19359  0.87351  1.0000
  H   H1501     1.0  0.50792  0.22507  0.73233  1.0000
  C   C848      1.0  0.49289  0.15118  0.99066  1.0000
  H   H1502     1.0  0.50344  0.21161  0.70700  1.0000
  C   C849      1.0  0.51020  0.22888  0.71524  1.0000
  H   H1503     1.0  0.26856  0.07922  0.72266  1.0000
  N   N50       1.0  0.50463  0.25914  0.70883  1.0000
  H   H1504     1.0  0.27298  0.25811  0.79411  1.0000
  H   H1505     1.0  0.29591  0.09402  0.67247  1.0000
  H   H1506     1.0  0.51503  0.27486  0.97349  1.0000
  C   C850      1.0  0.51044  0.14767  0.76416  1.0000
  H   H1507     1.0  0.51286  0.26219  0.90184  1.0000
  C   C851      1.0  0.50067  0.24839  0.99483  1.0000
  C   C852      1.0  0.51613  0.17057  0.96916  1.0000
  H   H1508     1.0  0.27026  0.18695  0.95328  1.0000
  H   H1509     1.0  0.47998  0.15253  0.99288  1.0000
  H   H1510     1.0  0.50666  0.16726  0.77241  1.0000
  H   H1511     1.0  0.26958  0.18176  0.76105  1.0000
  H   H1512     1.0  0.49638  0.24179  0.91242  1.0000
  H   H1513     1.0  0.38984  0.25898  0.66605  1.0000
  C   C853      1.0  0.51563  0.33464  0.73444  1.0000
  Fe  Fe97      1.0  0.43923  0.69979  0.07409  1.0000
  S   S193      1.0  0.44133  0.68061  0.10636  1.0000
  S   S194      1.0  0.41557  0.71920  0.06636  1.0000
  Fe  Fe98      1.0  0.47464  0.69526  0.06456  1.0000
  S   S195      1.0  0.47898  0.67547  0.09664  1.0000
  S   S196      1.0  0.49702  0.70130  0.04432  1.0000
  Fe  Fe99      1.0  0.45770  0.64760  0.09146  1.0000
  S   S197      1.0  0.45426  0.59797  0.09620  1.0000
  Fe  Fe100     1.0  0.46230  0.71016  0.10870  1.0000
  S   S198      1.0  0.46547  0.73600  0.13879  1.0000
  S   S199      1.0  0.45422  0.66503  0.05849  1.0000
  S   S200      1.0  0.45931  0.73156  0.07724  1.0000
  Fe  Fe101     1.0  0.29639  0.66015  0.05510  1.0000
  S   S201      1.0  0.29085  0.68135  0.08658  1.0000
  H   H1514     1.0  0.41844  0.53723  0.20865  1.0000
  Fe  Fe102     1.0  0.33148  0.65678  0.06472  1.0000
  S   S202      1.0  0.32841  0.67715  0.09645  1.0000
  S   S203      1.0  0.35539  0.63888  0.05523  1.0000
  Fe  Fe103     1.0  0.30735  0.64765  0.09963  1.0000
  S   S204      1.0  0.30439  0.62352  0.13067  1.0000
  Fe  Fe104     1.0  0.31232  0.70930  0.08095  1.0000
  S   S205      1.0  0.31521  0.75923  0.08461  1.0000
  S   S206      1.0  0.31150  0.62467  0.06889  1.0000
  S   S207      1.0  0.31683  0.69067  0.04842  1.0000
  Fe  Fe105     1.0  0.47196  0.90403  0.16291  1.0000
  S   S208      1.0  0.46320  0.88908  0.19455  1.0000
  S   S209      1.0  0.47330  0.87483  0.13407  1.0000
  Fe  Fe106     1.0  0.47613  0.96760  0.17666  1.0000
  S   S210      1.0  0.46779  0.95705  0.20988  1.0000
  C   C854      1.0  0.34403  0.56932  0.11661  1.0000
  Fe  Fe107     1.0  0.48273  0.91608  0.20788  1.0000
  S   S211      1.0  0.49299  0.89596  0.23801  1.0000
  Fe  Fe108     1.0  0.44897  0.93061  0.19454  1.0000
  S   S212      1.0  0.42428  0.92724  0.20837  1.0000
  S   S213      1.0  0.49258  0.92851  0.17575  1.0000
  S   S214      1.0  0.45624  0.94375  0.16170  1.0000
  Fe  Fe109     1.0  0.30591  0.95614  0.15089  1.0000
  S   S215      1.0  0.32119  0.97522  0.17544  1.0000
  C   C855      1.0  0.42330  0.55340  0.26959  1.0000
  Fe  Fe110     1.0  0.31040  0.89288  0.16665  1.0000
  S   S216      1.0  0.32601  0.90814  0.19268  1.0000
  S   S217      1.0  0.30578  0.84334  0.16426  1.0000
  Fe  Fe111     1.0  0.30820  0.94462  0.19776  1.0000
  S   S218      1.0  0.30075  0.96221  0.23036  1.0000
  Fe  Fe112     1.0  0.33733  0.93743  0.16806  1.0000
  S   S219      1.0  0.36234  0.94582  0.15639  1.0000
  S   S220      1.0  0.29188  0.92749  0.17339  1.0000
  S   S221      1.0  0.32270  0.92008  0.14196  1.0000
  H   H1515     1.0  0.33772  0.61551  0.12077  1.0000
  H   H1516     1.0  0.49659  0.73011  0.08591  1.0000
  H   H1517     1.0  0.48441  0.79789  0.03673  1.0000
  H   H1518     1.0  0.37424  0.54846  0.02355  1.0000
  C   C856      1.0  0.49164  0.74417  0.01385  1.0000
  C   C857      1.0  0.40717  0.93282  0.19375  1.0000
  C   C858      1.0  0.39265  0.92401  0.20245  1.0000
  C   C859      1.0  0.37878  0.92789  0.19124  1.0000
  C   C860      1.0  0.37936  0.94063  0.17120  1.0000
  C   C861      1.0  0.39389  0.94938  0.16245  1.0000
  C   C862      1.0  0.40773  0.94567  0.17374  1.0000
  H   H1519     1.0  0.39213  0.91419  0.21798  1.0000
  H   H1520     1.0  0.36765  0.92110  0.19812  1.0000
  H   H1521     1.0  0.39441  0.95948  0.14703  1.0000
  H   H1522     1.0  0.41880  0.95324  0.16717  1.0000
  C   C863      1.0  0.31116  0.78232  0.10661  1.0000
  C   C864      1.0  0.31348  0.81289  0.10444  1.0000
  C   C865      1.0  0.31178  0.83188  0.12183  1.0000
  C   C866      1.0  0.30759  0.82054  0.14165  1.0000
  C   C867      1.0  0.30501  0.79004  0.14376  1.0000
  C   C868      1.0  0.30674  0.77102  0.12636  1.0000
  H   H1523     1.0  0.31672  0.82196  0.08922  1.0000
  H   H1524     1.0  0.31370  0.85528  0.11992  1.0000
  H   H1525     1.0  0.30169  0.78104  0.15899  1.0000
  H   H1526     1.0  0.30486  0.74760  0.12829  1.0000
  C   C869      1.0  0.29975  0.52310  0.12901  1.0000
  C   C870      1.0  0.29388  0.54029  0.11259  1.0000
  C   C871      1.0  0.29548  0.57110  0.11271  1.0000
  C   C872      1.0  0.30245  0.58498  0.12969  1.0000
  C   C873      1.0  0.30790  0.56790  0.14640  1.0000
  C   C874      1.0  0.30673  0.53707  0.14595  1.0000
  H   H1527     1.0  0.28806  0.52974  0.09973  1.0000
  H   H1528     1.0  0.29100  0.58414  0.09990  1.0000
  H   H1529     1.0  0.31335  0.57854  0.15954  1.0000
  H   H1530     1.0  0.31117  0.52423  0.15876  1.0000
  C   C875      1.0  0.46853  0.53576  0.15018  1.0000
  C   C876      1.0  0.47282  0.56568  0.15046  1.0000
  C   C877      1.0  0.46881  0.58491  0.13395  1.0000
  C   C878      1.0  0.46026  0.57449  0.11702  1.0000
  C   C879      1.0  0.45578  0.54465  0.11686  1.0000
  C   C880      1.0  0.45992  0.52535  0.13329  1.0000
  H   H1531     1.0  0.47946  0.57397  0.16345  1.0000
  H   H1532     1.0  0.47232  0.60778  0.13434  1.0000
  H   H1533     1.0  0.44917  0.53635  0.10385  1.0000
  C   C881      1.0  0.43364  0.51884  0.18500  1.0000
  C   C882      1.0  0.46689  0.77474  0.13737  1.0000
  C   C883      1.0  0.46810  0.78940  0.11804  1.0000
  C   C884      1.0  0.46987  0.82009  0.11732  1.0000
  C   C885      1.0  0.47059  0.83643  0.13591  1.0000
  C   C886      1.0  0.46900  0.82195  0.15529  1.0000
  C   C887      1.0  0.46710  0.79118  0.15599  1.0000
  H   H1534     1.0  0.46786  0.77710  0.10364  1.0000
  H   H1535     1.0  0.47074  0.83120  0.10227  1.0000
  H   H1536     1.0  0.46926  0.83442  0.16970  1.0000
  H   H1537     1.0  0.46582  0.78000  0.17097  1.0000
  C   C888      1.0  0.39902  0.69639  0.06343  1.0000
  C   C889      1.0  0.40048  0.66635  0.05923  1.0000
  C   C890      1.0  0.38702  0.64915  0.05619  1.0000
  C   C891      1.0  0.37201  0.66155  0.05815  1.0000
  C   C892      1.0  0.37055  0.69156  0.06258  1.0000
  C   C893      1.0  0.38404  0.70895  0.06483  1.0000
  H   H1538     1.0  0.41199  0.65658  0.05774  1.0000
  H   H1539     1.0  0.38828  0.62619  0.05226  1.0000
  H   H1540     1.0  0.35906  0.70145  0.06386  1.0000
  H   H1541     1.0  0.38292  0.73226  0.06749  1.0000
  H   H1542     1.0  0.33346  0.97954  0.12206  1.0000
  C   C894      1.0  0.51066  0.88021  0.24731  1.0000
  H   H1543     1.0  0.45328  0.63129  0.16809  1.0000
  H   H1544     1.0  0.32335  0.56390  0.07395  1.0000
  H   H1545     1.0  0.37349  0.58427  0.06437  1.0000
  H   H1546     1.0  0.39018  0.96081  0.10559  1.0000
  C   C895      1.0  0.48933  0.79384  0.21255  1.0000
  H   H1547     1.0  0.26729  0.51186  0.27912  1.0000
  C   C896      1.0  0.28765  0.91198  0.29318  1.0000
  H   H1548     1.0  0.36647  0.52677  0.09381  1.0000
  C   C897      1.0  0.35311  0.55628  0.05746  1.0000
  C   C898      1.0  0.49769  0.83235  0.05293  1.0000
  H   H1549     1.0  0.43416  0.55906  0.27798  1.0000
  H   H1550     1.0  0.48583  0.81958  0.24192  1.0000
  S   S222      1.0  0.47387  0.51273  0.17157  1.0000
  H   H1551     1.0  0.34653  0.57563  0.05134  1.0000
  C   C899      1.0  0.50391  0.74267  0.09690  1.0000
  H   H1552     1.0  0.40373  0.51829  0.15365  1.0000
  H   H1553     1.0  0.35709  0.60619  0.12926  1.0000
  N   N51       1.0  0.36291  0.78003  0.11816  1.0000
  C   C900      1.0  0.36523  0.80142  0.13597  1.0000
  C   C901      1.0  0.37823  0.76531  0.11207  1.0000
  C   C902      1.0  0.35745  0.79762  0.09944  1.0000
  C   C903      1.0  0.35044  0.75749  0.12347  1.0000
  C   C904      1.0  0.35309  0.73784  0.14299  1.0000
  C   C905      1.0  0.35054  0.81911  0.14326  1.0000
  C   C906      1.0  0.35749  0.78137  0.07796  1.0000
  C   C907      1.0  0.38977  0.75816  0.12991  1.0000
  C   C908      1.0  0.40347  0.73954  0.12171  1.0000
  C   C909      1.0  0.33814  0.72130  0.14944  1.0000
  C   C910      1.0  0.35411  0.83894  0.16191  1.0000
  C   C911      1.0  0.35018  0.80037  0.06090  1.0000
  H   H1554     1.0  0.37450  0.81760  0.13141  1.0000
  H   H1555     1.0  0.36967  0.79022  0.15014  1.0000
  H   H1556     1.0  0.37592  0.74459  0.10336  1.0000
  H   H1557     1.0  0.38513  0.77959  0.10097  1.0000
  H   H1558     1.0  0.36476  0.81777  0.09720  1.0000
  H   H1559     1.0  0.34528  0.80554  0.10222  1.0000
  H   H1560     1.0  0.33890  0.76838  0.12544  1.0000
  H   H1561     1.0  0.34881  0.74210  0.11017  1.0000
  H   H1562     1.0  0.35663  0.75069  0.15683  1.0000
  H   H1563     1.0  0.36216  0.72110  0.13921  1.0000
  H   H1564     1.0  0.34630  0.83355  0.13049  1.0000
  H   H1565     1.0  0.34092  0.80416  0.14838  1.0000
  H   H1566     1.0  0.35085  0.76044  0.07885  1.0000
  H   H1567     1.0  0.36961  0.77642  0.07256  1.0000
  H   H1568     1.0  0.39473  0.77887  0.13619  1.0000
  H   H1569     1.0  0.38408  0.74614  0.14314  1.0000
  H   H1570     1.0  0.41009  0.75146  0.10909  1.0000
  H   H1571     1.0  0.41161  0.73470  0.13465  1.0000
  H   H1572     1.0  0.39926  0.71837  0.11524  1.0000
  H   H1573     1.0  0.33376  0.70813  0.13616  1.0000
  H   H1574     1.0  0.34052  0.70617  0.16275  1.0000
  H   H1575     1.0  0.32888  0.73704  0.15458  1.0000
  H   H1576     1.0  0.36353  0.85494  0.15781  1.0000
  H   H1577     1.0  0.34342  0.85152  0.16647  1.0000
  H   H1578     1.0  0.35764  0.82558  0.17568  1.0000
  H   H1579     1.0  0.33772  0.80500  0.06490  1.0000
  H   H1580     1.0  0.35662  0.82148  0.05895  1.0000
  H   H1581     1.0  0.35063  0.78841  0.04571  1.0000
  C   C912      1.0  0.50252  0.72646  0.02403  1.0000
  C   C913      1.0  0.47757  0.83983  0.02462  1.0000
  S   S223      1.0  0.27574  0.65438  0.03281  1.0000
  H   H1582     1.0  0.35036  0.96644  0.10763  1.0000
  H   H1583     1.0  0.50248  0.73260  0.15020  1.0000
  H   H1584     1.0  0.29792  0.62991  0.17719  1.0000
  H   H1585     1.0  0.49893  0.81605  0.02027  1.0000
  H   H1586     1.0  0.43580  0.65036  0.17673  1.0000
  H   H1587     1.0  0.50926  0.80363  0.24455  1.0000
  H   H1588     1.0  0.49931  0.95377  0.26293  1.0000
  H   H1589     1.0  0.43168  0.96241  0.12871  1.0000
  H   H1590     1.0  0.48449  0.79624  0.19665  1.0000
  N   N52       1.0  0.51019  0.81381  0.06290  1.0000
  H   H1591     1.0  0.30644  0.49768  0.07819  1.0000
  H   H1592     1.0  0.37057  0.98836  0.08519  1.0000
  H   H1593     1.0  0.31059  0.90404  0.27894  1.0000
  C   C914      1.0  0.42516  0.52321  0.25930  1.0000
  H   H1594     1.0  0.34105  0.51097  0.11544  1.0000
  H   H1595     1.0  0.29614  0.87664  0.27275  1.0000
  H   H1596     1.0  0.51250  0.74559  0.20669  1.0000
  H   H1597     1.0  0.41751  0.82838  0.18810  1.0000
  H   H1598     1.0  0.36946  0.58720  0.02600  1.0000
  H   H1599     1.0  0.29097  0.99339  0.26767  1.0000
  H   H1600     1.0  0.45963  0.83829  0.23396  1.0000
  H   H1601     1.0  0.26652  0.98779  0.15689  1.0000
  H   H1602     1.0  0.36208  0.57860  0.09429  1.0000
  H   H1603     1.0  0.44440  0.52528  0.19332  1.0000
  H   H1604     1.0  0.46808  0.84318  0.03658  1.0000
  H   H1605     1.0  0.36936  0.98787  0.12552  1.0000
  H   H1606     1.0  0.37013  0.64793  0.10222  1.0000
  H   H1607     1.0  0.27930  0.99627  0.31828  1.0000
  C   C915      1.0  0.27941  0.61381  0.19842  1.0000
  N   N53       1.0  0.34677  0.54753  0.07898  1.0000
  C   C916      1.0  0.48224  0.81985  0.22530  1.0000
  H   H1608     1.0  0.37472  0.68536  0.10882  1.0000
  H   H1609     1.0  0.42405  0.85860  0.20394  1.0000
  H   H1610     1.0  0.43582  0.49781  0.17657  1.0000
  C   C917      1.0  0.32444  0.52088  0.05978  1.0000
  H   H1611     1.0  0.43804  0.83839  0.18808  1.0000
  H   H1612     1.0  0.34370  0.59334  0.08704  1.0000
  H   H1613     1.0  0.50379  0.81872  0.10772  1.0000
  H   H1614     1.0  0.45999  0.79859  0.23334  1.0000
  C   C918      1.0  0.51054  0.89017  0.32926  1.0000
  H   H1615     1.0  0.50230  0.85459  0.04872  1.0000
  H   H1616     1.0  0.48427  0.77293  0.21897  1.0000
  H   H1617     1.0  0.51156  0.98318  0.25296  1.0000
  C   C919      1.0  0.31202  0.53968  0.22417  1.0000
  C   C920      1.0  0.37608  0.56864  0.03298  1.0000
  H   H1618     1.0  0.49785  0.77246  0.05948  1.0000
  C   C921      1.0  0.28195  0.97438  0.23941  1.0000
  H   H1619     1.0  0.49953  0.77962  0.16883  1.0000
  H   H1620     1.0  0.47241  0.82995  0.01041  1.0000
  C   C922      1.0  0.46437  0.81887  0.22537  1.0000
  H   H1621     1.0  0.40870  0.58290  0.05986  1.0000
  H   H1622     1.0  0.45652  0.50243  0.13286  1.0000
  H   H1623     1.0  0.32563  0.94629  0.09419  1.0000
  H   H1624     1.0  0.29970  0.52092  0.19865  1.0000
  H   H1625     1.0  0.35173  0.55339  0.12468  1.0000
  C   C923      1.0  0.39227  0.52845  0.15004  1.0000
  H   H1626     1.0  0.29568  0.91254  0.26034  1.0000
  C   C924      1.0  0.30013  0.54254  0.20669  1.0000
  H   H1627     1.0  0.50663  0.92924  0.29716  1.0000
  H   H1628     1.0  0.42127  0.57064  0.25751  1.0000
  C   C925      1.0  0.35530  0.52035  0.08636  1.0000
  H   H1629     1.0  0.38635  0.53550  0.16490  1.0000
  H   H1630     1.0  0.50607  0.76548  0.24015  1.0000
  H   H1631     1.0  0.42302  0.56751  0.07717  1.0000
  H   H1632     1.0  0.31882  0.98283  0.08836  1.0000
  H   H1633     1.0  0.46003  0.81960  0.20905  1.0000
  H   H1634     1.0  0.48794  0.83646  0.06444  1.0000
  H   H1635     1.0  0.32405  0.53498  0.09227  1.0000
  H   H1636     1.0  0.51277  0.71686  0.17196  1.0000
  H   H1637     1.0  0.33579  0.96815  0.07446  1.0000
  H   H1638     1.0  0.28107  0.52920  0.17584  1.0000
  H   H1639     1.0  0.50855  0.86308  0.12847  1.0000
  H   H1640     1.0  0.29073  0.93549  0.29543  1.0000
  H   H1641     1.0  0.28268  0.94295  0.32822  1.0000
  H   H1642     1.0  0.44463  0.65823  0.15117  1.0000
  H   H1643     1.0  0.30460  0.55939  0.19544  1.0000
  H   H1644     1.0  0.34026  0.59527  0.14484  1.0000
  C   C926      1.0  0.34487  0.59838  0.12853  1.0000
  H   H1645     1.0  0.49221  0.79241  0.08210  1.0000
  C   C927      1.0  0.27935  0.60294  0.00922  1.0000
  H   H1646     1.0  0.30808  0.52304  0.23599  1.0000
  C   C928      1.0  0.51026  0.73771  0.16348  1.0000
  C   C929      1.0  0.50959  0.83262  0.18307  1.0000
  H   H1647     1.0  0.28624  0.57981  0.17627  1.0000
  H   H1648     1.0  0.49700  0.85161  0.09487  1.0000
  H   H1649     1.0  0.31369  0.56116  0.23209  1.0000
  H   H1650     1.0  0.48275  0.86147  0.02013  1.0000
  C   C930      1.0  0.28371  0.55085  0.21568  1.0000
  H   H1651     1.0  0.42400  0.60594  0.06974  1.0000
  H   H1652     1.0  0.51455  0.81881  0.17023  1.0000
  H   H1653     1.0  0.36588  0.66151  0.12843  1.0000
  C   C931      1.0  0.51010  0.86360  0.26607  1.0000
  N   N54       1.0  0.42185  0.87068  0.12983  1.0000
  C   C932      1.0  0.42834  0.85469  0.11077  1.0000
  C   C933      1.0  0.42918  0.90092  0.13048  1.0000
  C   C934      1.0  0.42705  0.85401  0.14908  1.0000
  C   C935      1.0  0.40418  0.87276  0.13047  1.0000
  C   C936      1.0  0.39583  0.87494  0.10906  1.0000
  C   C937      1.0  0.42466  0.82125  0.10979  1.0000
  C   C938      1.0  0.42328  0.86852  0.17061  1.0000
  C   C939      1.0  0.42546  0.92217  0.11219  1.0000
  C   C940      1.0  0.43472  0.95084  0.11382  1.0000
  C   C941      1.0  0.37893  0.88548  0.11197  1.0000
  C   C942      1.0  0.42852  0.80876  0.08801  1.0000
  C   C943      1.0  0.42589  0.84702  0.18874  1.0000
  H   H1654     1.0  0.44135  0.85681  0.11004  1.0000
  H   H1655     1.0  0.42441  0.86495  0.09597  1.0000
  H   H1656     1.0  0.42535  0.91277  0.14488  1.0000
  H   H1657     1.0  0.44214  0.89893  0.13139  1.0000
  H   H1658     1.0  0.43992  0.85034  0.14828  1.0000
  H   H1659     1.0  0.42159  0.83179  0.14971  1.0000
  H   H1660     1.0  0.39890  0.85333  0.13870  1.0000
  H   H1661     1.0  0.40043  0.89193  0.14028  1.0000
  H   H1662     1.0  0.39556  0.85301  0.10145  1.0000
  H   H1663     1.0  0.40173  0.89024  0.09790  1.0000
  H   H1664     1.0  0.43196  0.80906  0.12118  1.0000
  H   H1665     1.0  0.41218  0.81675  0.11371  1.0000
  H   H1666     1.0  0.41099  0.87625  0.17169  1.0000
  H   H1667     1.0  0.43119  0.88753  0.17300  1.0000
  H   H1668     1.0  0.42841  0.91240  0.09668  1.0000
  H   H1669     1.0  0.41290  0.92822  0.11293  1.0000
  H   H1670     1.0  0.43189  0.96563  0.10049  1.0000
  C   C944      1.0  0.27599  0.58493  0.18658  1.0000
  C   C945      1.0  0.50754  0.83906  0.09931  1.0000
  H   H1671     1.0  0.37862  0.90800  0.11877  1.0000
  H   H1672     1.0  0.37312  0.88616  0.09653  1.0000
  H   H1673     1.0  0.37220  0.87045  0.12256  1.0000
  H   H1674     1.0  0.42098  0.81893  0.07597  1.0000
  H   H1675     1.0  0.44101  0.81277  0.08371  1.0000
  H   H1676     1.0  0.42650  0.78460  0.08799  1.0000
  C   C946      1.0  0.49012  0.81929  0.03310  1.0000
  H   H1677     1.0  0.28537  0.56891  0.22704  1.0000
  H   H1678     1.0  0.47942  0.74314  0.01861  1.0000
  N   N55       1.0  0.40659  0.60726  0.13281  1.0000
  C   C947      1.0  0.39068  0.62092  0.13008  1.0000
  C   C948      1.0  0.40477  0.57868  0.14488  1.0000
  C   C949      1.0  0.41604  0.62795  0.14615  1.0000
  C   C950      1.0  0.41531  0.60238  0.11216  1.0000
  C   C951      1.0  0.40544  0.59529  0.09261  1.0000
  C   C952      1.0  0.39065  0.65312  0.12173  1.0000
  C   C953      1.0  0.43215  0.61629  0.15322  1.0000
  C   C954      1.0  0.39455  0.55449  0.13496  1.0000
  C   C955      1.0  0.32943  0.96894  0.08986  1.0000
  C   C956      1.0  0.41595  0.58740  0.07373  1.0000
  C   C957      1.0  0.37433  0.66243  0.11493  1.0000
  C   C958      1.0  0.44199  0.64063  0.16290  1.0000
  H   H1679     1.0  0.38403  0.62089  0.14537  1.0000
  H   H1680     1.0  0.38352  0.60763  0.11936  1.0000
  H   H1681     1.0  0.41638  0.56809  0.14700  1.0000
  H   H1682     1.0  0.39998  0.58317  0.16100  1.0000
  H   H1683     1.0  0.40926  0.63422  0.16063  1.0000
  H   H1684     1.0  0.41847  0.64883  0.13745  1.0000
  H   H1685     1.0  0.42239  0.62214  0.10767  1.0000
  H   H1686     1.0  0.42403  0.58437  0.11390  1.0000
  H   H1687     1.0  0.39846  0.61469  0.08810  1.0000
  H   H1688     1.0  0.39718  0.57692  0.09539  1.0000
  H   H1689     1.0  0.39419  0.66844  0.13434  1.0000
  H   H1690     1.0  0.39896  0.65604  0.10821  1.0000
  H   H1691     1.0  0.43882  0.60726  0.13966  1.0000
  H   H1692     1.0  0.43067  0.59876  0.16532  1.0000
  H   H1693     1.0  0.38277  0.56265  0.13100  1.0000
  H   H1694     1.0  0.40052  0.54571  0.12066  1.0000
  H   H1695     1.0  0.43537  0.52463  0.24832  1.0000
  C   C959      1.0  0.34946  0.57324  0.09344  1.0000
  C   C960      1.0  0.51447  0.82031  0.20464  1.0000
  H   H1696     1.0  0.43112  0.53617  0.17321  1.0000
  C   C961      1.0  0.29810  0.90055  0.27519  1.0000
  H   H1697     1.0  0.37803  0.54569  0.06243  1.0000
  H   H1698     1.0  0.49673  0.83382  0.18170  1.0000
  H   H1699     1.0  0.48584  0.84109  0.21806  1.0000
  C   C962      1.0  0.26935  0.62540  0.01625  1.0000
  C   C963      1.0  0.37085  0.56371  0.05587  1.0000
  H   H1700     1.0  0.35132  0.53824  0.04601  1.0000
  H   H1701     1.0  0.32345  0.53240  0.21737  1.0000
  H   H1702     1.0  0.38487  0.51142  0.14268  1.0000
  C   C964      1.0  0.34002  0.98104  0.10684  1.0000
  H   H1703     1.0  0.38872  0.57428  0.03221  1.0000
  H   H1704     1.0  0.28787  0.65814  0.19196  1.0000
  H   H1705     1.0  0.51126  0.87857  0.19225  1.0000
  H   H1706     1.0  0.49900  0.86051  0.27429  1.0000
  H   H1707     1.0  0.51447  0.84294  0.32627  1.0000
  C   C965      1.0  0.51230  0.78526  0.23373  1.0000
  C   C966      1.0  0.27018  0.90937  0.28771  1.0000
  H   H1708     1.0  0.44751  0.94639  0.11319  1.0000
  C   C967      1.0  0.28631  0.63709  0.18345  1.0000
  H   H1709     1.0  0.32507  0.53206  0.04420  1.0000
  H   H1710     1.0  0.29051  0.89917  0.30743  1.0000
  C   C968      1.0  0.51224  0.76664  0.19760  1.0000
  H   H1711     1.0  0.28793  0.61059  0.21108  1.0000
  H   H1712     1.0  0.49083  0.74972  0.18342  1.0000
  H   H1713     1.0  0.40935  0.51098  0.19150  1.0000
  H   H1714     1.0  0.40575  0.53335  0.23911  1.0000
  S   S224      1.0  0.29591  0.98491  0.12529  1.0000
  C   C969      1.0  0.50260  0.78652  0.07213  1.0000
  C   C970      1.0  0.32936  0.54267  0.07718  1.0000
  H   H1715     1.0  0.33184  0.56150  0.11780  1.0000
  H   H1716     1.0  0.29120  0.60204  0.01477  1.0000
  C   C971      1.0  0.50215  0.75971  0.17817  1.0000
  C   C972      1.0  0.27122  0.95379  0.33052  1.0000
  C   C973      1.0  0.41002  0.51406  0.24814  1.0000
  H   H1717     1.0  0.41338  0.55327  0.28118  1.0000
  C   C974      1.0  0.27007  0.53241  0.18522  1.0000
  N   N56       1.0  0.50698  0.79180  0.21166  1.0000
  H   H1718     1.0  0.51190  0.72703  0.10475  1.0000
  C   C975      1.0  0.51163  0.96121  0.26067  1.0000
  H   H1719     1.0  0.49623  0.75295  0.10911  1.0000
  H   H1720     1.0  0.27958  0.53191  0.22546  1.0000
  N   N57       1.0  0.27147  0.55846  0.19978  1.0000
  C   C976      1.0  0.41994  0.51576  0.20067  1.0000
  H   H1721     1.0  0.40113  0.51087  0.26093  1.0000
  H   H1722     1.0  0.29943  0.52920  0.06351  1.0000
  H   H1723     1.0  0.26922  0.95719  0.21350  1.0000
  H   H1724     1.0  0.50970  0.95341  0.32925  1.0000
  C   C977      1.0  0.51598  0.86375  0.17981  1.0000
  H   H1725     1.0  0.50220  0.89010  0.31614  1.0000
  H   H1726     1.0  0.51231  0.87246  0.16438  1.0000
  C   C978      1.0  0.51342  0.76608  0.08496  1.0000
  H   H1727     1.0  0.26723  0.50132  0.14778  1.0000
  C   C979      1.0  0.39336  0.98184  0.09759  1.0000
  C   C980      1.0  0.30762  0.51021  0.06318  1.0000
  H   H1728     1.0  0.51224  0.83752  0.21665  1.0000
  H   H1729     1.0  0.26836  0.62292  0.20512  1.0000
  H   H1730     1.0  0.27844  0.64110  0.17004  1.0000
  C   C981      1.0  0.26842  0.96950  0.22798  1.0000
  H   H1731     1.0  0.33222  0.50137  0.05914  1.0000
  H   H1732     1.0  0.40223  0.99355  0.10696  1.0000
  H   H1733     1.0  0.39863  0.97673  0.08191  1.0000
  H   H1734     1.0  0.42764  0.50731  0.27209  1.0000
  C   C982      1.0  0.28061  0.98960  0.25860  1.0000
  H   H1735     1.0  0.36296  0.49866  0.22516  1.0000
  H   H1736     1.0  0.35886  0.50639  0.07270  1.0000
  H   H1737     1.0  0.26833  0.51182  0.19455  1.0000
  C   C983      1.0  0.26832  0.49976  0.26455  1.0000
  H   H1738     1.0  0.26812  0.88708  0.28115  1.0000
  H   H1739     1.0  0.26864  0.92467  0.27421  1.0000
  C   C984      1.0  0.34632  0.49935  0.10179  1.0000
  H   H1740     1.0  0.39117  0.50457  0.21726  1.0000
  H   H1741     1.0  0.51350  0.98002  0.29119  1.0000
  H   H1742     1.0  0.27152  0.89673  0.33055  1.0000
  H   H1743     1.0  0.26655  0.59047  0.17550  1.0000
  H   H1744     1.0  0.27269  0.49699  0.32421  1.0000
  H   H1745     1.0  0.26785  0.77516  0.58126  1.0000
  C   C985      1.0  0.34327  0.50975  0.53640  1.0000
  S   S225      1.0  0.46254  0.62419  0.63546  1.0000
  C   C986      1.0  0.28379  0.94602  0.41245  1.0000
  C   C987      1.0  0.50770  0.53303  0.58111  1.0000
  S   S226      1.0  0.32225  0.67385  0.64506  1.0000
  C   C988      1.0  0.44078  0.85181  0.64473  1.0000
  S   S227      1.0  0.29488  0.73770  0.62842  1.0000
  H   H1746     1.0  0.34084  0.81439  0.58160  1.0000
  C   C989      1.0  0.34970  0.56006  0.61253  1.0000
  Fe  Fe113     1.0  0.47368  0.94152  0.55615  1.0000
  S   S228      1.0  0.48688  0.92345  0.58366  1.0000
  S   S229      1.0  0.48364  0.95795  0.52420  1.0000
  Fe  Fe114     1.0  0.44170  0.93722  0.58036  1.0000
  S   S230      1.0  0.45301  0.91953  0.60935  1.0000
  S   S231      1.0  0.41612  0.95013  0.58547  1.0000
  Fe  Fe115     1.0  0.47147  0.95394  0.60305  1.0000
  C   C990      1.0  0.46167  0.54395  0.54626  1.0000
  Fe  Fe116     1.0  0.46711  0.89060  0.58770  1.0000
  S   S232      1.0  0.46804  0.84047  0.59223  1.0000
  S   S233      1.0  0.45938  0.97348  0.57555  1.0000
  S   S234      1.0  0.45476  0.90652  0.55860  1.0000
  Fe  Fe117     1.0  0.30934  0.89952  0.59369  1.0000
  S   S235      1.0  0.31267  0.88077  0.56140  1.0000
  S   S236      1.0  0.31157  0.87327  0.62378  1.0000
  Fe  Fe118     1.0  0.30686  0.96321  0.57771  1.0000
  S   S237      1.0  0.31062  0.94891  0.54393  1.0000
  H   H1747     1.0  0.29077  0.86310  0.50566  1.0000
  Fe  Fe119     1.0  0.29375  0.91189  0.55139  1.0000
  C   C991      1.0  0.27473  0.86970  0.65889  1.0000
  Fe  Fe120     1.0  0.32931  0.91899  0.55679  1.0000
  S   S238      1.0  0.35325  0.90771  0.54269  1.0000
  S   S239      1.0  0.28903  0.92776  0.58456  1.0000
  S   S240      1.0  0.32680  0.93615  0.58963  1.0000
  H   H1748     1.0  0.48875  0.93739  0.47049  1.0000
  H   H1749     1.0  0.44212  0.76061  0.65338  1.0000
  H   H1750     1.0  0.27167  0.50292  0.42515  1.0000
  H   H1751     1.0  0.33997  0.85296  0.57524  1.0000
  N   N58       1.0  0.49932  0.58414  0.56633  1.0000
  C   C992      1.0  0.39895  0.93767  0.57316  1.0000
  C   C993      1.0  0.38446  0.94893  0.58019  1.0000
  C   C994      1.0  0.37044  0.93995  0.57099  1.0000
  C   C995      1.0  0.37072  0.91949  0.55465  1.0000
  C   C996      1.0  0.38520  0.90802  0.54767  1.0000
  C   C997      1.0  0.39928  0.91703  0.55690  1.0000
  H   H1752     1.0  0.38409  0.96497  0.59271  1.0000
  H   H1753     1.0  0.35944  0.94926  0.57635  1.0000
  H   H1754     1.0  0.38555  0.89224  0.53499  1.0000
  H   H1755     1.0  0.41037  0.90820  0.55135  1.0000
  C   C998      1.0  0.30849  0.57347  0.64150  1.0000
  C   C999      1.0  0.30827  0.58606  0.62141  1.0000
  C   C1000     1.0  0.30846  0.56794  0.60345  1.0000
  C   C1001     1.0  0.30923  0.53712  0.60532  1.0000
  C   C1002     1.0  0.31024  0.52458  0.62537  1.0000
  C   C1003     1.0  0.30963  0.54265  0.64335  1.0000
  H   H1756     1.0  0.30740  0.60971  0.61973  1.0000
  H   H1757     1.0  0.30779  0.57792  0.58802  1.0000
  H   H1758     1.0  0.27705  0.59740  0.60805  1.0000
  C   C1004     1.0  0.35737  0.87535  0.60827  1.0000
  C   C1005     1.0  0.30144  0.77448  0.62646  1.0000
  C   C1006     1.0  0.29953  0.79006  0.60761  1.0000
  C   C1007     1.0  0.30306  0.82027  0.60633  1.0000
  C   C1008     1.0  0.30848  0.83500  0.62397  1.0000
  C   C1009     1.0  0.31113  0.81915  0.64248  1.0000
  C   C1010     1.0  0.30766  0.78898  0.64370  1.0000
  H   H1759     1.0  0.29523  0.77868  0.59403  1.0000
  H   H1760     1.0  0.30140  0.83230  0.59189  1.0000
  H   H1761     1.0  0.41257  0.52751  0.55494  1.0000
  H   H1762     1.0  0.42808  0.97567  0.65416  1.0000
  C   C1011     1.0  0.48045  0.78207  0.64932  1.0000
  C   C1012     1.0  0.48372  0.81245  0.64948  1.0000
  C   C1013     1.0  0.47988  0.83072  0.63231  1.0000
  C   C1014     1.0  0.47278  0.81877  0.61465  1.0000
  C   C1015     1.0  0.46952  0.78837  0.61450  1.0000
  C   C1016     1.0  0.47329  0.77016  0.63172  1.0000
  H   H1763     1.0  0.27998  0.78347  0.53113  1.0000
  H   H1764     1.0  0.48258  0.85398  0.63263  1.0000
  H   H1765     1.0  0.46417  0.77880  0.60088  1.0000
  H   H1766     1.0  0.47100  0.74678  0.63121  1.0000
  C   C1017     1.0  0.47820  0.52840  0.62756  1.0000
  C   C1018     1.0  0.46464  0.53873  0.61816  1.0000
  C   C1019     1.0  0.46011  0.56825  0.62055  1.0000
  C   C1020     1.0  0.46888  0.58753  0.63277  1.0000
  C   C1021     1.0  0.48264  0.57746  0.64188  1.0000
  C   C1022     1.0  0.48730  0.54795  0.63920  1.0000
  H   H1767     1.0  0.38374  0.53170  0.55531  1.0000
  H   H1768     1.0  0.44954  0.57600  0.61330  1.0000
  S   S241      1.0  0.27156  0.90145  0.53299  1.0000
  H   H1769     1.0  0.49791  0.54016  0.64631  1.0000
  C   C1023     1.0  0.40871  0.86627  0.60853  1.0000
  H   H1770     1.0  0.35896  0.54547  0.56314  1.0000
  H   H1771     1.0  0.41182  0.50775  0.57957  1.0000
  C   C1024     1.0  0.36361  0.83776  0.58186  1.0000
  C   C1025     1.0  0.39215  0.86752  0.60005  1.0000
  H   H1772     1.0  0.34191  0.53171  0.57586  1.0000
  H   H1773     1.0  0.41617  0.88285  0.60018  1.0000
  H   H1774     1.0  0.36026  0.58031  0.63986  1.0000
  H   H1775     1.0  0.34452  0.87470  0.60588  1.0000
  H   H1776     1.0  0.50596  0.90500  0.34175  1.0000
  S   S242      1.0  0.36116  0.69815  0.66161  1.0000
  H   H1777     1.0  0.45974  0.52428  0.53631  1.0000
  C   C1026     1.0  0.50212  0.97239  0.51550  1.0000
  H   H1778     1.0  0.27087  0.80945  0.59351  1.0000
  H   H1779     1.0  0.38778  0.89026  0.60237  1.0000
  C   C1027     1.0  0.38962  0.52724  0.57036  1.0000
  H   H1780     1.0  0.40861  0.87146  0.62556  1.0000
  Fe  Fe121     1.0  0.30478  0.70862  0.65404  1.0000
  H   H1781     1.0  0.33660  0.77182  0.62098  1.0000
  H   H1782     1.0  0.34209  0.56756  0.59966  1.0000
  H   H1783     1.0  0.42875  0.77677  0.62147  1.0000
  H   H1784     1.0  0.27364  0.54413  0.59905  1.0000
  H   H1785     1.0  0.35247  0.74719  0.62654  1.0000
  H   H1786     1.0  0.41394  0.84419  0.60586  1.0000
  C   C1028     1.0  0.43979  0.82289  0.65709  1.0000
  H   H1787     1.0  0.27149  0.60959  0.63403  1.0000
  H   H1788     1.0  0.38654  0.82256  0.60740  1.0000
  C   C1029     1.0  0.27875  0.86184  0.50078  1.0000
  H   H1789     1.0  0.37087  0.81810  0.57804  1.0000
  C   C1030     1.0  0.40531  0.51262  0.56503  1.0000
  H   H1790     1.0  0.28774  0.84710  0.39558  1.0000
  C   C1031     1.0  0.48929  0.62575  0.59122  1.0000
  H   H1791     1.0  0.28662  0.88627  0.42289  1.0000
  C   C1032     1.0  0.35304  0.58675  0.62628  1.0000
  C   C1033     1.0  0.35529  0.82340  0.61834  1.0000
  H   H1792     1.0  0.37241  0.89237  0.63335  1.0000
  H   H1793     1.0  0.35656  0.93434  0.61933  1.0000
  H   H1794     1.0  0.33120  0.51574  0.54161  1.0000
  H   H1795     1.0  0.41218  0.75331  0.62765  1.0000
  H   H1796     1.0  0.51105  0.95945  0.61571  1.0000
  C   C1034     1.0  0.27377  0.91951  0.45573  1.0000
  H   H1797     1.0  0.35388  0.80383  0.54743  1.0000
  C   C1035     1.0  0.27416  0.98674  0.33300  1.0000
  S   S243      1.0  0.47995  0.98245  0.62977  1.0000
  H   H1798     1.0  0.42980  0.73022  0.60174  1.0000
  H   H1799     1.0  0.36186  0.89118  0.59617  1.0000
  C   C1036     1.0  0.50827  0.49846  0.48410  1.0000
  H   H1800     1.0  0.27893  0.77421  0.66438  1.0000
  H   H1801     1.0  0.29142  0.92774  0.40706  1.0000
  C   C1037     1.0  0.26728  0.87855  0.51123  1.0000
  C   C1038     1.0  0.28543  0.79304  0.54522  1.0000
  H   H1802     1.0  0.47629  0.57087  0.57788  1.0000
  H   H1803     1.0  0.28298  0.49777  0.61147  1.0000
  H   H1804     1.0  0.43551  0.55147  0.65181  1.0000
  N   N59       1.0  0.36334  0.51885  0.59080  1.0000
  H   H1805     1.0  0.48966  0.59241  0.65093  1.0000
  H   H1806     1.0  0.46033  0.93062  0.46856  1.0000
  C   C1039     1.0  0.34775  0.82511  0.54994  1.0000
  H   H1807     1.0  0.48539  0.67080  0.58041  1.0000
  H   H1808     1.0  0.45659  0.53957  0.56218  1.0000
  H   H1809     1.0  0.28362  0.83061  0.47599  1.0000
  H   H1810     1.0  0.45745  0.52392  0.60934  1.0000
  H   H1811     1.0  0.35462  0.92933  0.64738  1.0000
  H   H1812     1.0  0.37050  0.56432  0.59343  1.0000
  H   H1813     1.0  0.31113  0.50097  0.62706  1.0000
  C   C1040     1.0  0.43295  0.73039  0.61858  1.0000
  H   H1814     1.0  0.27586  0.82455  0.41330  1.0000
  H   H1815     1.0  0.33573  0.82325  0.54386  1.0000
  H   H1816     1.0  0.29949  0.99124  0.64597  1.0000
  H   H1817     1.0  0.27549  0.98732  0.39891  1.0000
  H   H1818     1.0  0.27762  0.95751  0.38034  1.0000
  H   H1819     1.0  0.39268  0.68495  0.64915  1.0000
  H   H1820     1.0  0.48245  0.66518  0.60825  1.0000
  C   C1041     1.0  0.42291  0.81071  0.65787  1.0000
  H   H1821     1.0  0.48956  0.86912  0.46879  1.0000
  C   C1042     1.0  0.38134  0.84442  0.61111  1.0000
  H   H1822     1.0  0.31565  0.83035  0.65604  1.0000
  H   H1823     1.0  0.37335  0.54324  0.61644  1.0000
  H   H1824     1.0  0.51538  0.95569  0.54126  1.0000
  H   H1825     1.0  0.49365  0.89614  0.53663  1.0000
  H   H1826     1.0  0.38636  0.50369  0.59947  1.0000
  C   C1043     1.0  0.30205  0.80243  0.53892  1.0000
  H   H1827     1.0  0.39859  0.77856  0.65045  1.0000
  C   C1044     1.0  0.36508  0.54670  0.60336  1.0000
  H   H1828     1.0  0.50874  0.97311  0.57791  1.0000
  C   C1045     1.0  0.26732  0.93509  0.41926  1.0000
  H   H1829     1.0  0.34185  0.59603  0.63251  1.0000
  C   C1046     1.0  0.49982  0.61636  0.57220  1.0000
  H   H1830     1.0  0.49616  0.89270  0.44833  1.0000
  C   C1047     1.0  0.27558  0.84116  0.40041  1.0000
  N   N60       1.0  0.36441  0.84520  0.60491  1.0000
  C   C1048     1.0  0.50001  0.87518  0.53376  1.0000
  H   H1831     1.0  0.46993  0.91623  0.44527  1.0000
  H   H1832     1.0  0.34249  0.82576  0.61582  1.0000
  Fe  Fe122     1.0  0.46725  0.65214  0.66404  1.0000
  H   H1833     1.0  0.50897  0.55753  0.54075  1.0000
  S   S244      1.0  0.30814  0.51545  0.58220  1.0000
  C   C1049     1.0  0.29154  0.91351  0.45824  1.0000
  H   H1834     1.0  0.39220  0.54852  0.57801  1.0000
  H   H1835     1.0  0.31027  0.92307  0.47975  1.0000
  H   H1836     1.0  0.29111  0.92211  0.49204  1.0000
  H   H1837     1.0  0.48139  0.91293  0.49067  1.0000
  C   C1050     1.0  0.28279  0.96807  0.39428  1.0000
  H   H1838     1.0  0.33916  0.91720  0.63079  1.0000
  H   H1839     1.0  0.30830  0.81062  0.55287  1.0000
  H   H1840     1.0  0.49809  0.56885  0.59856  1.0000
  H   H1841     1.0  0.34308  0.54399  0.62239  1.0000
  N   N61       1.0  0.51153  0.89124  0.47489  1.0000
  C   C1051     1.0  0.34700  0.83271  0.57333  1.0000
  C   C1052     1.0  0.37944  0.50734  0.58509  1.0000
  H   H1842     1.0  0.36881  0.85589  0.57213  1.0000
  H   H1843     1.0  0.41809  0.81238  0.64180  1.0000
  H   H1844     1.0  0.28313  0.83125  0.56507  1.0000
  H   H1845     1.0  0.30860  0.78330  0.53242  1.0000
  H   H1846     1.0  0.39304  0.86328  0.58290  1.0000
  H   H1847     1.0  0.30185  0.82002  0.52674  1.0000
  C   C1053     1.0  0.48988  0.65908  0.59439  1.0000
  H   H1848     1.0  0.45550  0.56295  0.53919  1.0000
  C   C1054     1.0  0.27410  0.88271  0.42698  1.0000
  H   H1849     1.0  0.47686  0.61962  0.58907  1.0000
  C   C1055     1.0  0.35205  0.91936  0.63194  1.0000
  H   H1850     1.0  0.49655  0.63024  0.55845  1.0000
  H   H1851     1.0  0.48505  0.52975  0.55231  1.0000
  H   H1852     1.0  0.28244  0.99049  0.34593  1.0000
  H   H1853     1.0  0.45262  0.86152  0.64621  1.0000
  H   H1854     1.0  0.35397  0.84262  0.54080  1.0000
  C   C1056     1.0  0.47920  0.55022  0.54739  1.0000
  H   H1855     1.0  0.49337  0.61538  0.60593  1.0000
  C   C1057     1.0  0.26789  0.59568  0.62064  1.0000
  C   C1058     1.0  0.49536  0.89072  0.46577  1.0000
  H   H1856     1.0  0.27147  0.94324  0.45888  1.0000
  H   H1857     1.0  0.29694  0.95324  0.47586  1.0000
  C   C1059     1.0  0.48241  0.57604  0.56264  1.0000
  C   C1060     1.0  0.35415  0.52568  0.57139  1.0000
  C   C1061     1.0  0.27464  0.84344  0.48395  1.0000
  C   C1062     1.0  0.35981  0.88917  0.63025  1.0000
  C   C1063     1.0  0.29779  0.92896  0.47765  1.0000
  H   H1858     1.0  0.28637  0.77545  0.55723  1.0000
  H   H1859     1.0  0.49872  0.85292  0.34407  1.0000
  H   H1860     1.0  0.38236  0.84673  0.62844  1.0000
  C   C1064     1.0  0.51067  0.85903  0.33842  1.0000
  H   H1861     1.0  0.30949  0.77715  0.65811  1.0000
  H   H1862     1.0  0.29355  0.88950  0.46031  1.0000
  H   H1863     1.0  0.42916  0.70919  0.62586  1.0000
  H   H1864     1.0  0.49339  0.85720  0.54184  1.0000
  H   H1865     1.0  0.26817  0.90731  0.46914  1.0000
  C   C1065     1.0  0.46828  0.91310  0.46251  1.0000
  C   C1066     1.0  0.42492  0.75626  0.62966  1.0000
  H   H1866     1.0  0.43883  0.84783  0.62777  1.0000
  H   H1867     1.0  0.35970  0.78373  0.59886  1.0000
  H   H1868     1.0  0.48934  0.82190  0.66294  1.0000
  H   H1869     1.0  0.35672  0.82827  0.63529  1.0000
  H   H1870     1.0  0.35464  0.87512  0.64289  1.0000
  H   H1871     1.0  0.47602  0.59519  0.55593  1.0000
  H   H1872     1.0  0.48333  0.55571  0.53115  1.0000
  H   H1873     1.0  0.37172  0.78647  0.62163  1.0000
  S   S245      1.0  0.45521  0.69621  0.66408  1.0000
  C   C1067     1.0  0.50899  0.58061  0.54632  1.0000
  H   H1874     1.0  0.28761  0.87292  0.65793  1.0000
  C   C1068     1.0  0.35984  0.79054  0.61556  1.0000
  H   H1875     1.0  0.44585  0.73228  0.61949  1.0000
  H   H1876     1.0  0.48924  0.86712  0.50431  1.0000
  C   C1069     1.0  0.34846  0.77041  0.62770  1.0000
  C   C1070     1.0  0.50313  0.98752  0.49614  1.0000
  C   C1071     1.0  0.48393  0.91511  0.47356  1.0000
  H   H1877     1.0  0.46265  0.89143  0.46568  1.0000
  H   H1878     1.0  0.29865  0.92078  0.44447  1.0000
  H   H1879     1.0  0.28059  0.98377  0.65788  1.0000
  H   H1880     1.0  0.34775  0.77640  0.64461  1.0000
  C   C1072     1.0  0.51585  0.96793  0.52665  1.0000
  C   C1073     1.0  0.42926  0.75737  0.65320  1.0000
  H   H1881     1.0  0.35921  0.60419  0.61702  1.0000
  H   H1882     1.0  0.30988  0.53270  0.65882  1.0000
  C   C1074     1.0  0.50131  0.86894  0.51018  1.0000
  H   H1883     1.0  0.28931  0.95762  0.42571  1.0000
  H   H1884     1.0  0.27683  0.55746  0.63600  1.0000
  H   H1885     1.0  0.34196  0.50093  0.60481  1.0000
  H   H1886     1.0  0.36014  0.50842  0.63578  1.0000
  C   C1075     1.0  0.43228  0.98210  0.63815  1.0000
  C   C1076     1.0  0.50581  0.56662  0.58437  1.0000
  H   H1887     1.0  0.49609  0.52218  0.58270  1.0000
  H   H1888     1.0  0.44335  0.97015  0.63467  1.0000
  H   H1889     1.0  0.51417  0.93839  0.47121  1.0000
  H   H1890     1.0  0.50718  0.84732  0.50814  1.0000
  H   H1891     1.0  0.27408  0.86572  0.43964  1.0000
  H   H1892     1.0  0.29470  0.97606  0.38983  1.0000
  C   C1077     1.0  0.35293  0.50034  0.55519  1.0000
  C   C1078     1.0  0.39254  0.68883  0.66593  1.0000
  H   H1893     1.0  0.42349  0.97552  0.62648  1.0000
  H   H1894     1.0  0.50357  0.59339  0.53337  1.0000
  H   H1895     1.0  0.51483  0.86343  0.43495  1.0000
  H   H1896     1.0  0.27177  0.84529  0.34382  1.0000
  H   H1897     1.0  0.27749  0.50972  0.63688  1.0000
  H   H1898     1.0  0.34882  0.52881  0.52816  1.0000
  H   H1899     1.0  0.44802  0.80727  0.64947  1.0000
  S   S246      1.0  0.30584  0.59490  0.66461  1.0000
  H   H1900     1.0  0.50204  0.66641  0.59733  1.0000
  H   H1901     1.0  0.42723  0.73508  0.66011  1.0000
  H   H1902     1.0  0.26972  0.83103  0.38681  1.0000
  H   H1903     1.0  0.51306  0.52745  0.56569  1.0000
  H   H1904     1.0  0.37243  0.79381  0.66326  1.0000
  H   H1905     1.0  0.50993  0.50226  0.46740  1.0000
  H   H1906     1.0  0.27487  0.82412  0.65044  1.0000
  H   H1907     1.0  0.43211  0.86800  0.65086  1.0000
  H   H1908     1.0  0.27473  0.83559  0.54041  1.0000
  C   C1079     1.0  0.27578  0.81964  0.55355  1.0000
  H   H1909     1.0  0.26983  0.87587  0.64345  1.0000
  C   C1080     1.0  0.27323  0.49710  0.62324  1.0000
  H   H1910     1.0  0.51179  0.87663  0.54071  1.0000
  H   H1911     1.0  0.49262  0.99093  0.48726  1.0000
  C   C1081     1.0  0.27076  0.83763  0.66401  1.0000
  H   H1912     1.0  0.51216  0.84373  0.47269  1.0000
  H   H1913     1.0  0.50597  0.91515  0.50339  1.0000
  H   H1914     1.0  0.51188  0.62306  0.57631  1.0000
  H   H1915     1.0  0.51383  0.52525  0.61383  1.0000
  H   H1916     1.0  0.26998  0.86994  0.57716  1.0000
  C   C1082     1.0  0.51077  0.89347  0.49853  1.0000
  C   C1083     1.0  0.26647  0.86839  0.40757  1.0000
  N   N62       1.0  0.26649  0.91048  0.43525  1.0000
  Fe  Fe123     1.0  0.48014  0.65914  0.70826  1.0000
  H   H1917     1.0  0.44604  0.57648  0.76040  1.0000
  S   S247      1.0  0.48896  0.63339  0.73701  1.0000
  Fe  Fe124     1.0  0.44771  0.68494  0.69707  1.0000
  S   S248      1.0  0.42426  0.69624  0.71238  1.0000
  S   S249      1.0  0.45786  0.63957  0.69601  1.0000
  S   S250      1.0  0.46914  0.70397  0.71158  1.0000
  Fe  Fe125     1.0  0.30582  0.69437  0.70075  1.0000
  H   H1918     1.0  0.29420  0.65379  0.90866  1.0000
  S   S251      1.0  0.29741  0.70869  0.73386  1.0000
  H   H1919     1.0  0.45548  0.52906  0.74467  1.0000
  H   H1920     1.0  0.47087  0.66332  0.97884  1.0000
  S   S252      1.0  0.31898  0.72700  0.68006  1.0000
  S   S253      1.0  0.32426  0.65909  0.69546  1.0000
  C   C1084     1.0  0.40666  0.69419  0.69840  1.0000
  C   C1085     1.0  0.39238  0.69977  0.70901  1.0000
  C   C1086     1.0  0.37819  0.69964  0.69816  1.0000
  H   H1921     1.0  0.26971  0.88452  0.67112  1.0000
  H   H1922     1.0  0.31805  0.64808  0.98150  1.0000
  S   S254      1.0  0.49021  0.66939  0.67576  1.0000
  H   H1923     1.0  0.39230  0.70434  0.72569  1.0000
  H   H1924     1.0  0.36728  0.70432  0.70641  1.0000
  H   H1925     1.0  0.31050  0.76734  0.73311  1.0000
  H   H1926     1.0  0.29657  0.91290  0.95253  1.0000
  H   H1927     1.0  0.44033  0.76035  0.72625  1.0000
  H   H1928     1.0  0.30431  0.64895  0.94769  1.0000
  C   C1087     1.0  0.27893  0.72215  0.74320  1.0000
  C   C1088     1.0  0.27820  0.73879  0.76183  1.0000
  H   H1929     1.0  0.42285  0.79829  0.69770  1.0000
  H   H1930     1.0  0.28887  0.74339  0.77005  1.0000
  H   H1931     1.0  0.27283  0.61989  0.79003  1.0000
  H   H1932     1.0  0.50291  0.96506  0.78557  1.0000
  H   H1933     1.0  0.50461  0.61464  0.91255  1.0000
  C   C1089     1.0  0.27462  0.62114  0.93466  1.0000
  H   H1934     1.0  0.27322  0.65605  0.74908  1.0000
  C   C1090     1.0  0.46795  0.51555  0.70553  1.0000
  H   H1935     1.0  0.49628  0.59974  0.77369  1.0000
  H   H1936     1.0  0.29741  0.88192  0.93468  1.0000
  H   H1937     1.0  0.29775  0.82592  0.71627  1.0000
  C   C1091     1.0  0.47089  0.68776  0.97826  1.0000
  H   H1938     1.0  0.51325  0.98997  0.74992  1.0000
  H   H1939     1.0  0.40154  0.74868  0.66801  1.0000
  C   C1092     1.0  0.28836  0.78414  0.70354  1.0000
  H   H1940     1.0  0.46607  0.58930  0.76137  1.0000
  H   H1941     1.0  0.50110  0.52044  0.87329  1.0000
  H   H1942     1.0  0.28275  0.74783  0.84350  1.0000
  C   C1093     1.0  0.27895  0.82716  0.68427  1.0000
  H   H1943     1.0  0.39487  0.81201  0.68354  1.0000
  H   H1944     1.0  0.45990  0.55784  0.77680  1.0000
  C   C1094     1.0  0.29735  0.64559  0.96235  1.0000
  H   H1945     1.0  0.28703  0.61862  0.92963  1.0000
  C   C1095     1.0  0.51237  0.76435  0.99067  1.0000
  H   H1946     1.0  0.28194  0.91261  0.91021  1.0000
  H   H1947     1.0  0.46007  0.76960  0.71805  1.0000
  C   C1096     1.0  0.27817  0.63988  0.76026  1.0000
  H   H1948     1.0  0.41946  0.75959  0.69739  1.0000
  C   C1097     1.0  0.44035  0.54072  0.68448  1.0000
  H   H1949     1.0  0.27891  0.94117  0.92850  1.0000
  H   H1950     1.0  0.45872  0.69543  0.97591  1.0000
  H   H1951     1.0  0.29754  0.77941  0.69135  1.0000
  H   H1952     1.0  0.31686  0.80380  0.73974  1.0000
  C   C1098     1.0  0.46300  0.54899  0.74344  1.0000
  H   H1953     1.0  0.28716  0.71909  0.90018  1.0000
  H   H1954     1.0  0.50784  0.95129  0.82048  1.0000
  H   H1955     1.0  0.30262  0.69741  0.88834  1.0000
  H   H1956     1.0  0.44162  0.51694  0.68090  1.0000
  H   H1957     1.0  0.49068  0.62911  0.89430  1.0000
  C   C1099     1.0  0.27360  0.92049  0.92262  1.0000
  H   H1958     1.0  0.27274  0.59629  0.84432  1.0000
  H   H1959     1.0  0.47529  0.54220  0.74564  1.0000
  S   S255      1.0  0.29054  0.67788  0.67494  1.0000
  C   C1100     1.0  0.27389  0.67462  0.92485  1.0000
  C   C1101     1.0  0.49881  0.69035  0.96380  1.0000
  H   H1960     1.0  0.43412  0.54262  0.69987  1.0000
  H   H1961     1.0  0.50856  0.98551  0.83476  1.0000
  H   H1962     1.0  0.50221  0.70409  0.97744  1.0000
  H   H1963     1.0  0.27304  0.60547  0.94807  1.0000
  H   H1964     1.0  0.44793  0.56855  0.72095  1.0000
  H   H1965     1.0  0.28824  0.80239  0.73550  1.0000
  H   H1966     1.0  0.51346  0.50311  0.90574  1.0000
  H   H1967     1.0  0.51006  0.59413  0.70123  1.0000
  C   C1102     1.0  0.51137  0.57037  0.70507  1.0000
  H   H1968     1.0  0.50605  0.94695  0.72891  1.0000
  H   H1969     1.0  0.42799  0.57790  0.67068  1.0000
  H   H1970     1.0  0.27315  0.64719  0.82944  1.0000
  H   H1971     1.0  0.51198  0.60085  0.83279  1.0000
  H   H1972     1.0  0.29708  0.99297  0.67413  1.0000
  H   H1973     1.0  0.50801  0.77464  0.91130  1.0000
  H   H1974     1.0  0.50506  0.74115  0.94378  1.0000
  H   H1975     1.0  0.31999  0.79032  0.71335  1.0000
  C   C1103     1.0  0.49584  0.55764  0.71328  1.0000
  C   C1104     1.0  0.27386  0.89855  0.94127  1.0000
  C   C1105     1.0  0.51566  0.96699  0.82846  1.0000
  C   C1106     1.0  0.44753  0.77503  0.71589  1.0000
  H   H1976     1.0  0.50033  0.74759  0.89340  1.0000
  H   H1977     1.0  0.29051  0.87686  0.96143  1.0000
  N   N63       1.0  0.27117  0.65205  0.94205  1.0000
  H   H1978     1.0  0.41758  0.68370  0.66857  1.0000
  H   H1979     1.0  0.46564  0.58695  0.72279  1.0000
  H   H1980     1.0  0.48189  0.58522  0.69335  1.0000
  C   C1107     1.0  0.45664  0.55592  0.68440  1.0000
  H   H1981     1.0  0.27171  0.69716  0.93094  1.0000
  C   C1108     1.0  0.46068  0.56428  0.72188  1.0000
  H   H1982     1.0  0.44564  0.74699  0.68918  1.0000
  H   H1983     1.0  0.36815  0.79295  0.69113  1.0000
  C   C1109     1.0  0.51302  0.52326  0.86629  1.0000
  H   H1984     1.0  0.30002  0.65537  0.99567  1.0000
  C   C1110     1.0  0.28069  0.65903  0.96121  1.0000
  H   H1985     1.0  0.41602  0.82674  0.66738  1.0000
  H   H1986     1.0  0.49921  0.66717  0.96958  1.0000
  H   H1987     1.0  0.49434  0.71968  0.92621  1.0000
  H   H1988     1.0  0.37279  0.75929  0.67754  1.0000
  H   H1989     1.0  0.48750  0.55160  0.68186  1.0000
  H   H1990     1.0  0.47562  0.50967  0.71872  1.0000
  H   H1991     1.0  0.48038  0.72324  0.95963  1.0000
  C   C1111     1.0  0.29037  0.67567  0.91438  1.0000
  S   S256      1.0  0.48581  0.75982  0.67116  1.0000
  H   H1992     1.0  0.51292  0.94289  0.85791  1.0000
  C   C1112     1.0  0.48149  0.69885  0.96023  1.0000
  C   C1113     1.0  0.26779  0.63744  0.78010  1.0000
  C   C1114     1.0  0.37826  0.69449  0.67651  1.0000
  C   C1115     1.0  0.27044  0.57997  0.90846  1.0000
  Fe  Fe126     1.0  0.47724  0.71298  0.67815  1.0000
  C   C1116     1.0  0.31177  0.79021  0.72713  1.0000
  C   C1117     1.0  0.49719  0.65993  0.91866  1.0000
  C   C1118     1.0  0.50729  0.62292  0.74766  1.0000
  C   C1119     1.0  0.45844  0.56946  0.76158  1.0000
  H   H1993     1.0  0.46237  0.55040  0.66912  1.0000
  C   C1120     1.0  0.50110  0.63460  0.90366  1.0000
  H   H1994     1.0  0.48731  0.65254  0.92897  1.0000
  H   H1995     1.0  0.27355  0.98518  0.86513  1.0000
  H   H1996     1.0  0.48675  0.50285  0.68307  1.0000
  H   H1997     1.0  0.27999  0.97486  0.90267  1.0000
  H   H1998     1.0  0.41846  0.54276  0.66781  1.0000
  H   H1999     1.0  0.29649  0.62148  0.96527  1.0000
  H   H2000     1.0  0.49784  0.53417  0.71720  1.0000
  C   C1121     1.0  0.50731  0.60611  0.76634  1.0000
  H   H2001     1.0  0.45160  0.78371  0.68310  1.0000
  C   C1122     1.0  0.29064  0.89226  0.94781  1.0000
  H   H2002     1.0  0.27890  0.61820  0.75231  1.0000
  C   C1123     1.0  0.50502  0.69645  0.78427  1.0000
  C   C1124     1.0  0.39280  0.78798  0.68289  1.0000
  H   H2003     1.0  0.46768  0.50290  0.67181  1.0000
  H   H2004     1.0  0.27462  0.65055  0.97569  1.0000
  C   C1125     1.0  0.27155  0.74190  0.83608  1.0000
  N   N64       1.0  0.46709  0.54849  0.70253  1.0000
  H   H2005     1.0  0.39494  0.77858  0.69873  1.0000
  H   H2006     1.0  0.47700  0.68997  0.94539  1.0000
  C   C1126     1.0  0.29588  0.80270  0.72113  1.0000
  H   H2007     1.0  0.50216  0.71458  0.79529  1.0000
  H   H2008     1.0  0.50099  0.62731  0.84840  1.0000
  H   H2009     1.0  0.50783  0.92303  0.75142  1.0000
  C   C1127     1.0  0.50607  0.72182  0.93310  1.0000
  H   H2010     1.0  0.45483  0.58015  0.68352  1.0000
  H   H2011     1.0  0.47489  0.69632  0.99358  1.0000
  C   C1128     1.0  0.51098  0.75518  0.90146  1.0000
  H   H2012     1.0  0.49347  0.67879  0.90888  1.0000
  C   C1129     1.0  0.40667  0.68827  0.67686  1.0000
  H   H2013     1.0  0.28214  0.70855  0.81715  1.0000
  H   H2014     1.0  0.28157  0.68330  0.96338  1.0000
  C   C1130     1.0  0.48295  0.56116  0.69676  1.0000
  C   C1131     1.0  0.44340  0.77046  0.69290  1.0000
  H   H2015     1.0  0.49269  0.95095  0.75100  1.0000
  H   H2016     1.0  0.29893  0.68432  0.92566  1.0000
  H   H2017     1.0  0.48827  0.71139  0.76133  1.0000
  H   H2018     1.0  0.44565  0.79831  0.72051  1.0000
  H   H2019     1.0  0.28211  0.56539  0.98875  1.0000
  H   H2020     1.0  0.50631  0.66521  0.81993  1.0000
  H   H2021     1.0  0.26829  0.93524  0.88256  1.0000
  H   H2022     1.0  0.29022  0.64692  0.76419  1.0000
  H   H2023     1.0  0.51552  0.55842  0.69081  1.0000
  H   H2024     1.0  0.49735  0.67730  0.78802  1.0000
  H   H2025     1.0  0.30825  0.68282  0.97796  1.0000
  C   C1132     1.0  0.42592  0.77773  0.68908  1.0000
  H   H2026     1.0  0.49264  0.56973  0.72782  1.0000
  H   H2027     1.0  0.27964  0.67004  0.79765  1.0000
  H   H2028     1.0  0.28548  0.76259  0.71093  1.0000
  H   H2029     1.0  0.51080  0.64094  0.89261  1.0000
  H   H2030     1.0  0.50746  0.72749  0.75807  1.0000
  H   H2031     1.0  0.48799  0.77616  0.98922  1.0000
  H   H2032     1.0  0.28250  0.68858  0.88322  1.0000
  H   H2033     1.0  0.50404  0.68984  0.75032  1.0000
  H   H2034     1.0  0.51250  0.54031  0.85377  1.0000
  N   N65       1.0  0.51032  0.69477  0.94562  1.0000
  C   C1133     1.0  0.50102  0.70694  0.76215  1.0000
  C   C1134     1.0  0.37550  0.78318  0.67835  1.0000
  H   H2035     1.0  0.27484  0.69613  0.84245  1.0000
  H   H2036     1.0  0.27429  0.73300  0.68904  1.0000
  C   C1135     1.0  0.29062  0.69648  0.89538  1.0000
  H   H2037     1.0  0.28251  0.58222  0.90182  1.0000
  H   H2038     1.0  0.51542  0.71332  0.82455  1.0000
  Fe  Fe127     1.0  0.33589  0.69046  0.67244  1.0000
  H   H2039     1.0  0.27748  0.84475  0.69630  1.0000
  H   H2040     1.0  0.51389  0.58917  0.95262  1.0000
  C   C1136     1.0  0.51545  0.96619  0.78047  1.0000
  N   N66       1.0  0.27418  0.79748  0.69340  1.0000
  C   C1137     1.0  0.49654  0.76280  0.99716  1.0000
  C   C1138     1.0  0.50498  0.94580  0.74634  1.0000
  C   C1139     1.0  0.26922  0.77683  0.67619  1.0000
  C   C1140     1.0  0.30643  0.65884  0.98047  1.0000
  C   C1141     1.0  0.51282  0.61826  0.84494  1.0000
  H   H2041     1.0  0.51361  0.64779  0.94191  1.0000
  C   C1142     1.0  0.27221  0.71003  0.82860  1.0000
  H   H2042     1.0  0.44366  0.82762  0.67327  1.0000
  C   C1143     1.0  0.27414  0.58221  0.99441  1.0000
  C   C1144     1.0  0.51147  0.66758  0.93209  1.0000
  H   H2043     1.0  0.27035  0.56336  0.92135  1.0000
  H   H2044     1.0  0.45626  0.50676  0.71033  1.0000
  C   C1145     1.0  0.26709  0.99598  0.87834  1.0000
  H   H2045     1.0  0.26975  0.75704  0.82260  1.0000
  H   H2046     1.0  0.27061  0.87716  0.89261  1.0000
  H   H2047     1.0  0.29167  0.82737  0.67996  1.0000
  Fe  Fe128     1.0  0.30966  0.64457  0.66820  1.0000
  C   C1146     1.0  0.42998  0.55410  0.66766  1.0000
  C   C1147     1.0  0.26749  0.66685  0.79224  1.0000
  C   C1148     1.0  0.47420  0.49786  0.68624  1.0000
  N   N67       1.0  0.42074  0.77994  0.66651  1.0000
  C   C1149     1.0  0.51619  0.96789  0.75603  1.0000
  C   C1150     1.0  0.26756  0.97695  0.89820  1.0000
  H   H2048     1.0  0.51578  0.54778  0.92530  1.0000
  H   H2049     1.0  0.26849  0.87716  0.93723  1.0000
  H   H2050     1.0  0.26766  0.90809  0.95513  1.0000
  C   C1151     1.0  0.40344  0.77279  0.66601  1.0000
  Fe  Fe129     1.0  0.72341  0.33128  0.33057  1.0000
  S   S257      1.0  0.60854  0.31277  0.30233  1.0000
  Fe  Fe130     1.0  0.54997  0.31361  0.31616  1.0000
  C   C1152     1.0  0.76226  0.36796  0.08427  1.0000
  H   H2051     1.0  0.51807  0.39122  0.10198  1.0000
  C   C1153     1.0  0.76079  0.25724  0.10885  1.0000
  C   C1154     1.0  0.76247  0.26942  0.08646  1.0000
  S   S258      1.0  0.56701  0.27693  0.30929  1.0000
  Fe  Fe131     1.0  0.72688  0.28029  0.29881  1.0000
  C   C1155     1.0  0.51819  0.28153  0.08943  1.0000
  S   S259      1.0  0.73402  0.26568  0.26544  1.0000
  C   C1156     1.0  0.75287  0.23713  0.23628  1.0000
  H   H2052     1.0  0.75684  0.41055  0.07015  1.0000
  C   C1157     1.0  0.55076  0.42971  0.29724  1.0000
  S   S260      1.0  0.70808  0.31463  0.30474  1.0000
  H   H2053     1.0  0.57002  0.29262  0.04797  1.0000
  C   C1158     1.0  0.52237  0.33448  0.08551  1.0000
  H   H2054     1.0  0.68483  0.36561  0.32010  1.0000
  N   N68       1.0  0.51795  0.30678  0.07390  1.0000
  H   H2055     1.0  0.76213  0.41198  0.09735  1.0000
  C   C1159     1.0  0.51651  0.37294  0.11349  1.0000
  C   C1160     1.0  0.52833  0.23688  0.01558  1.0000
  H   H2056     1.0  0.52281  0.24614  0.06612  1.0000
  C   C1161     1.0  0.62623  0.29952  0.31264  1.0000
  C   C1162     1.0  0.63988  0.29979  0.29992  1.0000
  C   C1163     1.0  0.65437  0.29128  0.30814  1.0000
  H   H2057     1.0  0.73952  0.16952  0.31884  1.0000
  H   H2058     1.0  0.54367  0.36655  0.27530  1.0000
  H   H2059     1.0  0.75186  0.11735  0.32663  1.0000
  H   H2060     1.0  0.63926  0.30687  0.28370  1.0000
  H   H2061     1.0  0.66483  0.29165  0.29825  1.0000
  C   C1164     1.0  0.54490  0.41498  0.31803  1.0000
  H   H2062     1.0  0.55465  0.27229  0.03581  1.0000
  C   C1165     1.0  0.75209  0.25036  0.25626  1.0000
  Fe  Fe132     1.0  0.69800  0.28356  0.32905  1.0000
  H   H2063     1.0  0.73576  0.33701  0.03316  1.0000
  H   H2064     1.0  0.67610  0.46564  0.33190  1.0000
  H   H2065     1.0  0.53905  0.23198  0.02360  1.0000
  C   C1166     1.0  0.64551  0.37186  0.33130  1.0000
  H   H2066     1.0  0.75426  0.31931  0.26258  1.0000
  H   H2067     1.0  0.53498  0.40059  0.24711  1.0000
  H   H2068     1.0  0.58726  0.17323  0.32238  1.0000
  H   H2069     1.0  0.75906  0.25579  0.16373  1.0000
  C   C1167     1.0  0.75618  0.38452  0.00365  1.0000
  H   H2070     1.0  0.51812  0.20452  0.09026  1.0000
  C   C1168     1.0  0.54703  0.29924  0.06240  1.0000
  H   H2071     1.0  0.75335  0.36177  0.05335  1.0000
  C   C1169     1.0  0.67211  0.36174  0.31844  1.0000
  H   H2072     1.0  0.54290  0.42459  0.28413  1.0000
  H   H2073     1.0  0.76135  0.35857  0.10038  1.0000
  C   C1170     1.0  0.65529  0.28283  0.32924  1.0000
  H   H2074     1.0  0.52913  0.32209  0.04508  1.0000
  C   C1171     1.0  0.59309  0.15256  0.32740  1.0000
  C   C1172     1.0  0.74394  0.31842  0.03011  1.0000
  C   C1173     1.0  0.74767  0.30245  0.05099  1.0000
  H   H2075     1.0  0.73632  0.29902  0.05962  1.0000
  C   C1174     1.0  0.74816  0.16941  0.30554  1.0000
  H   H2076     1.0  0.74059  0.34851  0.07380  1.0000
  H   H2077     1.0  0.55148  0.45396  0.29878  1.0000
  H   H2078     1.0  0.75184  0.28004  0.04695  1.0000
  C   C1175     1.0  0.74201  0.19088  0.28852  1.0000
  H   H2079     1.0  0.61590  0.17129  0.32987  1.0000
  H   H2080     1.0  0.59663  0.14003  0.31312  1.0000
  C   C1176     1.0  0.51700  0.41160  0.31079  1.0000
  H   H2081     1.0  0.57110  0.42961  0.27619  1.0000
  C   C1177     1.0  0.72520  0.18339  0.28286  1.0000
  H   H2082     1.0  0.76510  0.30272  0.18126  1.0000
  C   C1178     1.0  0.52971  0.30290  0.05604  1.0000
  H   H2083     1.0  0.55644  0.31146  0.03132  1.0000
  H   H2084     1.0  0.72540  0.28795  0.02147  1.0000
  H   H2085     1.0  0.74307  0.39864  0.09048  1.0000
  H   H2086     1.0  0.74755  0.14699  0.29861  1.0000
  C   C1179     1.0  0.68276  0.41922  0.33160  1.0000
  C   C1180     1.0  0.75692  0.34052  0.25451  1.0000
  H   H2087     1.0  0.74787  0.40007  0.01025  1.0000
  C   C1181     1.0  0.52700  0.38406  0.25333  1.0000
  S   S261      1.0  0.71519  0.24773  0.32091  1.0000
  H   H2088     1.0  0.74785  0.30658  0.09453  1.0000
  H   H2089     1.0  0.74921  0.18958  0.27385  1.0000
  H   H2090     1.0  0.74202  0.21397  0.29407  1.0000
  C   C1182     1.0  0.56711  0.41872  0.29104  1.0000
  C   C1183     1.0  0.73624  0.29778  0.01448  1.0000
  H   H2091     1.0  0.67106  0.33743  0.31951  1.0000
  H   H2092     1.0  0.74445  0.27997  0.00967  1.0000
  H   H2093     1.0  0.52031  0.16815  0.13956  1.0000
  N   N69       1.0  0.52878  0.42376  0.32580  1.0000
  H   H2094     1.0  0.75341  0.21472  0.32669  1.0000
  Fe  Fe133     1.0  0.58559  0.30776  0.32067  1.0000
  H   H2095     1.0  0.76302  0.32040  0.21562  1.0000
  H   H2096     1.0  0.68462  0.41795  0.31430  1.0000
  H   H2097     1.0  0.57558  0.42393  0.30350  1.0000
  H   H2098     1.0  0.72451  0.16081  0.27632  1.0000
  H   H2099     1.0  0.71730  0.18509  0.29691  1.0000
  H   H2100     1.0  0.72110  0.19922  0.27079  1.0000
  H   H2101     1.0  0.74751  0.34545  0.24325  1.0000
  S   S262      1.0  0.52675  0.32080  0.29944  1.0000
  H   H2102     1.0  0.56701  0.39456  0.28842  1.0000
  H   H2103     1.0  0.55141  0.31949  0.06996  1.0000
  H   H2104     1.0  0.64927  0.21245  0.33021  1.0000
  H   H2105     1.0  0.54838  0.28038  0.07335  1.0000
  C   C1184     1.0  0.66758  0.37083  0.29581  1.0000
  H   H2106     1.0  0.75473  0.32742  0.02268  1.0000
  H   H2107     1.0  0.65797  0.42173  0.32794  1.0000
  H   H2108     1.0  0.53365  0.33145  0.09365  1.0000
  C   C1185     1.0  0.67997  0.36144  0.27954  1.0000
  C   C1186     1.0  0.55762  0.29360  0.04317  1.0000
  H   H2109     1.0  0.76410  0.23358  0.10904  1.0000
  H   H2110     1.0  0.75699  0.35811  0.26659  1.0000
  H   H2111     1.0  0.75417  0.25701  0.07672  1.0000
  H   H2112     1.0  0.54532  0.39082  0.31530  1.0000
  C   C1187     1.0  0.53198  0.36478  0.26932  1.0000
  H   H2113     1.0  0.52686  0.28366  0.04619  1.0000
  C   C1188     1.0  0.75309  0.34904  0.06839  1.0000
  H   H2114     1.0  0.52929  0.28177  0.09826  1.0000
  H   H2115     1.0  0.68115  0.33709  0.27949  1.0000
  H   H2116     1.0  0.65644  0.35994  0.29157  1.0000
  H   H2117     1.0  0.66592  0.39498  0.29454  1.0000
  S   S263      1.0  0.74291  0.29897  0.32296  1.0000
  H   H2118     1.0  0.64309  0.34830  0.32791  1.0000
  H   H2119     1.0  0.52698  0.46627  0.31044  1.0000
  H   H2120     1.0  0.52023  0.25434  0.30887  1.0000
  H   H2121     1.0  0.76170  0.27357  0.19980  1.0000
  H   H2122     1.0  0.61561  0.39698  0.32750  1.0000
  H   H2123     1.0  0.74242  0.23598  0.22702  1.0000
  H   H2124     1.0  0.67642  0.36863  0.26363  1.0000
  H   H2125     1.0  0.69147  0.37160  0.28294  1.0000
  H   H2126     1.0  0.52779  0.36846  0.12122  1.0000
  N   N70       1.0  0.75910  0.31808  0.06486  1.0000
  H   H2127     1.0  0.74853  0.25929  0.11479  1.0000
  C   C1189     1.0  0.52056  0.22675  0.09658  1.0000
  S   S264      1.0  0.56879  0.34581  0.32493  1.0000
  C   C1190     1.0  0.52172  0.34361  0.27773  1.0000
  H   H2128     1.0  0.64234  0.38422  0.31686  1.0000
  C   C1191     1.0  0.75562  0.39915  0.08557  1.0000
  H   H2129     1.0  0.53327  0.22827  0.09967  1.0000
  H   H2130     1.0  0.69686  0.45889  0.33139  1.0000
  H   H2131     1.0  0.52426  0.35302  0.07417  1.0000
  C   C1192     1.0  0.75926  0.30297  0.08609  1.0000
  N   N71       1.0  0.76437  0.17556  0.31351  1.0000
  C   C1193     1.0  0.76449  0.12219  0.32856  1.0000
  H   H2132     1.0  0.51926  0.38790  0.30773  1.0000
  H   H2133     1.0  0.51832  0.42241  0.29512  1.0000
  C   C1194     1.0  0.52699  0.45676  0.32661  1.0000
  C   C1195     1.0  0.76504  0.20743  0.32031  1.0000
  H   H2134     1.0  0.55373  0.41921  0.33022  1.0000
  H   H2135     1.0  0.76539  0.26248  0.28314  1.0000
  C   C1196     1.0  0.76571  0.25173  0.26800  1.0000
  H   H2136     1.0  0.73307  0.31030  0.00015  1.0000
  S   S265      1.0  0.58398  0.29208  0.35418  1.0000
  H   H2137     1.0  0.69634  0.34168  0.38930  1.0000
  S   S266      1.0  0.56307  0.35406  0.38770  1.0000
  C   C1197     1.0  0.51974  0.14082  0.38339  1.0000
  S   S267      1.0  0.71243  0.30187  0.35503  1.0000
  H   H2138     1.0  0.52219  0.28502  0.38106  1.0000
  C   C1198     1.0  0.67603  0.49529  0.39218  1.0000
  S   S268      1.0  0.74143  0.24080  0.37103  1.0000
  Fe  Fe134     1.0  0.59042  0.03381  0.43411  1.0000
  S   S269      1.0  0.57924  0.05729  0.40729  1.0000
  H   H2139     1.0  0.54148  0.35698  0.53155  1.0000
  Fe  Fe135     1.0  0.55875  0.02741  0.45876  1.0000
  S   S270      1.0  0.54544  0.05066  0.43324  1.0000
  H   H2140     1.0  0.60862  0.38801  0.35369  1.0000
  Fe  Fe136     1.0  0.56026  0.02334  0.41088  1.0000
  H   H2141     1.0  0.62601  0.11340  0.41567  1.0000
  Fe  Fe137     1.0  0.56577  0.08265  0.43171  1.0000
  S   S271      1.0  0.56464  0.13298  0.43091  1.0000
  H   H2142     1.0  0.53093  0.11399  0.62180  1.0000
  S   S272      1.0  0.57825  0.06125  0.45880  1.0000
  Fe  Fe138     1.0  0.72093  0.01636  0.42390  1.0000
  S   S273      1.0  0.71510  0.03447  0.45609  1.0000
  S   S274      1.0  0.71626  0.46928  0.41077  1.0000
  Fe  Fe139     1.0  0.72703  0.07799  0.40667  1.0000
  S   S275      1.0  0.72203  0.10026  0.43742  1.0000
  S   S276      1.0  0.73090  0.10290  0.37620  1.0000
  Fe  Fe140     1.0  0.73622  0.06390  0.45166  1.0000
  H   H2143     1.0  0.60686  0.09708  0.41587  1.0000
  Fe  Fe141     1.0  0.70143  0.06923  0.43949  1.0000
  H   H2144     1.0  0.67740  0.43720  0.44197  1.0000
  S   S277      1.0  0.74289  0.04352  0.42039  1.0000
  S   S278      1.0  0.70559  0.04918  0.40778  1.0000
  H   H2145     1.0  0.64761  0.00782  0.41809  1.0000
  N   N72       1.0  0.61572  0.18412  0.37515  1.0000
  C   C1199     1.0  0.62118  0.15577  0.38515  1.0000
  C   C1200     1.0  0.51757  0.99843  0.48814  1.0000
  H   H2146     1.0  0.68771  0.39518  0.42194  1.0000
  H   H2147     1.0  0.71335  0.00094  0.49947  1.0000
  C   C1201     1.0  0.68429  0.34024  0.38325  1.0000
  Fe  Fe142     1.0  0.56583  0.32775  0.35770  1.0000
  H   H2148     1.0  0.64939  0.17053  0.36835  1.0000
  C   C1202     1.0  0.53374  0.31840  0.54815  1.0000
  C   C1203     1.0  0.63248  0.03843  0.43445  1.0000
  C   C1204     1.0  0.63192  0.06442  0.44615  1.0000
  C   C1205     1.0  0.64588  0.07931  0.45086  1.0000
  C   C1206     1.0  0.66047  0.06839  0.44391  1.0000
  C   C1207     1.0  0.66099  0.04266  0.43194  1.0000
  C   C1208     1.0  0.64706  0.02779  0.42725  1.0000
  H   H2149     1.0  0.62076  0.07270  0.45190  1.0000
  H   H2150     1.0  0.53075  0.17791  0.39733  1.0000
  H   H2151     1.0  0.67214  0.03401  0.42649  1.0000
  H   H2152     1.0  0.54530  0.07827  0.52179  1.0000
  C   C1209     1.0  0.72316  0.40549  0.35471  1.0000
  C   C1210     1.0  0.71964  0.39497  0.37497  1.0000
  C   C1211     1.0  0.71754  0.41482  0.39184  1.0000
  C   C1212     1.0  0.71904  0.44544  0.38877  1.0000
  C   C1213     1.0  0.72252  0.45598  0.36850  1.0000
  C   C1214     1.0  0.72459  0.43611  0.35163  1.0000
  H   H2153     1.0  0.71874  0.37153  0.37769  1.0000
  H   H2154     1.0  0.71504  0.40636  0.40747  1.0000
  H   H2155     1.0  0.72373  0.47942  0.36584  1.0000
  H   H2156     1.0  0.54859  0.28091  0.39681  1.0000
  C   C1215     1.0  0.73715  0.20287  0.37339  1.0000
  C   C1216     1.0  0.74221  0.18707  0.39101  1.0000
  C   C1217     1.0  0.73960  0.15653  0.39268  1.0000
  C   C1218     1.0  0.73218  0.14158  0.37650  1.0000
  C   C1219     1.0  0.72676  0.15748  0.35922  1.0000
  C   C1220     1.0  0.72911  0.18802  0.35776  1.0000
  H   H2157     1.0  0.74840  0.19842  0.40322  1.0000
  H   H2158     1.0  0.74392  0.14438  0.40602  1.0000
  H   H2159     1.0  0.76018  0.12612  0.46654  1.0000
  H   H2160     1.0  0.51671  0.43962  0.50367  1.0000
  C   C1221     1.0  0.56261  0.19205  0.37196  1.0000
  C   C1222     1.0  0.56478  0.20427  0.39182  1.0000
  C   C1223     1.0  0.56537  0.18588  0.40971  1.0000
  C   C1224     1.0  0.56404  0.15511  0.40790  1.0000
  C   C1225     1.0  0.56200  0.14292  0.38802  1.0000
  C   C1226     1.0  0.56109  0.16134  0.37021  1.0000
  H   H2161     1.0  0.56586  0.22786  0.39343  1.0000
  H   H2162     1.0  0.56688  0.19550  0.42506  1.0000
  H   H2163     1.0  0.56085  0.11931  0.38642  1.0000
  H   H2164     1.0  0.58460  0.13901  0.33672  1.0000
  C   C1227     1.0  0.56439  0.39291  0.38701  1.0000
  C   C1228     1.0  0.56025  0.40912  0.40504  1.0000
  C   C1229     1.0  0.56080  0.44012  0.40478  1.0000
  C   C1230     1.0  0.56547  0.45509  0.38644  1.0000
  C   C1231     1.0  0.56986  0.43883  0.36853  1.0000
  C   C1232     1.0  0.56934  0.40788  0.36880  1.0000
  H   H2165     1.0  0.55648  0.39770  0.41923  1.0000
  H   H2166     1.0  0.55738  0.45241  0.41867  1.0000
  H   H2167     1.0  0.57372  0.45026  0.35439  1.0000
  H   H2168     1.0  0.57283  0.39562  0.35497  1.0000
  S   S279      1.0  0.57217  0.99819  0.43617  1.0000
  H   H2169     1.0  0.73628  0.02655  0.53126  1.0000
  H   H2170     1.0  0.53060  0.44078  0.53386  1.0000
  H   H2171     1.0  0.74938  0.23908  0.53113  1.0000
  C   C1233     1.0  0.75721  0.22705  0.54186  1.0000
  H   H2172     1.0  0.53760  0.40866  0.54681  1.0000
  H   H2173     1.0  0.71535  0.03160  0.53119  1.0000
  C   C1234     1.0  0.66298  0.48777  0.46179  1.0000
  H   H2174     1.0  0.53026  0.37767  0.38338  1.0000
  C   C1235     1.0  0.60405  0.23492  0.38603  1.0000
  C   C1236     1.0  0.53551  0.43256  0.48128  1.0000
  C   C1237     1.0  0.59939  0.25308  0.40535  1.0000
  H   H2175     1.0  0.53048  0.19121  0.36045  1.0000
  H   H2176     1.0  0.75891  0.10922  0.64132  1.0000
  H   H2177     1.0  0.72175  0.15723  0.47881  1.0000
  H   H2178     1.0  0.63886  0.16470  0.34466  1.0000
  H   H2179     1.0  0.52645  0.02406  0.34734  1.0000
  C   C1238     1.0  0.52431  0.39342  0.50630  1.0000
  H   H2180     1.0  0.53840  0.23586  0.38086  1.0000
  H   H2181     1.0  0.59895  0.19991  0.35270  1.0000
  H   H2182     1.0  0.74238  0.31541  0.50195  1.0000
  C   C1239     1.0  0.68274  0.36031  0.36402  1.0000
  H   H2183     1.0  0.65169  0.48705  0.38932  1.0000
  H   H2184     1.0  0.75376  0.23308  0.55812  1.0000
  C   C1240     1.0  0.67590  0.40384  0.41842  1.0000
  H   H2185     1.0  0.62726  0.49509  0.39948  1.0000
  C   C1241     1.0  0.63956  0.48825  0.42918  1.0000
  C   C1242     1.0  0.75398  0.19419  0.53915  1.0000
  H   H2186     1.0  0.60954  0.25601  0.41573  1.0000
  H   H2187     1.0  0.59531  0.27518  0.40031  1.0000
  H   H2188     1.0  0.58972  0.24220  0.41439  1.0000
  H   H2189     1.0  0.61737  0.20497  0.40553  1.0000
  C   C1243     1.0  0.63364  0.38153  0.34877  1.0000
  H   H2190     1.0  0.66344  0.41607  0.35430  1.0000
  H   H2191     1.0  0.69535  0.17360  0.46912  1.0000
  H   H2192     1.0  0.67308  0.49107  0.49270  1.0000
  C   C1244     1.0  0.61036  0.48263  0.42301  1.0000
  S   S280      1.0  0.61544  0.01789  0.42899  1.0000
  H   H2193     1.0  0.55924  0.15169  0.35495  1.0000
  H   H2194     1.0  0.52431  0.42415  0.58024  1.0000
  S   S281      1.0  0.54987  0.00763  0.49029  1.0000
  H   H2195     1.0  0.76583  0.99849  0.43353  1.0000
  H   H2196     1.0  0.60539  0.01615  0.36396  1.0000
  H   H2197     1.0  0.64538  0.09902  0.46030  1.0000
  S   S282      1.0  0.55380  0.00049  0.38077  1.0000
  H   H2198     1.0  0.59815  0.19302  0.39944  1.0000
  H   H2199     1.0  0.72233  0.19452  0.46888  1.0000
  H   H2200     1.0  0.52614  0.08220  0.55169  1.0000
  C   C1245     1.0  0.52605  0.37743  0.34964  1.0000
  C   C1246     1.0  0.60892  0.20320  0.39248  1.0000
  H   H2201     1.0  0.55430  0.07215  0.54682  1.0000
  H   H2202     1.0  0.67410  0.40187  0.40126  1.0000
  H   H2203     1.0  0.53611  0.08161  0.59157  1.0000
  C   C1247     1.0  0.60866  0.13747  0.39757  1.0000
  S   S283      1.0  0.67322  0.27406  0.34101  1.0000
  C   C1248     1.0  0.72026  0.17119  0.46460  1.0000
  H   H2204     1.0  0.62522  0.21561  0.35244  1.0000
  H   H2205     1.0  0.51727  0.12194  0.60132  1.0000
  H   H2206     1.0  0.70718  0.22565  0.40440  1.0000
  H   H2207     1.0  0.64221  0.27520  0.35810  1.0000
  S   S284      1.0  0.75302  0.06519  0.47942  1.0000
  C   C1249     1.0  0.66691  0.49541  0.43847  1.0000
  C   C1250     1.0  0.69474  0.23096  0.37580  1.0000
  Fe  Fe143     1.0  0.73018  0.26797  0.34540  1.0000
  C   C1251     1.0  0.62680  0.47993  0.41323  1.0000
  H   H2208     1.0  0.67127  0.19526  0.44676  1.0000
  H   H2209     1.0  0.76020  0.27346  0.50873  1.0000
  H   H2210     1.0  0.68878  0.15681  0.37828  1.0000
  H   H2211     1.0  0.54025  0.03991  0.57313  1.0000
  H   H2212     1.0  0.59378  0.23427  0.37568  1.0000
  C   C1252     1.0  0.67481  0.43606  0.42497  1.0000
  H   H2213     1.0  0.72725  0.04622  0.50990  1.0000
  H   H2214     1.0  0.74719  0.33173  0.52677  1.0000
  H   H2215     1.0  0.53573  0.41904  0.35816  1.0000
  H   H2216     1.0  0.68604  0.38286  0.36883  1.0000
  C   C1253     1.0  0.65830  0.44880  0.42076  1.0000
  H   H2217     1.0  0.62835  0.45700  0.40763  1.0000
  C   C1254     1.0  0.68457  0.20287  0.40799  1.0000
  H   H2218     1.0  0.65972  0.21788  0.35430  1.0000
  H   H2219     1.0  0.67056  0.14898  0.39134  1.0000
  H   H2220     1.0  0.69967  0.20964  0.44218  1.0000
  C   C1255     1.0  0.65750  0.16621  0.42738  1.0000
  Fe  Fe144     1.0  0.56435  0.26344  0.34330  1.0000
  C   C1256     1.0  0.64301  0.18175  0.35557  1.0000
  C   C1257     1.0  0.52661  0.44005  0.56721  1.0000
  H   H2221     1.0  0.61358  0.35892  0.33563  1.0000
  N   N73       1.0  0.68729  0.17791  0.42320  1.0000
  H   H2222     1.0  0.52969  0.24102  0.34675  1.0000
  H   H2223     1.0  0.76403  0.11188  0.36213  1.0000
  H   H2224     1.0  0.68721  0.48461  0.47177  1.0000
  C   C1258     1.0  0.68451  0.11113  0.38461  1.0000
  H   H2225     1.0  0.59262  0.16910  0.36746  1.0000
  H   H2226     1.0  0.61676  0.29003  0.34353  1.0000
  H   H2227     1.0  0.72915  0.16436  0.45257  1.0000
  H   H2228     1.0  0.69700  0.10471  0.38307  1.0000
  H   H2229     1.0  0.65026  0.43713  0.43205  1.0000
  H   H2230     1.0  0.52149  0.05315  0.53341  1.0000
  H   H2231     1.0  0.68770  0.21793  0.36471  1.0000
  S   S285      1.0  0.67782  0.08724  0.45053  1.0000
  H   H2232     1.0  0.66196  0.33661  0.35498  1.0000
  H   H2233     1.0  0.53827  0.46731  0.35651  1.0000
  H   H2234     1.0  0.68039  0.22279  0.41660  1.0000
  C   C1259     1.0  0.52765  0.42410  0.54612  1.0000
  H   H2235     1.0  0.64224  0.19091  0.44890  1.0000
  H   H2236     1.0  0.53774  0.36830  0.34549  1.0000
  H   H2237     1.0  0.51714  0.45671  0.56716  1.0000
  H   H2238     1.0  0.72502  0.19987  0.34428  1.0000
  H   H2239     1.0  0.53955  0.26777  0.42109  1.0000
  H   H2240     1.0  0.52522  0.37493  0.49488  1.0000
  H   H2241     1.0  0.64610  0.15345  0.45710  1.0000
  C   C1260     1.0  0.52633  0.23772  0.38762  1.0000
  C   C1261     1.0  0.69918  0.21230  0.39472  1.0000
  H   H2242     1.0  0.67908  0.47230  0.38820  1.0000
  H   H2243     1.0  0.70185  0.14363  0.45299  1.0000
  H   H2244     1.0  0.68848  0.13042  0.42294  1.0000
  C   C1262     1.0  0.52626  0.41150  0.34771  1.0000
  C   C1263     1.0  0.68312  0.14340  0.39096  1.0000
  H   H2245     1.0  0.60406  0.14967  0.41145  1.0000
  H   H2246     1.0  0.54020  0.41516  0.47069  1.0000
  C   C1264     1.0  0.62940  0.20050  0.36501  1.0000
  C   C1265     1.0  0.52094  0.10509  0.61293  1.0000
  H   H2247     1.0  0.71206  0.18628  0.42694  1.0000
  H   H2248     1.0  0.53782  0.45152  0.57013  1.0000
  H   H2249     1.0  0.52937  0.13571  0.37198  1.0000
  C   C1266     1.0  0.64389  0.16794  0.44336  1.0000
  H   H2250     1.0  0.61361  0.24691  0.37760  1.0000
  H   H2251     1.0  0.53147  0.01553  0.55546  1.0000
  H   H2252     1.0  0.70395  0.14727  0.40884  1.0000
  H   H2253     1.0  0.53246  0.45205  0.47157  1.0000
  H   H2254     1.0  0.54516  0.31546  0.55589  1.0000
  H   H2255     1.0  0.66703  0.39038  0.42712  1.0000
  H   H2256     1.0  0.67509  0.19769  0.39700  1.0000
  H   H2257     1.0  0.70575  0.19286  0.38899  1.0000
  C   C1267     1.0  0.51975  0.17353  0.38892  1.0000
  H   H2258     1.0  0.52876  0.01659  0.60289  1.0000
  C   C1268     1.0  0.60308  0.17875  0.35948  1.0000
  H   H2259     1.0  0.67500  0.15685  0.44946  1.0000
  H   H2260     1.0  0.70552  0.23837  0.36733  1.0000
  H   H2261     1.0  0.68419  0.44813  0.41643  1.0000
  H   H2262     1.0  0.65872  0.36965  0.36943  1.0000
  C   C1269     1.0  0.72588  0.02750  0.52110  1.0000
  C   C1270     1.0  0.69114  0.14922  0.41225  1.0000
  H   H2263     1.0  0.65807  0.14307  0.42183  1.0000
  C   C1271     1.0  0.67312  0.17459  0.43765  1.0000
  H   H2264     1.0  0.68806  0.25074  0.38088  1.0000
  H   H2265     1.0  0.74147  0.18944  0.54281  1.0000
  C   C1272     1.0  0.70373  0.16723  0.45633  1.0000
  S   S286      1.0  0.56156  0.21389  0.34884  1.0000
  C   C1273     1.0  0.54583  0.06313  0.53551  1.0000
  C   C1274     1.0  0.76168  0.29420  0.51763  1.0000
  N   N74       1.0  0.65631  0.48179  0.42251  1.0000
  C   C1275     1.0  0.52582  0.07658  0.60191  1.0000
  H   H2266     1.0  0.67596  0.34678  0.39602  1.0000
  C   C1276     1.0  0.65485  0.20110  0.34363  1.0000
  C   C1277     1.0  0.61569  0.10885  0.40589  1.0000
  H   H2267     1.0  0.52937  0.06101  0.61438  1.0000
  C   C1278     1.0  0.70099  0.18653  0.43656  1.0000
  H   H2268     1.0  0.65467  0.18103  0.41413  1.0000
  H   H2269     1.0  0.73685  0.29690  0.52611  1.0000
  H   H2270     1.0  0.63291  0.16053  0.43603  1.0000
  H   H2271     1.0  0.53563  0.30451  0.41163  1.0000
  C   C1279     1.0  0.53929  0.47347  0.33963  1.0000
  H   H2272     1.0  0.53621  0.39552  0.51267  1.0000
  H   H2273     1.0  0.67896  0.10770  0.36920  1.0000
  H   H2274     1.0  0.63509  0.21504  0.37668  1.0000
  C   C1280     1.0  0.53775  0.28135  0.40678  1.0000
  H   H2275     1.0  0.68194  0.31699  0.37895  1.0000
  H   H2276     1.0  0.75661  0.18734  0.52270  1.0000
  C   C1281     1.0  0.51784  0.01216  0.59431  1.0000
  H   H2277     1.0  0.67857  0.09672  0.39651  1.0000
  H   H2278     1.0  0.54468  0.43940  0.49236  1.0000
  H   H2279     1.0  0.55010  0.04142  0.52984  1.0000
  H   H2280     1.0  0.65470  0.44128  0.40494  1.0000
  C   C1282     1.0  0.66574  0.36005  0.35627  1.0000
  H   H2281     1.0  0.60889  0.46769  0.43678  1.0000
  H   H2282     1.0  0.66067  0.46389  0.46385  1.0000
  H   H2283     1.0  0.63631  0.40402  0.35442  1.0000
  C   C1283     1.0  0.74606  0.31056  0.51824  1.0000
  H   H2284     1.0  0.63646  0.47658  0.44412  1.0000
  H   H2285     1.0  0.59872  0.13145  0.38752  1.0000
  H   H2286     1.0  0.73838  0.01014  0.48291  1.0000
  C   C1284     1.0  0.68544  0.45113  0.33797  1.0000
  H   H2287     1.0  0.72095  0.14602  0.34671  1.0000
  C   C1285     1.0  0.64159  0.28183  0.34179  1.0000
  H   H2288     1.0  0.60148  0.47669  0.41124  1.0000
  S   S287      1.0  0.54602  0.29784  0.34946  1.0000
  H   H2289     1.0  0.52430  0.31109  0.55930  1.0000
  H   H2290     1.0  0.52153  0.12750  0.39784  1.0000
  H   H2291     1.0  0.53216  0.36355  0.55699  1.0000
  C   C1286     1.0  0.52961  0.03683  0.56361  1.0000
  H   H2292     1.0  0.75748  0.28269  0.55039  1.0000
  C   C1287     1.0  0.66599  0.40865  0.33791  1.0000
  H   H2293     1.0  0.63073  0.16065  0.39622  1.0000
  H   H2294     1.0  0.76437  0.00531  0.65131  1.0000
  H   H2295     1.0  0.62643  0.14073  0.37328  1.0000
  C   C1288     1.0  0.52199  0.36781  0.37217  1.0000
  H   H2296     1.0  0.76126  0.18094  0.54994  1.0000
  H   H2297     1.0  0.76530  0.27396  0.58199  1.0000
  C   C1289     1.0  0.52068  0.00221  0.34637  1.0000
  N   N75       1.0  0.66266  0.37607  0.33594  1.0000
  C   C1290     1.0  0.52959  0.06016  0.54585  1.0000
  H   H2298     1.0  0.51809  0.01013  0.47329  1.0000
  H   H2299     1.0  0.68582  0.45270  0.35533  1.0000
  H   H2300     1.0  0.61258  0.13801  0.34517  1.0000
  C   C1291     1.0  0.72393  0.99862  0.50919  1.0000
  H   H2301     1.0  0.53362  0.30431  0.53392  1.0000
  C   C1292     1.0  0.53158  0.35077  0.54220  1.0000
  C   C1293     1.0  0.52095  0.42167  0.49336  1.0000
  C   C1294     1.0  0.76522  0.12210  0.48174  1.0000
  H   H2302     1.0  0.61924  0.09416  0.39271  1.0000
  H   H2303     1.0  0.51897  0.28894  0.64764  1.0000
  H   H2304     1.0  0.69116  0.35257  0.35179  1.0000
  C   C1295     1.0  0.51705  0.24087  0.35150  1.0000
  C   C1296     1.0  0.51897  0.19315  0.36890  1.0000
  C   C1297     1.0  0.52377  0.27001  0.39456  1.0000
  H   H2305     1.0  0.63387  0.36597  0.36228  1.0000
  H   H2306     1.0  0.75750  0.06098  0.65946  1.0000
  C   C1298     1.0  0.76307  0.09474  0.49157  1.0000
  H   H2307     1.0  0.67935  0.48972  0.43530  1.0000
  C   C1299     1.0  0.61687  0.38137  0.34084  1.0000
  H   H2308     1.0  0.52627  0.22496  0.40255  1.0000
  H   H2309     1.0  0.69192  0.40572  0.33892  1.0000
  H   H2310     1.0  0.72737  0.44454  0.33606  1.0000
  S   S288      1.0  0.56534  0.49396  0.38488  1.0000
  H   H2311     1.0  0.75891  0.16198  0.34538  1.0000
  H   H2312     1.0  0.76461  0.00231  0.47266  1.0000
  H   H2313     1.0  0.59054  0.00784  0.38358  1.0000
  H   H2314     1.0  0.66465  0.18744  0.33739  1.0000
  H   H2315     1.0  0.51812  0.49522  0.59637  1.0000
  H   H2316     1.0  0.52283  0.34349  0.37346  1.0000
  C   C1300     1.0  0.60749  0.15935  0.34036  1.0000
  C   C1301     1.0  0.59790  0.99837  0.37074  1.0000
  C   C1302     1.0  0.62713  0.29018  0.33356  1.0000
  H   H2317     1.0  0.55139  0.46876  0.33404  1.0000
  H   H2318     1.0  0.51731  0.36728  0.33929  1.0000
  C   C1303     1.0  0.67628  0.49658  0.47614  1.0000
  S   S289      1.0  0.72554  0.38154  0.33269  1.0000
  Fe  Fe145     1.0  0.55373  0.07658  0.80470  1.0000
  S   S290      1.0  0.54476  0.05589  0.83504  1.0000
  S   S291      1.0  0.54009  0.07827  0.77402  1.0000
  Fe  Fe146     1.0  0.58749  0.08008  0.82076  1.0000
  S   S292      1.0  0.58116  0.05969  0.85196  1.0000
  S   S293      1.0  0.61160  0.09793  0.81200  1.0000
  Fe  Fe147     1.0  0.56644  0.02772  0.83412  1.0000
  S   S294      1.0  0.54915  0.47972  0.85002  1.0000
  Fe  Fe148     1.0  0.56011  0.08937  0.85071  1.0000
  S   S295      1.0  0.55445  0.11264  0.88126  1.0000
  S   S296      1.0  0.57450  0.04603  0.80270  1.0000
  S   S297      1.0  0.56742  0.11219  0.82065  1.0000
  Fe  Fe149     1.0  0.72935  0.03164  0.80368  1.0000
  S   S298      1.0  0.74292  0.05381  0.82931  1.0000
  H   H2319     1.0  0.72019  0.41087  0.97846  1.0000
  Fe  Fe150     1.0  0.69770  0.03960  0.82800  1.0000
  S   S299      1.0  0.70891  0.06193  0.85519  1.0000
  S   S300      1.0  0.67256  0.02362  0.83132  1.0000
  Fe  Fe151     1.0  0.72303  0.08670  0.83083  1.0000
  S   S301      1.0  0.72616  0.13660  0.83219  1.0000
  Fe  Fe152     1.0  0.72763  0.02751  0.85184  1.0000
  H   H2320     1.0  0.57827  0.24362  0.85183  1.0000
  S   S302      1.0  0.71044  0.06660  0.80342  1.0000
  H   H2321     1.0  0.53511  0.01123  0.76526  1.0000
  Fe  Fe153     1.0  0.55671  0.27730  0.90963  1.0000
  S   S303      1.0  0.56798  0.25424  0.93639  1.0000
  S   S304      1.0  0.54628  0.25135  0.88296  1.0000
  Fe  Fe154     1.0  0.56555  0.33833  0.92569  1.0000
  S   S305      1.0  0.57738  0.31851  0.95400  1.0000
  S   S306      1.0  0.56954  0.38798  0.92097  1.0000
  Fe  Fe155     1.0  0.58776  0.28604  0.93115  1.0000
  S   S307      1.0  0.61199  0.26636  0.92612  1.0000
  Fe  Fe156     1.0  0.55634  0.28813  0.95694  1.0000
  H   H2322     1.0  0.53792  0.21636  0.96295  1.0000
  S   S308      1.0  0.57712  0.30714  0.90296  1.0000
  S   S309      1.0  0.54376  0.31015  0.93021  1.0000
  Fe  Fe157     1.0  0.69746  0.31404  0.94023  1.0000
  S   S310      1.0  0.69763  0.29753  0.90712  1.0000
  S   S311      1.0  0.67465  0.32680  0.95639  1.0000
  Fe  Fe158     1.0  0.73336  0.31483  0.94268  1.0000
  S   S312      1.0  0.73585  0.29847  0.90935  1.0000
  H   H2323     1.0  0.53279  0.14203  0.93802  1.0000
  Fe  Fe159     1.0  0.71681  0.33085  0.90207  1.0000
  S   S313      1.0  0.71710  0.35874  0.87246  1.0000
  Fe  Fe160     1.0  0.71648  0.26662  0.91751  1.0000
  S   S314      1.0  0.71661  0.21665  0.91359  1.0000
  S   S315      1.0  0.71563  0.34941  0.93466  1.0000
  S   S316      1.0  0.71505  0.28103  0.95140  1.0000
  H   H2324     1.0  0.66812  0.47181  0.87314  1.0000
  H   H2325     1.0  0.54548  0.17027  0.98203  1.0000
  C   C1304     1.0  0.68430  0.41141  0.94276  1.0000
  H   H2326     1.0  0.62838  0.15159  0.82309  1.0000
  C   C1305     1.0  0.62919  0.28412  0.93427  1.0000
  C   C1306     1.0  0.64376  0.27192  0.92854  1.0000
  C   C1307     1.0  0.65774  0.28489  0.93518  1.0000
  C   C1308     1.0  0.65727  0.31016  0.94765  1.0000
  C   C1309     1.0  0.64271  0.32247  0.95329  1.0000
  C   C1310     1.0  0.62870  0.30961  0.94651  1.0000
  H   H2327     1.0  0.64422  0.25214  0.91917  1.0000
  H   H2328     1.0  0.66886  0.27501  0.93095  1.0000
  H   H2329     1.0  0.64225  0.34194  0.96301  1.0000
  H   H2330     1.0  0.61753  0.31907  0.95109  1.0000
  C   C1311     1.0  0.71857  0.19500  0.89057  1.0000
  C   C1312     1.0  0.71855  0.16414  0.89258  1.0000
  C   C1313     1.0  0.72063  0.14598  0.87484  1.0000
  C   C1314     1.0  0.72289  0.15851  0.85489  1.0000
  C   C1315     1.0  0.72287  0.18937  0.85287  1.0000
  C   C1316     1.0  0.72064  0.20755  0.87060  1.0000
  H   H2331     1.0  0.71703  0.15422  0.90799  1.0000
  H   H2332     1.0  0.72085  0.12230  0.87664  1.0000
  H   H2333     1.0  0.72461  0.19924  0.83749  1.0000
  H   H2334     1.0  0.72059  0.23123  0.86881  1.0000
  C   C1317     1.0  0.71733  0.45946  0.87689  1.0000
  C   C1318     1.0  0.71681  0.44222  0.89523  1.0000
  C   C1319     1.0  0.71669  0.41136  0.89407  1.0000
  C   C1320     1.0  0.71666  0.39745  0.87453  1.0000
  C   C1321     1.0  0.71653  0.41467  0.85619  1.0000
  C   C1322     1.0  0.71701  0.44558  0.85733  1.0000
  H   H2335     1.0  0.71652  0.45287  0.91038  1.0000
  H   H2336     1.0  0.71665  0.39843  0.90827  1.0000
  H   H2337     1.0  0.71609  0.40408  0.84105  1.0000
  H   H2338     1.0  0.71712  0.45859  0.84310  1.0000
  H   H2339     1.0  0.61053  0.99839  0.87506  1.0000
  H   H2340     1.0  0.74682  0.33158  0.85498  1.0000
  H   H2341     1.0  0.61077  0.30985  0.88335  1.0000
  H   H2342     1.0  0.75044  0.07220  0.69658  1.0000
  C   C1323     1.0  0.52031  0.09712  0.74316  1.0000
  C   C1324     1.0  0.55590  0.45325  0.86852  1.0000
  C   C1325     1.0  0.54729  0.42714  0.87179  1.0000
  C   C1326     1.0  0.55171  0.40624  0.88707  1.0000
  C   C1327     1.0  0.56471  0.41141  0.89951  1.0000
  C   C1328     1.0  0.57345  0.43736  0.89605  1.0000
  C   C1329     1.0  0.56920  0.45796  0.88049  1.0000
  H   H2343     1.0  0.53702  0.42314  0.86257  1.0000
  H   H2344     1.0  0.54479  0.38654  0.88962  1.0000
  H   H2345     1.0  0.58351  0.44164  0.90560  1.0000
  H   H2346     1.0  0.57608  0.47771  0.87798  1.0000
  C   C1330     1.0  0.55292  0.15122  0.88055  1.0000
  C   C1331     1.0  0.56057  0.16785  0.89570  1.0000
  C   C1332     1.0  0.55882  0.19854  0.89630  1.0000
  C   C1333     1.0  0.54896  0.21280  0.88228  1.0000
  C   C1334     1.0  0.54104  0.19605  0.86739  1.0000
  C   C1335     1.0  0.54323  0.16540  0.86625  1.0000
  H   H2347     1.0  0.56789  0.15694  0.90700  1.0000
  H   H2348     1.0  0.56518  0.21102  0.90758  1.0000
  H   H2349     1.0  0.53324  0.20681  0.85662  1.0000
  H   H2350     1.0  0.53708  0.15263  0.85473  1.0000
  C   C1336     1.0  0.62838  0.07631  0.81642  1.0000
  C   C1337     1.0  0.62737  0.04950  0.82723  1.0000
  C   C1338     1.0  0.64104  0.03357  0.83153  1.0000
  C   C1339     1.0  0.65580  0.04428  0.82508  1.0000
  C   C1340     1.0  0.65682  0.07089  0.81402  1.0000
  C   C1341     1.0  0.64312  0.08681  0.80966  1.0000
  H   H2351     1.0  0.61606  0.04115  0.83239  1.0000
  H   H2352     1.0  0.57375  0.17460  0.97807  1.0000
  H   H2353     1.0  0.66813  0.07907  0.80870  1.0000
  H   H2354     1.0  0.64392  0.10729  0.80097  1.0000
  H   H2355     1.0  0.53042  0.21972  0.69417  1.0000
  H   H2356     1.0  0.64255  0.36412  0.91903  1.0000
  C   C1342     1.0  0.52782  0.22213  0.71125  1.0000
  C   C1343     1.0  0.76198  0.34455  0.97934  1.0000
  H   H2357     1.0  0.69978  0.07934  0.91803  1.0000
  H   H2358     1.0  0.53310  0.45369  0.91519  1.0000
  H   H2359     1.0  0.55324  0.23524  0.83378  1.0000
  H   H2360     1.0  0.54160  0.41810  0.94125  1.0000
  C   C1344     1.0  0.65878  0.33026  0.89058  1.0000
  C   C1345     1.0  0.64221  0.38302  0.90783  1.0000
  C   C1346     1.0  0.66231  0.30686  0.87399  1.0000
  H   H2361     1.0  0.75932  0.02304  0.92152  1.0000
  H   H2362     1.0  0.74011  0.23853  0.97339  1.0000
  H   H2363     1.0  0.74957  0.37531  0.88747  1.0000
  H   H2364     1.0  0.66683  0.32660  0.90371  1.0000
  C   C1347     1.0  0.65765  0.41519  0.88424  1.0000
  H   H2365     1.0  0.56256  0.23258  0.80804  1.0000
  H   H2366     1.0  0.66091  0.28464  0.88117  1.0000
  H   H2367     1.0  0.64456  0.17486  0.81506  1.0000
  C   C1348     1.0  0.74827  0.48034  0.92148  1.0000
  H   H2368     1.0  0.66339  0.45199  0.84945  1.0000
  C   C1349     1.0  0.59615  0.20334  0.86934  1.0000
  C   C1350     1.0  0.61000  0.19448  0.88326  1.0000
  C   C1351     1.0  0.60367  0.26965  0.86788  1.0000
  C   C1352     1.0  0.60414  0.18012  0.90374  1.0000
  C   C1353     1.0  0.61597  0.29304  0.87268  1.0000
  H   H2369     1.0  0.58790  0.21661  0.87922  1.0000
  H   H2370     1.0  0.58964  0.18268  0.86605  1.0000
  H   H2371     1.0  0.61709  0.21385  0.88768  1.0000
  H   H2372     1.0  0.61751  0.17817  0.87505  1.0000
  H   H2373     1.0  0.59972  0.25977  0.88305  1.0000
  H   H2374     1.0  0.59665  0.19571  0.91288  1.0000
  H   H2375     1.0  0.59735  0.15987  0.90043  1.0000
  H   H2376     1.0  0.61425  0.17406  0.91352  1.0000
  H   H2377     1.0  0.62605  0.28294  0.88076  1.0000
  H   H2378     1.0  0.62013  0.30416  0.85802  1.0000
  H   H2379     1.0  0.68422  0.39045  0.95183  1.0000
  H   H2380     1.0  0.63964  0.40248  0.91786  1.0000
  C   C1354     1.0  0.53309  0.49311  0.93559  1.0000
  H   H2381     1.0  0.71687  0.45812  0.76942  1.0000
  H   H2382     1.0  0.76346  0.00206  0.95797  1.0000
  H   H2383     1.0  0.73281  0.45629  0.80089  1.0000
  H   H2384     1.0  0.71104  0.42748  0.78589  1.0000
  H   H2385     1.0  0.52079  0.26044  0.68207  1.0000
  H   H2386     1.0  0.72277  0.42141  0.76217  1.0000
  H   H2387     1.0  0.67936  0.07092  0.92262  1.0000
  H   H2388     1.0  0.74768  0.23131  0.89942  1.0000
  H   H2389     1.0  0.58755  0.24553  0.82649  1.0000
  C   C1355     1.0  0.72121  0.43487  0.97522  1.0000
  C   C1356     1.0  0.62780  0.37934  0.89361  1.0000
  H   H2390     1.0  0.68233  0.38556  0.90480  1.0000
  N   N76       1.0  0.66348  0.12355  0.87185  1.0000
  C   C1357     1.0  0.67516  0.12374  0.85369  1.0000
  C   C1358     1.0  0.66812  0.09988  0.88726  1.0000
  C   C1359     1.0  0.64774  0.11477  0.86339  1.0000
  C   C1360     1.0  0.66187  0.15320  0.88244  1.0000
  C   C1361     1.0  0.67667  0.17304  0.88300  1.0000
  C   C1362     1.0  0.67079  0.14333  0.83467  1.0000
  C   C1363     1.0  0.63408  0.11188  0.87985  1.0000
  C   C1364     1.0  0.68407  0.10366  0.89802  1.0000
  C   C1365     1.0  0.68840  0.07593  0.91030  1.0000
  C   C1366     1.0  0.67363  0.20056  0.89624  1.0000
  C   C1367     1.0  0.68493  0.14928  0.82018  1.0000
  C   C1368     1.0  0.61829  0.10855  0.86925  1.0000
  H   H2391     1.0  0.67691  0.10096  0.84756  1.0000
  H   H2392     1.0  0.68692  0.13072  0.85878  1.0000
  H   H2393     1.0  0.65944  0.09819  0.90045  1.0000
  H   H2394     1.0  0.66814  0.07801  0.87929  1.0000
  H   H2395     1.0  0.64867  0.09339  0.85493  1.0000
  H   H2396     1.0  0.64381  0.13108  0.85157  1.0000
  H   H2397     1.0  0.65279  0.16674  0.87462  1.0000
  H   H2398     1.0  0.65752  0.15026  0.89896  1.0000
  H   H2399     1.0  0.68023  0.18059  0.86701  1.0000
  H   H2400     1.0  0.68672  0.16135  0.88964  1.0000
  H   H2401     1.0  0.66190  0.13202  0.82521  1.0000
  H   H2402     1.0  0.66582  0.16472  0.83977  1.0000
  H   H2403     1.0  0.63333  0.13146  0.89017  1.0000
  H   H2404     1.0  0.63562  0.09202  0.88981  1.0000
  H   H2405     1.0  0.69372  0.10784  0.88655  1.0000
  H   H2406     1.0  0.68340  0.12202  0.90945  1.0000
  H   H2407     1.0  0.52557  0.17458  0.71515  1.0000
  S   S317      1.0  0.54710  0.27080  0.98907  1.0000
  H   H2408     1.0  0.52409  0.07752  0.73491  1.0000
  H   H2409     1.0  0.67123  0.19447  0.91294  1.0000
  H   H2410     1.0  0.68412  0.21499  0.89561  1.0000
  H   H2411     1.0  0.66358  0.21326  0.89016  1.0000
  H   H2412     1.0  0.68120  0.16146  0.80597  1.0000
  H   H2413     1.0  0.69371  0.16285  0.82836  1.0000
  H   H2414     1.0  0.69046  0.12827  0.81509  1.0000
  H   H2415     1.0  0.61795  0.08772  0.86024  1.0000
  H   H2416     1.0  0.60872  0.10786  0.88134  1.0000
  H   H2417     1.0  0.61606  0.12725  0.85842  1.0000
  H   H2418     1.0  0.74874  0.03508  0.72352  1.0000
  H   H2419     1.0  0.52509  0.33991  0.72276  1.0000
  H   H2420     1.0  0.62570  0.39986  0.88458  1.0000
  H   H2421     1.0  0.76491  0.18754  0.93960  1.0000
  H   H2422     1.0  0.74439  0.08598  0.73683  1.0000
  C   C1369     1.0  0.74987  0.02184  0.93377  1.0000
  C   C1370     1.0  0.66092  0.36175  0.88138  1.0000
  H   H2423     1.0  0.53035  0.19396  0.73894  1.0000
  C   C1371     1.0  0.67053  0.38667  0.91259  1.0000
  C   C1372     1.0  0.74280  0.22017  0.96241  1.0000
  H   H2424     1.0  0.52297  0.10882  0.90927  1.0000
  H   H2425     1.0  0.52073  0.14793  0.97177  1.0000
  H   H2426     1.0  0.61312  0.25716  0.83745  1.0000
  H   H2427     1.0  0.75433  0.12898  0.87369  1.0000
  H   H2428     1.0  0.55204  0.15380  0.95775  1.0000
  S   S318      1.0  0.73679  0.00839  0.77293  1.0000
  H   H2429     1.0  0.63083  0.21882  0.82645  1.0000
  H   H2430     1.0  0.75261  0.06222  0.75643  1.0000
  H   H2431     1.0  0.76516  0.23808  0.95437  1.0000
  H   H2432     1.0  0.67454  0.30906  0.86787  1.0000
  H   H2433     1.0  0.62647  0.17683  0.80130  1.0000
  H   H2434     1.0  0.55206  0.46355  0.92482  1.0000
  H   H2435     1.0  0.71261  0.44124  0.96318  1.0000
  H   H2436     1.0  0.67317  0.36295  0.87507  1.0000
  H   H2437     1.0  0.65410  0.30885  0.86076  1.0000
  C   C1373     1.0  0.55020  0.17499  0.96598  1.0000
  H   H2438     1.0  0.75510  0.32287  0.82950  1.0000
  H   H2439     1.0  0.57911  0.19181  0.82028  1.0000
  H   H2440     1.0  0.73175  0.40472  0.80942  1.0000
  H   H2441     1.0  0.63101  0.19291  0.84783  1.0000
  H   H2442     1.0  0.68963  0.05680  0.89955  1.0000
  C   C1374     1.0  0.52520  0.16008  0.93233  1.0000
  C   C1375     1.0  0.75498  0.07332  0.74110  1.0000
  H   H2443     1.0  0.53532  0.23978  0.71758  1.0000
  H   H2444     1.0  0.68344  0.46045  0.85512  1.0000
  C   C1376     1.0  0.63166  0.17374  0.81703  1.0000
  H   H2445     1.0  0.62192  0.23933  0.85896  1.0000
  S   S319      1.0  0.71553  0.00347  0.82649  1.0000
  H   H2446     1.0  0.65345  0.36377  0.86733  1.0000
  H   H2447     1.0  0.74971  0.24949  0.93727  1.0000
  H   H2448     1.0  0.56963  0.19220  0.84563  1.0000
  H   H2449     1.0  0.51812  0.13904  0.89200  1.0000
  H   H2450     1.0  0.54301  0.02064  0.78958  1.0000
  C   C1377     1.0  0.53801  0.00183  0.78080  1.0000
  C   C1378     1.0  0.74926  0.36922  0.83403  1.0000
  H   H2451     1.0  0.75009  0.17943  0.88747  1.0000
  H   H2452     1.0  0.52481  0.43774  0.95140  1.0000
  H   H2453     1.0  0.54543  0.20174  0.93890  1.0000
  H   H2454     1.0  0.74790  0.19577  0.92509  1.0000
  H   H2455     1.0  0.64923  0.41372  0.87118  1.0000
  N   N77       1.0  0.60017  0.21946  0.84912  1.0000
  H   H2456     1.0  0.73717  0.36594  0.82846  1.0000
  H   H2457     1.0  0.65317  0.43353  0.89424  1.0000
  C   C1379     1.0  0.52151  0.12885  0.77344  1.0000
  C   C1380     1.0  0.61042  0.24596  0.85274  1.0000
  H   H2458     1.0  0.53060  0.48928  0.89282  1.0000
  C   C1381     1.0  0.75142  0.36508  0.98777  1.0000
  H   H2459     1.0  0.64016  0.01289  0.83996  1.0000
  H   H2460     1.0  0.65958  0.41216  0.93832  1.0000
  C   C1382     1.0  0.52886  0.25501  0.99753  1.0000
  H   H2461     1.0  0.54424  0.44646  0.96049  1.0000
  C   C1383     1.0  0.53734  0.43995  0.94667  1.0000
  C   C1384     1.0  0.61299  0.37279  0.90676  1.0000
  H   H2462     1.0  0.75566  0.47452  0.80904  1.0000
  C   C1385     1.0  0.75477  0.23048  0.94574  1.0000
  H   H2463     1.0  0.74064  0.39373  0.78538  1.0000
  H   H2464     1.0  0.55083  0.20252  0.81824  1.0000
  H   H2465     1.0  0.54505  0.18864  0.71857  1.0000
  H   H2466     1.0  0.56515  0.21073  0.97654  1.0000
  C   C1386     1.0  0.73554  0.44037  0.78817  1.0000
  C   C1387     1.0  0.58504  0.23042  0.84002  1.0000
  C   C1388     1.0  0.57362  0.20630  0.83233  1.0000
  C   C1389     1.0  0.62598  0.19753  0.83230  1.0000
  H   H2467     1.0  0.59359  0.28108  0.86076  1.0000
  C   C1390     1.0  0.53940  0.46243  0.92888  1.0000
  H   H2468     1.0  0.57212  0.19235  0.95286  1.0000
  H   H2469     1.0  0.73311  0.42940  0.93571  1.0000
  H   H2470     1.0  0.71834  0.44692  0.98996  1.0000
  C   C1391     1.0  0.76084  0.46435  0.93456  1.0000
  H   H2471     1.0  0.68257  0.42812  0.88614  1.0000
  H   H2472     1.0  0.52090  0.32660  0.74921  1.0000
  C   C1392     1.0  0.75970  0.16600  0.89375  1.0000
  C   C1393     1.0  0.60783  0.19892  0.83322  1.0000
  C   C1394     1.0  0.55920  0.22012  0.82251  1.0000
  H   H2473     1.0  0.60329  0.17603  0.83529  1.0000
  C   C1395     1.0  0.74101  0.41098  0.79774  1.0000
  H   H2474     1.0  0.53164  0.16927  0.91841  1.0000
  H   H2475     1.0  0.68366  0.42993  0.95408  1.0000
  H   H2476     1.0  0.60466  0.20547  0.81693  1.0000
  H   H2477     1.0  0.74876  0.38455  0.84754  1.0000
  H   H2478     1.0  0.74584  0.48479  0.84524  1.0000
  H   H2479     1.0  0.76467  0.47476  0.85563  1.0000
  C   C1396     1.0  0.75888  0.05032  0.72431  1.0000
  H   H2480     1.0  0.67085  0.43432  0.91996  1.0000
  H   H2481     1.0  0.74947  0.04305  0.94237  1.0000
  C   C1397     1.0  0.76198  0.06485  0.70251  1.0000
  H   H2482     1.0  0.73847  0.01871  0.92602  1.0000
  H   H2483     1.0  0.76137  0.00483  0.69968  1.0000
  H   H2484     1.0  0.74579  0.43741  0.98063  1.0000
  H   H2485     1.0  0.67795  0.40820  0.86273  1.0000
  C   C1398     1.0  0.53244  0.19308  0.72165  1.0000
  C   C1399     1.0  0.72064  0.43642  0.77567  1.0000
  H   H2486     1.0  0.52467  0.28722  0.71347  1.0000
  C   C1400     1.0  0.75492  0.33949  0.84226  1.0000
  C   C1401     1.0  0.67195  0.45403  0.86225  1.0000
  C   C1402     1.0  0.76185  0.46457  0.82236  1.0000
  H   H2487     1.0  0.74826  0.47135  0.73035  1.0000
  C   C1403     1.0  0.67032  0.41280  0.92822  1.0000
  H   H2488     1.0  0.66976  0.36645  0.92241  1.0000
  H   H2489     1.0  0.56733  0.01134  0.76268  1.0000
  C   C1404     1.0  0.75861  0.48363  0.84171  1.0000
  C   C1405     1.0  0.76447  0.14336  0.87711  1.0000
  H   H2490     1.0  0.74748  0.20141  0.97158  1.0000
  H   H2491     1.0  0.61417  0.35164  0.91543  1.0000
  N   N78       1.0  0.65781  0.38668  0.89651  1.0000
  H   H2492     1.0  0.75953  0.26174  0.84620  1.0000
  H   H2493     1.0  0.74124  0.40175  0.95159  1.0000
  H   H2494     1.0  0.75509  0.15377  0.90774  1.0000
  C   C1406     1.0  0.56627  0.18914  0.96847  1.0000
  H   H2495     1.0  0.74457  0.44968  0.77741  1.0000
  H   H2496     1.0  0.60278  0.37095  0.89632  1.0000
  H   H2497     1.0  0.75933  0.21585  0.86644  1.0000
  S   S320      1.0  0.75672  0.31960  0.95924  1.0000
  H   H2498     1.0  0.64665  0.32642  0.89654  1.0000
  H   H2499     1.0  0.61056  0.39074  0.91817  1.0000
  H   H2500     1.0  0.74768  0.47098  0.90544  1.0000
  C   C1407     1.0  0.53906  0.19563  0.95371  1.0000
  H   H2501     1.0  0.53080  0.23552  0.92452  1.0000
  S   S321      1.0  0.73432  0.00318  0.88136  1.0000
  C   C1408     1.0  0.59919  0.99888  0.88394  1.0000
  C   C1409     1.0  0.74233  0.42547  0.94745  1.0000
  H   H2502     1.0  0.69543  0.41322  0.93355  1.0000
  H   H2503     1.0  0.62935  0.36102  0.88232  1.0000
  C   C1410     1.0  0.76051  0.23530  0.89803  1.0000
  C   C1411     1.0  0.67356  0.42487  0.87410  1.0000
  H   H2504     1.0  0.59730  0.02151  0.89001  1.0000
  C   C1412     1.0  0.76100  0.01745  0.68469  1.0000
  C   C1413     1.0  0.75919  0.20523  0.93030  1.0000
  C   C1414     1.0  0.76430  0.23562  0.87401  1.0000
  H   H2505     1.0  0.73174  0.21336  0.95499  1.0000
  H   H2506     1.0  0.76496  0.08864  0.74307  1.0000
  H   H2507     1.0  0.74838  0.02228  0.68217  1.0000
  C   C1415     1.0  0.75723  0.48114  0.73983  1.0000
  H   H2508     1.0  0.52610  0.13397  0.78871  1.0000
  H   H2509     1.0  0.74956  0.42236  0.90714  1.0000
  H   H2510     1.0  0.74428  0.26303  0.86616  1.0000
  H   H2511     1.0  0.73814  0.46685  0.96499  1.0000
  H   H2512     1.0  0.74987  0.37311  0.92632  1.0000
  H   H2513     1.0  0.73955  0.36573  0.98225  1.0000
  N   N79       1.0  0.75682  0.41143  0.80779  1.0000
  C   C1416     1.0  0.73780  0.44274  0.96768  1.0000
  C   C1417     1.0  0.75689  0.43213  0.82643  1.0000
  C   C1418     1.0  0.75967  0.41646  0.91705  1.0000
  H   H2514     1.0  0.51891  0.03305  0.80586  1.0000
  H   H2515     1.0  0.74516  0.43236  0.83438  1.0000
  H   H2516     1.0  0.52046  0.49053  0.93996  1.0000
  C   C1419     1.0  0.52651  0.10342  0.76298  1.0000
  C   C1420     1.0  0.75715  0.26257  0.86342  1.0000
  N   N80       1.0  0.75834  0.43179  0.93802  1.0000
  C   C1421     1.0  0.76018  0.38075  0.81589  1.0000
  H   H2517     1.0  0.75930  0.36420  0.80320  1.0000
  H   H2518     1.0  0.76191  0.47594  0.94985  1.0000
  N   N81       1.0  0.52305  0.18337  0.94899  1.0000
  C   C1422     1.0  0.51922  0.22542  0.92174  1.0000
  H   H2519     1.0  0.76076  0.40989  0.76078  1.0000
  H   H2520     1.0  0.76214  0.25803  0.90407  1.0000
  H   H2521     1.0  0.51988  0.18385  0.98291  1.0000
  H   H2522     1.0  0.52016  0.21055  0.90799  1.0000
  C   C1423     1.0  0.76024  0.38230  0.91783  1.0000
  H   H2523     1.0  0.73652  0.47866  0.92912  1.0000
  H   H2524     1.0  0.76513  0.42414  0.83854  1.0000
  H   H2525     1.0  0.76121  0.34505  0.89663  1.0000
  C   C1424     1.0  0.76047  0.36942  0.89568  1.0000
  H   H2526     1.0  0.76232  0.28312  0.86965  1.0000
  C   C1425     1.0  0.71850  0.91231  0.28870  1.0000
  H   H2527     1.0  0.62181  0.80293  0.30285  1.0000
  Fe  Fe161     1.0  0.56169  0.82233  0.30676  1.0000
  C   C1426     1.0  0.66973  0.88453  0.29943  1.0000
  S   S322      1.0  0.55587  0.83938  0.27368  1.0000
  H   H2528     1.0  0.67465  0.86234  0.29571  1.0000
  C   C1427     1.0  0.53067  0.82994  0.03446  1.0000
  S   S323      1.0  0.57854  0.78457  0.31204  1.0000
  Fe  Fe162     1.0  0.73859  0.78801  0.30412  1.0000
  C   C1428     1.0  0.53877  0.87113  0.24511  1.0000
  H   H2529     1.0  0.70136  0.91466  0.32381  1.0000
  H   H2530     1.0  0.72569  0.59471  0.19108  1.0000
  H   H2531     1.0  0.73556  0.81308  0.21874  1.0000
  H   H2532     1.0  0.53196  0.97050  0.27840  1.0000
  S   S324      1.0  0.72224  0.82636  0.29967  1.0000
  H   H2533     1.0  0.53061  0.88341  0.30914  1.0000
  C   C1429     1.0  0.74706  0.61585  0.17912  1.0000
  H   H2534     1.0  0.53689  0.80461  0.00650  1.0000
  H   H2535     1.0  0.57674  0.90916  0.27725  1.0000
  H   H2536     1.0  0.52687  0.71441  0.02534  1.0000
  C   C1430     1.0  0.53823  0.85481  0.26399  1.0000
  C   C1431     1.0  0.65175  0.88096  0.30222  1.0000
  H   H2537     1.0  0.72624  0.60101  0.16291  1.0000
  H   H2538     1.0  0.53699  0.84474  0.04519  1.0000
  H   H2539     1.0  0.66568  0.94312  0.29211  1.0000
  C   C1432     1.0  0.76376  0.71570  0.23939  1.0000
  C   C1433     1.0  0.76108  0.77309  0.01060  1.0000
  C   C1434     1.0  0.52329  0.74698  0.00108  1.0000
  H   H2540     1.0  0.57196  0.94727  0.28194  1.0000
  H   H2541     1.0  0.51787  0.94563  0.25003  1.0000
  H   H2542     1.0  0.52741  0.81810  0.20368  1.0000
  C   C1435     1.0  0.75642  0.83028  0.06661  1.0000
  C   C1436     1.0  0.64704  0.79854  0.30063  1.0000
  C   C1437     1.0  0.64435  0.87134  0.28170  1.0000
  H   H2543     1.0  0.64612  0.90191  0.30702  1.0000
  C   C1438     1.0  0.63264  0.80335  0.31133  1.0000
  C   C1439     1.0  0.53016  0.78034  0.23631  1.0000
  C   C1440     1.0  0.52973  0.98282  0.33076  1.0000
  H   H2544     1.0  0.67176  0.89766  0.28491  1.0000
  H   H2545     1.0  0.75992  0.75172  0.01899  1.0000
  H   H2546     1.0  0.73600  0.77573  0.00461  1.0000
  H   H2547     1.0  0.52452  0.77029  0.19190  1.0000
  H   H2548     1.0  0.73419  0.88273  0.02084  1.0000
  H   H2549     1.0  0.52896  0.86387  0.18022  1.0000
  H   H2550     1.0  0.52170  0.85358  0.07300  1.0000
  H   H2551     1.0  0.74689  0.83556  0.05558  1.0000
  H   H2552     1.0  0.75204  0.57668  0.16158  1.0000
  H   H2553     1.0  0.65002  0.85098  0.27565  1.0000
  H   H2554     1.0  0.76044  0.72090  0.30081  1.0000
  C   C1441     1.0  0.75935  0.88770  0.01954  1.0000
  C   C1442     1.0  0.52375  0.85095  0.27433  1.0000
  C   C1443     1.0  0.54592  0.93640  0.30861  1.0000
  H   H2555     1.0  0.72130  0.93169  0.29852  1.0000
  C   C1444     1.0  0.51787  0.83196  0.07962  1.0000
  H   H2556     1.0  0.51760  0.78872  0.03554  1.0000
  N   N82       1.0  0.67817  0.89751  0.31785  1.0000
  H   H2557     1.0  0.69894  0.88561  0.28027  1.0000
  H   H2558     1.0  0.52175  0.75453  0.07419  1.0000
  H   H2559     1.0  0.64718  0.79443  0.28388  1.0000
  H   H2560     1.0  0.53668  0.80117  0.23346  1.0000
  H   H2561     1.0  0.52979  0.99392  0.31527  1.0000
  C   C1445     1.0  0.52266  0.95132  0.33009  1.0000
  C   C1446     1.0  0.76108  0.81415  0.21947  1.0000
  C   C1447     1.0  0.74371  0.68633  0.29672  1.0000
  H   H2562     1.0  0.66317  0.99552  0.30112  1.0000
  C   C1448     1.0  0.55409  0.91581  0.29241  1.0000
  Fe  Fe163     1.0  0.70302  0.79688  0.31238  1.0000
  H   H2563     1.0  0.68374  0.95803  0.30205  1.0000
  H   H2564     1.0  0.75940  0.81959  0.01777  1.0000
  C   C1449     1.0  0.66294  0.97864  0.31381  1.0000
  C   C1450     1.0  0.51922  0.93325  0.29349  1.0000
  C   C1451     1.0  0.54271  0.81807  0.01855  1.0000
  H   H2565     1.0  0.74349  0.82520  0.24329  1.0000
  H   H2566     1.0  0.72303  0.63128  0.18068  1.0000
  C   C1452     1.0  0.51643  0.85785  0.11491  1.0000
  S   S325      1.0  0.54431  0.80613  0.33122  1.0000
  H   H2567     1.0  0.74974  0.79557  0.03590  1.0000
  H   H2568     1.0  0.72549  0.89320  0.29403  1.0000
  H   H2569     1.0  0.75004  0.63192  0.16647  1.0000
  C   C1453     1.0  0.67198  0.92750  0.32388  1.0000
  S   S326      1.0  0.57447  0.85219  0.32896  1.0000
  H   H2570     1.0  0.53482  0.76342  0.22534  1.0000
  H   H2571     1.0  0.53198  0.79212  0.05480  1.0000
  H   H2572     1.0  0.52946  0.78656  0.27036  1.0000
  H   H2573     1.0  0.64889  0.86386  0.31420  1.0000
  C   C1454     1.0  0.72944  0.61023  0.17838  1.0000
  C   C1455     1.0  0.76080  0.79863  0.02664  1.0000
  H   H2574     1.0  0.52307  0.83805  0.28865  1.0000
  H   H2575     1.0  0.76196  0.52878  0.16884  1.0000
  H   H2576     1.0  0.66001  0.92558  0.33100  1.0000
  C   C1456     1.0  0.74505  0.80943  0.23010  1.0000
  H   H2577     1.0  0.74513  0.85677  0.09088  1.0000
  S   S327      1.0  0.67919  0.79607  0.29702  1.0000
  H   H2578     1.0  0.73698  0.66980  0.30613  1.0000
  H   H2579     1.0  0.72193  0.91729  0.27213  1.0000
  C   C1457     1.0  0.69562  0.89862  0.31323  1.0000
  H   H2580     1.0  0.75340  0.78741  0.19377  1.0000
  H   H2581     1.0  0.76072  0.82534  0.17206  1.0000
  H   H2582     1.0  0.73524  0.70053  0.28845  1.0000
  H   H2583     1.0  0.64553  0.88895  0.26961  1.0000
  H   H2584     1.0  0.76135  0.83672  0.21273  1.0000
  C   C1458     1.0  0.52716  0.89959  0.32140  1.0000
  H   H2585     1.0  0.75866  0.77566  0.15662  1.0000
  H   H2586     1.0  0.54663  0.76813  0.26035  1.0000
  H   H2587     1.0  0.74936  0.62602  0.19456  1.0000
  H   H2588     1.0  0.75624  0.69881  0.23321  1.0000
  C   C1459     1.0  0.67163  0.95109  0.30629  1.0000
  C   C1460     1.0  0.76600  0.75770  0.16293  1.0000
  H   H2589     1.0  0.54823  0.91656  0.27705  1.0000
  H   H2590     1.0  0.74595  0.73251  0.26093  1.0000
  C   C1461     1.0  0.57117  0.92468  0.28861  1.0000
  H   H2591     1.0  0.69468  0.92394  0.28323  1.0000
  H   H2592     1.0  0.75983  0.89958  0.03421  1.0000
  H   H2593     1.0  0.52884  0.82133  0.08492  1.0000
  S   S328      1.0  0.71894  0.75725  0.31408  1.0000
  H   H2594     1.0  0.61500  0.88474  0.32964  1.0000
  H   H2595     1.0  0.74405  0.78680  0.23664  1.0000
  H   H2596     1.0  0.54988  0.87422  0.23691  1.0000
  H   H2597     1.0  0.52585  0.89696  0.22262  1.0000
  C   C1462     1.0  0.74481  0.87811  0.01191  1.0000
  H   H2598     1.0  0.74577  0.71804  0.32125  1.0000
  H   H2599     1.0  0.76360  0.76549  0.05865  1.0000
  H   H2600     1.0  0.76289  0.59783  0.13410  1.0000
  C   C1463     1.0  0.70102  0.90526  0.29019  1.0000
  S   S329      1.0  0.76077  0.78147  0.28331  1.0000
  H   H2601     1.0  0.57769  0.92363  0.30352  1.0000
  H   H2602     1.0  0.75872  0.74487  0.17442  1.0000
  C   C1464     1.0  0.66124  0.79952  0.31135  1.0000
  H   H2603     1.0  0.75116  0.67490  0.28478  1.0000
  C   C1465     1.0  0.53377  0.77024  0.25865  1.0000
  H   H2604     1.0  0.52212  0.84322  0.02563  1.0000
  H   H2605     1.0  0.55166  0.80449  0.02647  1.0000
  C   C1466     1.0  0.75638  0.58677  0.17618  1.0000
  C   C1467     1.0  0.75789  0.73471  0.25519  1.0000
  H   H2606     1.0  0.55422  0.89284  0.29830  1.0000
  C   C1468     1.0  0.76448  0.79058  0.20236  1.0000
  H   H2607     1.0  0.52135  0.74707  0.15693  1.0000
  H   H2608     1.0  0.63171  0.86670  0.28453  1.0000
  C   C1469     1.0  0.52252  0.80455  0.04695  1.0000
  H   H2609     1.0  0.54802  0.95922  0.30303  1.0000
  H   H2610     1.0  0.76564  0.86152  0.14108  1.0000
  H   H2611     1.0  0.75266  0.57148  0.18911  1.0000
  C   C1470     1.0  0.52513  0.88397  0.23690  1.0000
  H   H2612     1.0  0.52830  0.74853  0.26212  1.0000
  H   H2613     1.0  0.67834  0.85413  0.33173  1.0000
  H   H2614     1.0  0.55246  0.93448  0.32342  1.0000
  H   H2615     1.0  0.70109  0.87696  0.31687  1.0000
  N   N83       1.0  0.52875  0.93075  0.31311  1.0000
  C   C1471     1.0  0.75378  0.70524  0.31091  1.0000
  H   H2616     1.0  0.52020  0.77825  0.09673  1.0000
  H   H2617     1.0  0.54872  0.83670  0.01037  1.0000
  H   H2618     1.0  0.65052  0.97338  0.31781  1.0000
  H   H2619     1.0  0.52677  0.84582  0.12078  1.0000
  C   C1472     1.0  0.76477  0.68589  0.32421  1.0000
  H   H2620     1.0  0.53830  0.51443  0.32164  1.0000
  H   H2621     1.0  0.75355  0.80936  0.07492  1.0000
  H   H2622     1.0  0.52025  0.87894  0.10751  1.0000
  C   C1473     1.0  0.51981  0.96313  0.28176  1.0000
  H   H2623     1.0  0.66861  0.98806  0.32782  1.0000
  C   C1474     1.0  0.51835  0.72802  0.01755  1.0000
  H   H2624     1.0  0.52258  0.91569  0.28218  1.0000
  C   C1475     1.0  0.75674  0.85501  0.08281  1.0000
  H   H2625     1.0  0.75984  0.72819  0.13766  1.0000
  H   H2626     1.0  0.75944  0.87641  0.07500  1.0000
  H   H2627     1.0  0.76568  0.85047  0.09480  1.0000
  S   S330      1.0  0.57394  0.79686  0.36268  1.0000
  Fe  Fe164     1.0  0.55803  0.83393  0.35365  1.0000
  S   S331      1.0  0.54652  0.86164  0.37929  1.0000
  H   H2628     1.0  0.60704  0.74844  0.36064  1.0000
  S   S332      1.0  0.70602  0.81100  0.34574  1.0000
  H   H2629     1.0  0.54392  0.90031  0.47233  1.0000
  H   H2630     1.0  0.53038  0.52758  0.59568  1.0000
  S   S333      1.0  0.72337  0.74579  0.37653  1.0000
  Fe  Fe165     1.0  0.58540  0.54863  0.44654  1.0000
  S   S334      1.0  0.58015  0.56135  0.41345  1.0000
  S   S335      1.0  0.60917  0.55102  0.46172  1.0000
  Fe  Fe166     1.0  0.55072  0.53568  0.45810  1.0000
  S   S336      1.0  0.54276  0.54860  0.42556  1.0000
  H   H2631     1.0  0.62697  0.91457  0.33882  1.0000
  Fe  Fe167     1.0  0.56384  0.52234  0.41422  1.0000
  H   H2632     1.0  0.58877  0.66786  0.41012  1.0000
  Fe  Fe168     1.0  0.55980  0.58681  0.42694  1.0000
  S   S337      1.0  0.55730  0.63665  0.42160  1.0000
  H   H2633     1.0  0.72285  0.70312  0.34236  1.0000
  S   S338      1.0  0.56603  0.57591  0.46032  1.0000
  H   H2634     1.0  0.58675  0.89456  0.39069  1.0000
  S   S339      1.0  0.70508  0.53766  0.44224  1.0000
  C   C1476     1.0  0.59929  0.67413  0.37184  1.0000
  Fe  Fe169     1.0  0.72834  0.58210  0.40048  1.0000
  S   S340      1.0  0.71532  0.60390  0.42712  1.0000
  S   S341      1.0  0.73892  0.60938  0.37381  1.0000
  Fe  Fe170     1.0  0.72576  0.56810  0.44703  1.0000
  S   S342      1.0  0.73498  0.57419  0.48047  1.0000
  Fe  Fe171     1.0  0.69603  0.57188  0.42007  1.0000
  S   S343      1.0  0.67133  0.58535  0.41123  1.0000
  S   S344      1.0  0.73995  0.54758  0.42055  1.0000
  S   S345      1.0  0.70855  0.55229  0.39212  1.0000
  C   C1477     1.0  0.74939  0.59828  0.49101  1.0000
  C   C1478     1.0  0.59411  0.90017  0.40434  1.0000
  H   H2635     1.0  0.52058  0.99210  0.36232  1.0000
  H   H2636     1.0  0.72855  0.92116  0.45252  1.0000
  N   N84       1.0  0.60450  0.64978  0.38636  1.0000
  S   S346      1.0  0.57080  0.50744  0.44640  1.0000
  H   H2637     1.0  0.61488  0.96465  0.36574  1.0000
  H   H2638     1.0  0.51721  0.57589  0.58920  1.0000
  C   C1479     1.0  0.74848  0.96655  0.46360  1.0000
  C   C1480     1.0  0.59031  0.61561  0.35952  1.0000
  C   C1481     1.0  0.62610  0.56281  0.44778  1.0000
  C   C1482     1.0  0.62593  0.56837  0.42615  1.0000
  C   C1483     1.0  0.63990  0.57557  0.41524  1.0000
  C   C1484     1.0  0.65412  0.57702  0.42582  1.0000
  C   C1485     1.0  0.65427  0.57199  0.44749  1.0000
  C   C1486     1.0  0.64029  0.56484  0.45842  1.0000
  H   H2639     1.0  0.61511  0.56643  0.41779  1.0000
  C   C1487     1.0  0.57263  0.88274  0.42967  1.0000
  H   H2640     1.0  0.66516  0.57328  0.45579  1.0000
  H   H2641     1.0  0.64049  0.56042  0.47515  1.0000
  C   C1488     1.0  0.72709  0.90839  0.36255  1.0000
  C   C1489     1.0  0.72936  0.93904  0.36130  1.0000
  C   C1490     1.0  0.72679  0.95712  0.37901  1.0000
  C   C1491     1.0  0.72196  0.94470  0.39823  1.0000
  C   C1492     1.0  0.71955  0.91407  0.39945  1.0000
  C   C1493     1.0  0.72208  0.89598  0.38172  1.0000
  H   H2642     1.0  0.74818  0.88588  0.51823  1.0000
  H   H2643     1.0  0.72870  0.98062  0.37783  1.0000
  H   H2644     1.0  0.71580  0.90423  0.41423  1.0000
  H   H2645     1.0  0.72032  0.87245  0.38292  1.0000
  C   C1494     1.0  0.72761  0.70792  0.37525  1.0000
  C   C1495     1.0  0.72655  0.69214  0.35650  1.0000
  C   C1496     1.0  0.73006  0.66188  0.35617  1.0000
  C   C1497     1.0  0.73435  0.64716  0.37462  1.0000
  C   C1498     1.0  0.73537  0.66296  0.39333  1.0000
  C   C1499     1.0  0.73211  0.69326  0.39359  1.0000
  C   C1500     1.0  0.74834  0.90559  0.52850  1.0000
  S   S347      1.0  0.55610  0.72117  0.34075  1.0000
  H   H2646     1.0  0.73889  0.65187  0.40756  1.0000
  H   H2647     1.0  0.73321  0.70544  0.40802  1.0000
  C   C1501     1.0  0.55603  0.69820  0.36353  1.0000
  C   C1502     1.0  0.55830  0.70940  0.38369  1.0000
  C   C1503     1.0  0.55838  0.69025  0.40124  1.0000
  C   C1504     1.0  0.55643  0.65966  0.39889  1.0000
  C   C1505     1.0  0.55413  0.64847  0.37874  1.0000
  C   C1506     1.0  0.55385  0.66765  0.36121  1.0000
  H   H2648     1.0  0.55991  0.73281  0.38577  1.0000
  H   H2649     1.0  0.56006  0.69920  0.41676  1.0000
  H   H2650     1.0  0.55243  0.62508  0.37669  1.0000
  H   H2651     1.0  0.57233  0.58335  0.36816  1.0000
  C   C1507     1.0  0.54942  0.90008  0.38009  1.0000
  C   C1508     1.0  0.54260  0.91633  0.39661  1.0000
  C   C1509     1.0  0.54442  0.94708  0.39743  1.0000
  C   C1510     1.0  0.55279  0.96180  0.38147  1.0000
  C   C1511     1.0  0.55959  0.94559  0.36496  1.0000
  C   C1512     1.0  0.55817  0.91478  0.36447  1.0000
  H   H2652     1.0  0.53573  0.90515  0.40866  1.0000
  H   H2653     1.0  0.53890  0.95954  0.41000  1.0000
  H   H2654     1.0  0.56610  0.95693  0.35261  1.0000
  H   H2655     1.0  0.56357  0.90251  0.35179  1.0000
  C   C1513     1.0  0.62093  0.89386  0.34356  1.0000
  C   C1514     1.0  0.76571  0.61208  0.52085  1.0000
  H   H2656     1.0  0.55200  0.65876  0.34572  1.0000
  H   H2657     1.0  0.68043  0.84056  0.37068  1.0000
  H   H2658     1.0  0.53231  0.58033  0.56082  1.0000
  H   H2659     1.0  0.65266  0.95356  0.43309  1.0000
  H   H2660     1.0  0.62858  0.66367  0.38930  1.0000
  H   H2661     1.0  0.58844  0.91796  0.43613  1.0000
  H   H2662     1.0  0.52242  0.93574  0.59872  1.0000
  H   H2663     1.0  0.52321  0.81238  0.44385  1.0000
  S   S348      1.0  0.53814  0.52235  0.48912  1.0000
  C   C1515     1.0  0.64590  0.63402  0.36135  1.0000
  H   H2664     1.0  0.54081  0.97538  0.52749  1.0000
  N   N85       1.0  0.60633  0.92294  0.39832  1.0000
  C   C1516     1.0  0.67736  0.51325  0.37183  1.0000
  H   H2665     1.0  0.63987  0.91980  0.40852  1.0000
  Fe  Fe172     1.0  0.72316  0.77343  0.34683  1.0000
  H   H2666     1.0  0.57430  0.92634  0.41654  1.0000
  C   C1517     1.0  0.60722  0.70458  0.37453  1.0000
  H   H2667     1.0  0.67522  0.53695  0.37507  1.0000
  H   H2668     1.0  0.54765  0.93460  0.44285  1.0000
  H   H2669     1.0  0.75749  0.65831  0.55384  1.0000
  C   C1518     1.0  0.61552  0.93007  0.41784  1.0000
  H   H2670     1.0  0.66650  0.78774  0.38585  1.0000
  C   C1519     1.0  0.62803  0.63430  0.36238  1.0000
  S   S349      1.0  0.61488  0.81782  0.34700  1.0000
  H   H2671     1.0  0.71533  0.95068  0.49266  1.0000
  H   H2672     1.0  0.54203  0.98179  0.33601  1.0000
  C   C1520     1.0  0.60121  0.72682  0.35849  1.0000
  C   C1521     1.0  0.60101  0.65955  0.40870  1.0000
  H   H2673     1.0  0.53397  0.87685  0.44121  1.0000
  H   H2674     1.0  0.62972  0.87754  0.34880  1.0000
  H   H2675     1.0  0.60099  0.66809  0.35509  1.0000
  H   H2676     1.0  0.75832  0.79070  0.60636  1.0000
  C   C1522     1.0  0.52007  0.50642  0.49788  1.0000
  C   C1523     1.0  0.72217  0.92139  0.46787  1.0000
  C   C1524     1.0  0.73846  0.99219  0.49482  1.0000
  H   H2677     1.0  0.52715  0.61481  0.54858  1.0000
  C   C1525     1.0  0.54610  0.94340  0.45899  1.0000
  C   C1526     1.0  0.59522  0.62198  0.38245  1.0000
  H   H2678     1.0  0.68687  0.86845  0.38859  1.0000
  H   H2679     1.0  0.60462  0.71379  0.39034  1.0000
  H   H2680     1.0  0.62008  0.70296  0.37213  1.0000
  H   H2681     1.0  0.53670  0.55753  0.52667  1.0000
  C   C1527     1.0  0.73972  0.93120  0.51826  1.0000
  H   H2682     1.0  0.60970  0.94808  0.42697  1.0000
  H   H2683     1.0  0.57935  0.58123  0.34134  1.0000
  H   H2684     1.0  0.68934  0.51088  0.36491  1.0000
  C   C1528     1.0  0.63301  0.93870  0.41480  1.0000
  H   H2685     1.0  0.66237  0.75852  0.36770  1.0000
  C   C1529     1.0  0.52490  0.86027  0.44542  1.0000
  C   C1530     1.0  0.59795  0.94992  0.39047  1.0000
  H   H2686     1.0  0.58860  0.94355  0.37957  1.0000
  H   H2687     1.0  0.62410  0.61147  0.35927  1.0000
  C   C1531     1.0  0.62184  0.64408  0.38429  1.0000
  S   S350      1.0  0.71903  0.96631  0.42121  1.0000
  H   H2688     1.0  0.63976  0.57913  0.39844  1.0000
  H   H2689     1.0  0.60866  0.67826  0.41302  1.0000
  C   C1532     1.0  0.51931  0.97994  0.58640  1.0000
  H   H2690     1.0  0.72922  0.76758  0.49606  1.0000
  H   H2691     1.0  0.61563  0.91078  0.42875  1.0000
  H   H2692     1.0  0.54747  0.59138  0.52765  1.0000
  H   H2693     1.0  0.63456  0.95750  0.40385  1.0000
  H   H2694     1.0  0.73990  0.94979  0.52950  1.0000
  C   C1533     1.0  0.72314  0.95198  0.47856  1.0000
  C   C1534     1.0  0.51764  0.50129  0.51958  1.0000
  H   H2695     1.0  0.53033  0.85956  0.47861  1.0000
  H   H2696     1.0  0.74495  0.77196  0.55083  1.0000
  H   H2697     1.0  0.58839  0.73003  0.36064  1.0000
  H   H2698     1.0  0.75722  0.75158  0.57956  1.0000
  H   H2699     1.0  0.70187  0.62759  0.35829  1.0000
  C   C1535     1.0  0.67026  0.76563  0.38037  1.0000
  H   H2700     1.0  0.58024  0.86541  0.43635  1.0000
  C   C1536     1.0  0.74722  0.67300  0.55194  1.0000
  H   H2701     1.0  0.73869  0.73596  0.52432  1.0000
  H   H2702     1.0  0.72917  0.64965  0.34170  1.0000
  C   C1537     1.0  0.51817  0.51957  0.59779  1.0000
  H   H2703     1.0  0.63393  0.96614  0.44288  1.0000
  H   H2704     1.0  0.54239  0.82614  0.45050  1.0000
  C   C1538     1.0  0.74788  0.94049  0.49732  1.0000
  H   H2705     1.0  0.74250  0.89984  0.54375  1.0000
  H   H2706     1.0  0.58394  0.62247  0.39158  1.0000
  C   C1539     1.0  0.53196  0.83005  0.44075  1.0000
  H   H2707     1.0  0.75062  0.92035  0.48803  1.0000
  H   H2708     1.0  0.58645  0.67745  0.37390  1.0000
  C   C1540     1.0  0.53734  0.92126  0.47303  1.0000
  H   H2709     1.0  0.76398  0.80485  0.56922  1.0000
  H   H2710     1.0  0.73734  0.66404  0.56162  1.0000
  H   H2711     1.0  0.53761  0.92943  0.48945  1.0000
  H   H2712     1.0  0.60065  0.91666  0.35522  1.0000
  H   H2713     1.0  0.62532  0.62632  0.39527  1.0000
  C   C1541     1.0  0.58292  0.58508  0.35778  1.0000
  H   H2714     1.0  0.74049  0.71797  0.55807  1.0000
  N   N86       1.0  0.67706  0.69008  0.40861  1.0000
  C   C1542     1.0  0.67932  0.66036  0.39839  1.0000
  C   C1543     1.0  0.66250  0.68886  0.42249  1.0000
  C   C1544     1.0  0.67425  0.71241  0.39139  1.0000
  C   C1545     1.0  0.69104  0.70001  0.42094  1.0000
  C   C1546     1.0  0.70081  0.67578  0.43177  1.0000
  C   C1547     1.0  0.69091  0.65934  0.37939  1.0000
  C   C1548     1.0  0.66957  0.74380  0.39872  1.0000
  C   C1549     1.0  0.66226  0.66556  0.44038  1.0000
  C   C1550     1.0  0.64595  0.66282  0.45054  1.0000
  C   C1551     1.0  0.71184  0.68874  0.44791  1.0000
  C   C1552     1.0  0.69437  0.62770  0.37275  1.0000
  C   C1553     1.0  0.53690  0.50674  0.33817  1.0000
  H   H2715     1.0  0.66796  0.65177  0.39286  1.0000
  H   H2716     1.0  0.68324  0.64361  0.40980  1.0000
  H   H2717     1.0  0.66045  0.71030  0.43044  1.0000
  H   H2718     1.0  0.65208  0.68496  0.41261  1.0000
  H   H2719     1.0  0.66498  0.70448  0.38072  1.0000
  H   H2720     1.0  0.68503  0.71520  0.38138  1.0000
  H   H2721     1.0  0.69957  0.71223  0.41059  1.0000
  H   H2722     1.0  0.68733  0.71618  0.43316  1.0000
  H   H2723     1.0  0.70803  0.66434  0.41968  1.0000
  H   H2724     1.0  0.69350  0.65905  0.43997  1.0000
  H   H2725     1.0  0.68595  0.67074  0.36557  1.0000
  H   H2726     1.0  0.70199  0.67021  0.38345  1.0000
  H   H2727     1.0  0.67751  0.75194  0.41098  1.0000
  H   H2728     1.0  0.65737  0.74387  0.40512  1.0000
  H   H2729     1.0  0.66553  0.64335  0.43471  1.0000
  H   H2730     1.0  0.67037  0.67226  0.45288  1.0000
  H   H2731     1.0  0.63741  0.65539  0.43880  1.0000
  H   H2732     1.0  0.64616  0.64618  0.46339  1.0000
  H   H2733     1.0  0.64208  0.68420  0.45727  1.0000
  H   H2734     1.0  0.71955  0.67108  0.45398  1.0000
  H   H2735     1.0  0.71931  0.70622  0.44070  1.0000
  H   H2736     1.0  0.70503  0.69812  0.46135  1.0000
  H   H2737     1.0  0.70071  0.61603  0.38531  1.0000
  H   H2738     1.0  0.68338  0.61566  0.36949  1.0000
  C   C1554     1.0  0.64654  0.80978  0.34366  1.0000
  C   C1555     1.0  0.75459  0.59333  0.51162  1.0000
  C   C1556     1.0  0.67539  0.87709  0.33638  1.0000
  H   H2739     1.0  0.60810  0.50562  0.42808  1.0000
  C   C1557     1.0  0.60297  0.63588  0.42620  1.0000
  C   C1558     1.0  0.59864  0.64820  0.44786  1.0000
  H   H2740     1.0  0.61519  0.62801  0.42681  1.0000
  H   H2741     1.0  0.59529  0.61664  0.42373  1.0000
  H   H2742     1.0  0.60013  0.63074  0.45996  1.0000
  H   H2743     1.0  0.60627  0.66711  0.45172  1.0000
  H   H2744     1.0  0.58620  0.65532  0.44838  1.0000
  H   H2745     1.0  0.65061  0.61921  0.37365  1.0000
  H   H2746     1.0  0.72637  0.78556  0.52106  1.0000
  H   H2747     1.0  0.52274  0.89291  0.50504  1.0000
  C   C1559     1.0  0.64022  0.94714  0.43573  1.0000
  H   H2748     1.0  0.72705  0.90394  0.47805  1.0000
  C   C1560     1.0  0.75441  0.76810  0.53882  1.0000
  H   H2749     1.0  0.59137  0.56769  0.36221  1.0000
  H   H2750     1.0  0.62405  0.64911  0.34970  1.0000
  H   H2751     1.0  0.70480  0.89150  0.45563  1.0000
  H   H2752     1.0  0.53569  0.82901  0.42391  1.0000
  C   C1561     1.0  0.73532  0.77776  0.50945  1.0000
  C   C1562     1.0  0.67943  0.86420  0.37482  1.0000
  H   H2753     1.0  0.67916  0.93726  0.33642  1.0000
  C   C1563     1.0  0.58242  0.90914  0.42225  1.0000
  H   H2754     1.0  0.68361  0.90682  0.36155  1.0000
  H   H2755     1.0  0.60370  0.71927  0.34217  1.0000
  H   H2756     1.0  0.68472  0.50419  0.40314  1.0000
  C   C1564     1.0  0.76637  0.64151  0.48916  1.0000
  H   H2757     1.0  0.74383  0.67294  0.53517  1.0000
  H   H2758     1.0  0.72167  0.98094  0.52084  1.0000
  H   H2759     1.0  0.75156  0.62673  0.46400  1.0000
  H   H2760     1.0  0.58143  0.63187  0.35450  1.0000
  H   H2761     1.0  0.61621  0.98376  0.39049  1.0000
  C   C1565     1.0  0.61686  0.90952  0.38159  1.0000
  H   H2762     1.0  0.64643  0.81429  0.36034  1.0000
  N   N87       1.0  0.73932  0.96253  0.48404  1.0000
  Fe  Fe173     1.0  0.71865  0.51947  0.41434  1.0000
  H   H2763     1.0  0.56606  0.87330  0.41644  1.0000
  C   C1566     1.0  0.60811  0.97369  0.37929  1.0000
  H   H2764     1.0  0.53963  0.96456  0.45819  1.0000
  H   H2765     1.0  0.66282  0.87693  0.34130  1.0000
  H   H2766     1.0  0.55783  0.94776  0.46546  1.0000
  C   C1567     1.0  0.52135  0.95857  0.60477  1.0000
  H   H2767     1.0  0.69979  0.92980  0.45314  1.0000
  H   H2768     1.0  0.52964  0.58979  0.51308  1.0000
  H   H2769     1.0  0.51971  0.91830  0.44870  1.0000
  H   H2770     1.0  0.59163  0.96114  0.40367  1.0000
  H   H2771     1.0  0.60215  0.87904  0.36391  1.0000
  C   C1568     1.0  0.70519  0.91317  0.46360  1.0000
  H   H2772     1.0  0.73325  0.94886  0.34657  1.0000
  H   H2773     1.0  0.56411  0.88973  0.44205  1.0000
  H   H2774     1.0  0.62281  0.88969  0.38805  1.0000
  H   H2775     1.0  0.66708  0.86914  0.37931  1.0000
  H   H2776     1.0  0.62646  0.92485  0.37698  1.0000
  H   H2777     1.0  0.75638  0.63303  0.66170  1.0000
  H   H2778     1.0  0.59016  0.98998  0.35832  1.0000
  C   C1569     1.0  0.51979  0.86302  0.46891  1.0000
  H   H2779     1.0  0.72748  0.92408  0.51601  1.0000
  H   H2780     1.0  0.60164  0.60242  0.38839  1.0000
  H   H2781     1.0  0.59991  0.87919  0.40898  1.0000
  H   H2782     1.0  0.65591  0.52046  0.40265  1.0000
  H   H2783     1.0  0.69824  0.91169  0.47853  1.0000
  H   H2784     1.0  0.65057  0.65662  0.36336  1.0000
  C   C1570     1.0  0.52012  0.91780  0.46619  1.0000
  H   H2785     1.0  0.63975  0.92830  0.44692  1.0000
  C   C1571     1.0  0.60882  0.89975  0.36109  1.0000
  H   H2786     1.0  0.69744  0.87922  0.35341  1.0000
  H   H2787     1.0  0.60022  0.61688  0.34814  1.0000
  H   H2788     1.0  0.74223  0.79683  0.50338  1.0000
  H   H2789     1.0  0.68241  0.76746  0.37386  1.0000
  H   H2790     1.0  0.75436  0.70259  0.57593  1.0000
  C   C1572     1.0  0.75543  0.62250  0.47981  1.0000
  C   C1573     1.0  0.75114  0.70416  0.55913  1.0000
  C   C1574     1.0  0.74606  0.75505  0.51948  1.0000
  C   C1575     1.0  0.68485  0.88368  0.35640  1.0000
  S   S351      1.0  0.74380  0.80158  0.33736  1.0000
  H   H2791     1.0  0.63818  0.51204  0.43264  1.0000
  H   H2792     1.0  0.75790  0.70688  0.36174  1.0000
  C   C1576     1.0  0.53552  0.58179  0.52742  1.0000
  H   H2793     1.0  0.67846  0.52067  0.47503  1.0000
  H   H2794     1.0  0.53533  0.89595  0.33460  1.0000
  H   H2795     1.0  0.75945  0.94937  0.50180  1.0000
  H   H2796     1.0  0.52672  0.50706  0.53039  1.0000
  H   H2797     1.0  0.75013  0.94520  0.45540  1.0000
  Fe  Fe174     1.0  0.56188  0.77035  0.33825  1.0000
  C   C1577     1.0  0.76508  0.98022  0.46531  1.0000
  H   H2798     1.0  0.75001  0.57475  0.52049  1.0000
  H   H2799     1.0  0.52496  0.94196  0.34600  1.0000
  C   C1578     1.0  0.76494  0.71740  0.54595  1.0000
  H   H2800     1.0  0.52963  0.97725  0.57574  1.0000
  H   H2801     1.0  0.71751  0.96837  0.46804  1.0000
  H   H2802     1.0  0.66668  0.51979  0.43706  1.0000
  H   H2803     1.0  0.65238  0.50003  0.46716  1.0000
  H   H2804     1.0  0.67164  0.80462  0.34155  1.0000
  H   H2805     1.0  0.74179  0.98080  0.45265  1.0000
  H   H2806     1.0  0.75881  0.79044  0.53444  1.0000
  H   H2807     1.0  0.76176  0.95217  0.65554  1.0000
  H   H2808     1.0  0.75814  0.73765  0.39443  1.0000
  C   C1579     1.0  0.53028  0.97899  0.51872  1.0000
  H   H2809     1.0  0.75882  0.76963  0.37739  1.0000
  C   C1580     1.0  0.52635  0.59050  0.54730  1.0000
  H   H2810     1.0  0.52511  0.51292  0.34437  1.0000
  H   H2811     1.0  0.76021  0.73806  0.34536  1.0000
  H   H2812     1.0  0.75437  0.74722  0.50719  1.0000
  H   H2813     1.0  0.51866  0.85770  0.35193  1.0000
  C   C1581     1.0  0.53127  0.99431  0.49942  1.0000
  H   H2814     1.0  0.76336  0.71103  0.52934  1.0000
  H   H2815     1.0  0.53207  0.96392  0.61353  1.0000
  S   S352      1.0  0.73073  0.88683  0.33971  1.0000
  H   H2816     1.0  0.54578  0.51807  0.34776  1.0000
  Fe  Fe175     1.0  0.58970  0.81315  0.33631  1.0000
  H   H2817     1.0  0.64998  0.62578  0.34575  1.0000
  H   H2818     1.0  0.76067  0.91173  0.53158  1.0000
  H   H2819     1.0  0.66884  0.50543  0.36018  1.0000
  H   H2820     1.0  0.75698  0.67168  0.33404  1.0000
  Fe  Fe176     1.0  0.72628  0.83800  0.33354  1.0000
  C   C1582     1.0  0.76603  0.75317  0.38577  1.0000
  H   H2821     1.0  0.76180  0.49692  0.65137  1.0000
  C   C1583     1.0  0.66086  0.80446  0.33303  1.0000
  H   H2822     1.0  0.74917  0.99616  0.50406  1.0000
  C   C1584     1.0  0.65921  0.49675  0.40153  1.0000
  C   C1585     1.0  0.63237  0.80935  0.33288  1.0000
  Fe  Fe177     1.0  0.56020  0.57637  0.80989  1.0000
  S   S353      1.0  0.54313  0.56304  0.83554  1.0000
  S   S354      1.0  0.55408  0.59595  0.77768  1.0000
  Fe  Fe178     1.0  0.58867  0.56429  0.83750  1.0000
  S   S355      1.0  0.57339  0.55021  0.86492  1.0000
  S   S356      1.0  0.61397  0.56697  0.84762  1.0000
  Fe  Fe179     1.0  0.55952  0.52499  0.84181  1.0000
  S   S357      1.0  0.56683  0.97742  0.83706  1.0000
  Fe  Fe180     1.0  0.55842  0.58890  0.85709  1.0000
  S   S358      1.0  0.54934  0.61553  0.88495  1.0000
  S   S359      1.0  0.57573  0.53632  0.81436  1.0000
  S   S360      1.0  0.57453  0.60501  0.83125  1.0000
  Fe  Fe181     1.0  0.73645  0.54316  0.80950  1.0000
  S   S361      1.0  0.73943  0.55793  0.84306  1.0000
  C   C1586     1.0  0.56404  0.52619  0.92961  1.0000
  Fe  Fe182     1.0  0.70059  0.54942  0.81374  1.0000
  S   S362      1.0  0.70129  0.56393  0.84730  1.0000
  S   S363      1.0  0.67771  0.54761  0.79624  1.0000
  Fe  Fe183     1.0  0.72137  0.59286  0.83696  1.0000
  S   S364      1.0  0.72220  0.64289  0.84152  1.0000
  Fe  Fe184     1.0  0.71911  0.52773  0.85043  1.0000
  H   H2823     1.0  0.62472  0.88113  0.93000  1.0000
  S   S365      1.0  0.71982  0.58014  0.80284  1.0000
  C   C1587     1.0  0.51831  0.65670  0.81658  1.0000
  Fe  Fe185     1.0  0.55782  0.78237  0.91016  1.0000
  S   S366      1.0  0.56005  0.76521  0.94305  1.0000
  S   S367      1.0  0.55945  0.75354  0.88131  1.0000
  Fe  Fe186     1.0  0.55559  0.84707  0.92376  1.0000
  S   S368      1.0  0.55765  0.83418  0.95793  1.0000
  S   S369      1.0  0.55318  0.89657  0.91788  1.0000
  Fe  Fe187     1.0  0.57664  0.80350  0.94648  1.0000
  S   S370      1.0  0.59977  0.79747  0.96285  1.0000
  Fe  Fe188     1.0  0.54083  0.79724  0.95142  1.0000
  H   H2824     1.0  0.65065  0.88971  0.94449  1.0000
  S   S371      1.0  0.57562  0.81856  0.91297  1.0000
  S   S372      1.0  0.53754  0.81218  0.91788  1.0000
  Fe  Fe189     1.0  0.68898  0.82152  0.92557  1.0000
  S   S373      1.0  0.70324  0.80173  0.89915  1.0000
  S   S374      1.0  0.66393  0.83099  0.91621  1.0000
  Fe  Fe190     1.0  0.71827  0.82963  0.95301  1.0000
  S   S375      1.0  0.73430  0.80992  0.92830  1.0000
  S   S376      1.0  0.72536  0.84969  0.98457  1.0000
  Fe  Fe191     1.0  0.72058  0.83760  0.90559  1.0000
  S   S377      1.0  0.73123  0.86371  0.87831  1.0000
  Fe  Fe192     1.0  0.71531  0.77575  0.92396  1.0000
  S   S378      1.0  0.71807  0.72562  0.92278  1.0000
  S   S379      1.0  0.70564  0.85905  0.93039  1.0000
  S   S380      1.0  0.70002  0.79360  0.95045  1.0000
  H   H2825     1.0  0.74511  0.59807  0.73944  1.0000
  H   H2826     1.0  0.74099  0.93145  0.80552  1.0000
  H   H2827     1.0  0.52124  0.58438  0.78990  1.0000
  H   H2828     1.0  0.67390  0.97187  0.87287  1.0000
  C   C1588     1.0  0.61770  0.80624  0.94981  1.0000
  C   C1589     1.0  0.63194  0.80043  0.95964  1.0000
  C   C1590     1.0  0.64633  0.80739  0.94951  1.0000
  C   C1591     1.0  0.64650  0.82025  0.92949  1.0000
  C   C1592     1.0  0.63228  0.82542  0.91953  1.0000
  C   C1593     1.0  0.61798  0.81853  0.92965  1.0000
  H   H2829     1.0  0.63186  0.79080  0.97523  1.0000
  H   H2830     1.0  0.65725  0.80324  0.95730  1.0000
  H   H2831     1.0  0.63237  0.83525  0.90401  1.0000
  H   H2832     1.0  0.60717  0.82298  0.92193  1.0000
  C   C1594     1.0  0.71887  0.70296  0.89997  1.0000
  C   C1595     1.0  0.71869  0.67211  0.90237  1.0000
  C   C1596     1.0  0.71968  0.65334  0.88474  1.0000
  C   C1597     1.0  0.72099  0.66524  0.86445  1.0000
  C   C1598     1.0  0.72112  0.69606  0.86206  1.0000
  C   C1599     1.0  0.71995  0.71483  0.87965  1.0000
  H   H2833     1.0  0.71791  0.66268  0.91800  1.0000
  H   H2834     1.0  0.71963  0.62971  0.88686  1.0000
  H   H2835     1.0  0.72220  0.70552  0.84646  1.0000
  H   H2836     1.0  0.72020  0.73846  0.87752  1.0000
  C   C1600     1.0  0.73280  0.96460  0.87979  1.0000
  C   C1601     1.0  0.73979  0.94915  0.86309  1.0000
  C   C1602     1.0  0.73913  0.91821  0.86272  1.0000
  C   C1603     1.0  0.73128  0.90257  0.87883  1.0000
  C   C1604     1.0  0.72378  0.91815  0.89505  1.0000
  C   C1605     1.0  0.72474  0.94901  0.89572  1.0000
  H   H2837     1.0  0.52398  0.66778  0.77512  1.0000
  H   H2838     1.0  0.70097  0.94382  0.97212  1.0000
  H   H2839     1.0  0.71739  0.90646  0.90723  1.0000
  H   H2840     1.0  0.71908  0.96086  0.90849  1.0000
  C   C1606     1.0  0.53583  0.60546  0.76635  1.0000
  H   H2841     1.0  0.53618  0.53563  0.87527  1.0000
  H   H2842     1.0  0.60224  0.64222  0.89741  1.0000
  C   C1607     1.0  0.68094  0.93461  0.79136  1.0000
  C   C1608     1.0  0.68684  0.97367  0.87182  1.0000
  C   C1609     1.0  0.56296  0.95534  0.85971  1.0000
  C   C1610     1.0  0.55858  0.96759  0.87909  1.0000
  C   C1611     1.0  0.55550  0.94919  0.89661  1.0000
  C   C1612     1.0  0.55680  0.91839  0.89503  1.0000
  C   C1613     1.0  0.56119  0.90612  0.87565  1.0000
  C   C1614     1.0  0.56424  0.92453  0.85810  1.0000
  H   H2843     1.0  0.53428  0.59945  0.94906  1.0000
  H   H2844     1.0  0.55209  0.95891  0.91151  1.0000
  H   H2845     1.0  0.56220  0.88248  0.87418  1.0000
  H   H2846     1.0  0.56759  0.91484  0.84316  1.0000
  C   C1615     1.0  0.55395  0.65338  0.88446  1.0000
  C   C1616     1.0  0.55276  0.66999  0.90297  1.0000
  C   C1617     1.0  0.55509  0.70067  0.90238  1.0000
  C   C1618     1.0  0.55826  0.71489  0.88322  1.0000
  C   C1619     1.0  0.56012  0.69810  0.86491  1.0000
  C   C1620     1.0  0.55815  0.66742  0.86560  1.0000
  H   H2847     1.0  0.55001  0.65910  0.91774  1.0000
  H   H2848     1.0  0.55424  0.71339  0.91661  1.0000
  H   H2849     1.0  0.56293  0.70889  0.85011  1.0000
  H   H2850     1.0  0.55953  0.65461  0.85149  1.0000
  C   C1621     1.0  0.63103  0.55819  0.83274  1.0000
  C   C1622     1.0  0.64502  0.55398  0.84349  1.0000
  C   C1623     1.0  0.65924  0.54965  0.83244  1.0000
  C   C1624     1.0  0.65971  0.55008  0.81047  1.0000
  C   C1625     1.0  0.64565  0.55357  0.79966  1.0000
  C   C1626     1.0  0.63132  0.55749  0.81075  1.0000
  H   H2851     1.0  0.64488  0.55432  0.86050  1.0000
  H   H2852     1.0  0.66985  0.54626  0.84098  1.0000
  C   C1627     1.0  0.75508  0.99566  0.76234  1.0000
  H   H2853     1.0  0.62061  0.56072  0.80229  1.0000
  C   C1628     1.0  0.62840  0.90413  0.93229  1.0000
  H   H2854     1.0  0.72354  0.96608  0.95332  1.0000
  H   H2855     1.0  0.53543  0.69995  0.94193  1.0000
  H   H2856     1.0  0.59155  0.85402  0.86959  1.0000
  H   H2857     1.0  0.67115  0.72464  0.92422  1.0000
  C   C1629     1.0  0.71887  0.90791  0.80242  1.0000
  C   C1630     1.0  0.75509  0.96694  0.93738  1.0000
  H   H2858     1.0  0.69197  0.93849  0.78222  1.0000
  H   H2859     1.0  0.67506  0.89308  0.85811  1.0000
  C   C1631     1.0  0.72554  0.94590  0.96277  1.0000
  S   S381      1.0  0.71708  0.51105  0.81743  1.0000
  C   C1632     1.0  0.70991  0.92958  0.96435  1.0000
  C   C1633     1.0  0.64628  0.90451  0.93195  1.0000
  N   N88       1.0  0.69403  0.91769  0.82572  1.0000
  C   C1634     1.0  0.68317  0.91017  0.80817  1.0000
  C   C1635     1.0  0.69689  0.89032  0.83855  1.0000
  C   C1636     1.0  0.68656  0.94166  0.83897  1.0000
  C   C1637     1.0  0.70953  0.92893  0.81716  1.0000
  H   H2860     1.0  0.74286  0.99601  0.96054  1.0000
  C   C1638     1.0  0.52860  0.54627  0.92807  1.0000
  C   C1639     1.0  0.59438  0.92667  0.92995  1.0000
  C   C1640     1.0  0.68218  0.87658  0.84943  1.0000
  H   H2861     1.0  0.67178  0.90520  0.76755  1.0000
  H   H2862     1.0  0.57280  0.97338  0.75886  1.0000
  H   H2863     1.0  0.60688  0.90042  0.86782  1.0000
  C   C1641     1.0  0.59083  0.89970  0.94451  1.0000
  H   H2864     1.0  0.67132  0.90483  0.81475  1.0000
  C   C1642     1.0  0.74165  0.57519  0.73558  1.0000
  H   H2865     1.0  0.70197  0.87261  0.82852  1.0000
  H   H2866     1.0  0.70592  0.89450  0.85053  1.0000
  H   H2867     1.0  0.67387  0.93739  0.84178  1.0000
  H   H2868     1.0  0.68699  0.96306  0.83038  1.0000
  H   H2869     1.0  0.70790  0.95001  0.80858  1.0000
  H   H2870     1.0  0.71747  0.93428  0.83018  1.0000
  H   H2871     1.0  0.65076  0.92708  0.93473  1.0000
  H   H2872     1.0  0.62437  0.91150  0.94813  1.0000
  C   C1643     1.0  0.73820  0.92662  0.95190  1.0000
  H   H2873     1.0  0.62434  0.94746  0.92087  1.0000
  H   H2874     1.0  0.62241  0.88331  0.88234  1.0000
  H   H2875     1.0  0.69232  0.92776  0.87125  1.0000
  H   H2876     1.0  0.76293  0.50634  0.83858  1.0000
  N   N89       1.0  0.52859  0.68054  0.80697  1.0000
  H   H2877     1.0  0.65694  0.92294  0.78390  1.0000
  H   H2878     1.0  0.57050  0.91935  0.96023  1.0000
  H   H2879     1.0  0.74487  0.90636  0.85001  1.0000
  H   H2880     1.0  0.66528  0.73328  0.89790  1.0000
  H   H2881     1.0  0.52964  0.96693  0.85662  1.0000
  H   H2882     1.0  0.74547  0.56026  0.74836  1.0000
  H   H2883     1.0  0.60259  0.78309  0.84861  1.0000
  H   H2884     1.0  0.74462  0.58148  0.70233  1.0000
  C   C1644     1.0  0.68678  0.85276  0.86511  1.0000
  H   H2885     1.0  0.53380  0.74180  0.79826  1.0000
  H   H2886     1.0  0.66728  0.94360  0.76375  1.0000
  H   H2887     1.0  0.66301  0.76026  0.91860  1.0000
  H   H2888     1.0  0.74599  0.96103  0.85069  1.0000
  H   H2889     1.0  0.61056  0.84905  0.85728  1.0000
  H   H2890     1.0  0.74421  0.97338  0.73661  1.0000
  C   C1645     1.0  0.60075  0.94474  0.89431  1.0000
  C   C1646     1.0  0.53581  0.62201  0.74755  1.0000
  H   H2891     1.0  0.52691  0.72242  0.96163  1.0000
  H   H2892     1.0  0.52446  0.65918  0.85018  1.0000
  H   H2893     1.0  0.58343  0.88348  0.93632  1.0000
  H   H2894     1.0  0.58973  0.75512  0.85923  1.0000
  C   C1647     1.0  0.52630  0.70005  0.95461  1.0000
  C   C1648     1.0  0.55577  0.68087  0.78691  1.0000
  H   H2895     1.0  0.72879  0.95194  0.97896  1.0000
  H   H2896     1.0  0.72868  0.57420  0.73493  1.0000
  H   H2897     1.0  0.55193  0.67162  0.77171  1.0000
  H   H2898     1.0  0.59190  0.64889  0.87353  1.0000
  C   C1649     1.0  0.60435  0.85409  0.87235  1.0000
  H   H2899     1.0  0.60712  0.83656  0.88388  1.0000
  H   H2900     1.0  0.58920  0.52756  0.93345  1.0000
  H   H2901     1.0  0.55844  0.97808  0.79228  1.0000
  C   C1650     1.0  0.74886  0.56594  0.71441  1.0000
  H   H2902     1.0  0.53705  0.75405  0.84551  1.0000
  H   H2903     1.0  0.54979  0.72988  0.81451  1.0000
  H   H2904     1.0  0.55625  0.67672  0.96271  1.0000
  H   H2905     1.0  0.71169  0.90015  0.78924  1.0000
  C   C1651     1.0  0.69399  0.94702  0.86066  1.0000
  H   H2906     1.0  0.56309  0.50937  0.94223  1.0000
  C   C1652     1.0  0.62178  0.92487  0.91534  1.0000
  H   H2907     1.0  0.69408  0.83561  0.85728  1.0000
  H   H2908     1.0  0.72974  0.94248  0.78307  1.0000
  H   H2909     1.0  0.60373  0.87387  0.91246  1.0000
  H   H2910     1.0  0.59935  0.94457  0.93969  1.0000
  C   C1653     1.0  0.60956  0.88418  0.88030  1.0000
  H   H2911     1.0  0.54117  0.77937  0.82426  1.0000
  C   C1654     1.0  0.75519  0.97901  0.74369  1.0000
  C   C1655     1.0  0.60104  0.89187  0.90134  1.0000
  C   C1656     1.0  0.52146  0.59737  0.77560  1.0000
  H   H2912     1.0  0.61298  0.64929  0.87313  1.0000
  H   H2913     1.0  0.53241  0.70102  0.83704  1.0000
  N   N90       1.0  0.52361  0.99035  0.79228  1.0000
  N   N91       1.0  0.60464  0.92161  0.91059  1.0000
  H   H2914     1.0  0.74060  0.50299  0.76070  1.0000
  H   H2915     1.0  0.58822  0.89009  0.89878  1.0000
  H   H2916     1.0  0.67612  0.84212  0.87192  1.0000
  H   H2917     1.0  0.70663  0.95119  0.85872  1.0000
  S   S382      1.0  0.75955  0.53394  0.79164  1.0000
  H   H2918     1.0  0.59165  0.78993  0.87266  1.0000
  H   H2919     1.0  0.58006  0.68000  0.77622  1.0000
  H   H2920     1.0  0.52876  0.73879  0.92150  1.0000
  N   N92       1.0  0.66537  0.64251  0.83396  1.0000
  C   C1657     1.0  0.67821  0.63052  0.81973  1.0000
  C   C1658     1.0  0.66577  0.62668  0.85487  1.0000
  C   C1659     1.0  0.64995  0.63517  0.82396  1.0000
  C   C1660     1.0  0.66636  0.67550  0.83687  1.0000
  C   C1661     1.0  0.68298  0.68945  0.83652  1.0000
  C   C1662     1.0  0.67752  0.64052  0.79637  1.0000
  C   C1663     1.0  0.63493  0.64155  0.83731  1.0000
  C   C1664     1.0  0.68051  0.63116  0.86815  1.0000
  C   C1665     1.0  0.68004  0.61138  0.88768  1.0000
  C   C1666     1.0  0.68256  0.72114  0.84447  1.0000
  C   C1667     1.0  0.69269  0.63372  0.78429  1.0000
  C   C1668     1.0  0.62033  0.64064  0.82384  1.0000
  H   H2921     1.0  0.67791  0.60598  0.81976  1.0000
  H   H2922     1.0  0.68996  0.63597  0.82563  1.0000
  H   H2923     1.0  0.65587  0.63367  0.86529  1.0000
  H   H2924     1.0  0.66425  0.60262  0.85244  1.0000
  H   H2925     1.0  0.64961  0.61146  0.81960  1.0000
  H   H2926     1.0  0.64873  0.64757  0.80896  1.0000
  H   H2927     1.0  0.65985  0.68728  0.82441  1.0000
  H   H2928     1.0  0.66038  0.68184  0.85191  1.0000
  H   H2929     1.0  0.68799  0.68984  0.82028  1.0000
  H   H2930     1.0  0.69125  0.67710  0.84626  1.0000
  H   H2931     1.0  0.66801  0.62853  0.78837  1.0000
  H   H2932     1.0  0.67515  0.66443  0.79506  1.0000
  H   H2933     1.0  0.63549  0.66347  0.84485  1.0000
  H   H2934     1.0  0.63342  0.62444  0.84973  1.0000
  H   H2935     1.0  0.69134  0.62582  0.85914  1.0000
  H   H2936     1.0  0.68111  0.65420  0.87379  1.0000
  H   H2937     1.0  0.67965  0.58781  0.88313  1.0000
  H   H2938     1.0  0.69074  0.61504  0.89691  1.0000
  H   H2939     1.0  0.66967  0.61655  0.89781  1.0000
  H   H2940     1.0  0.67886  0.72168  0.86132  1.0000
  H   H2941     1.0  0.69446  0.73092  0.84305  1.0000
  H   H2942     1.0  0.67446  0.73472  0.83507  1.0000
  H   H2943     1.0  0.69213  0.64286  0.76811  1.0000
  H   H2944     1.0  0.70292  0.64355  0.79216  1.0000
  H   H2945     1.0  0.69423  0.60952  0.78307  1.0000
  H   H2946     1.0  0.60968  0.64338  0.83395  1.0000
  H   H2947     1.0  0.62065  0.65855  0.81190  1.0000
  H   H2948     1.0  0.61945  0.61911  0.81573  1.0000
  N   N93       1.0  0.61691  0.72807  0.90859  1.0000
  C   C1669     1.0  0.60613  0.74978  0.89816  1.0000
  C   C1670     1.0  0.61206  0.72484  0.93144  1.0000
  C   C1671     1.0  0.63320  0.74124  0.90790  1.0000
  C   C1672     1.0  0.61730  0.69841  0.89785  1.0000
  C   C1673     1.0  0.60200  0.68811  0.88721  1.0000
  C   C1674     1.0  0.61152  0.76016  0.87585  1.0000
  C   C1675     1.0  0.64594  0.72442  0.92015  1.0000
  C   C1676     1.0  0.59549  0.71245  0.93612  1.0000
  C   C1677     1.0  0.59177  0.71274  0.95973  1.0000
  C   C1678     1.0  0.60237  0.65515  0.88254  1.0000
  C   C1679     1.0  0.59802  0.77289  0.86340  1.0000
  C   C1680     1.0  0.66229  0.73643  0.91482  1.0000
  H   H2949     1.0  0.60481  0.76990  0.90799  1.0000
  H   H2950     1.0  0.59404  0.74115  0.89721  1.0000
  H   H2951     1.0  0.62008  0.70968  0.93972  1.0000
  H   H2952     1.0  0.61303  0.74647  0.93950  1.0000
  H   H2953     1.0  0.63292  0.76411  0.91412  1.0000
  H   H2954     1.0  0.63766  0.74311  0.89138  1.0000
  H   H2955     1.0  0.62654  0.69790  0.88522  1.0000
  H   H2956     1.0  0.62085  0.68102  0.90920  1.0000
  H   H2957     1.0  0.60056  0.70000  0.87208  1.0000
  H   H2958     1.0  0.59137  0.69233  0.89693  1.0000
  H   H2959     1.0  0.62052  0.77768  0.87728  1.0000
  H   H2960     1.0  0.61675  0.74182  0.86663  1.0000
  H   H2961     1.0  0.64582  0.70058  0.91645  1.0000
  H   H2962     1.0  0.64405  0.72727  0.93736  1.0000
  H   H2963     1.0  0.58636  0.72552  0.92826  1.0000
  H   H2964     1.0  0.59480  0.68919  0.93101  1.0000
  H   H2965     1.0  0.59199  0.73556  0.96588  1.0000
  H   H2966     1.0  0.57992  0.70366  0.96277  1.0000
  H   H2967     1.0  0.60033  0.69916  0.96839  1.0000
  H   H2968     1.0  0.54685  0.62821  0.74013  1.0000
  H   H2969     1.0  0.58259  0.93442  0.92522  1.0000
  C   C1681     1.0  0.55188  0.52129  0.91229  1.0000
  C   C1682     1.0  0.73327  0.92345  0.79293  1.0000
  H   H2970     1.0  0.57388  0.64746  0.79032  1.0000
  H   H2971     1.0  0.74005  0.90792  0.78284  1.0000
  H   H2972     1.0  0.51984  0.76195  0.88933  1.0000
  H   H2973     1.0  0.57745  0.68124  0.80444  1.0000
  H   H2974     1.0  0.70578  0.92381  0.94845  1.0000
  H   H2975     1.0  0.74829  0.79550  0.98587  1.0000
  C   C1683     1.0  0.53705  0.73445  0.81421  1.0000
  H   H2976     1.0  0.65099  0.89634  0.91662  1.0000
  H   H2977     1.0  0.73370  0.92245  0.93600  1.0000
  C   C1684     1.0  0.56276  0.98884  0.75983  1.0000
  H   H2978     1.0  0.62903  0.92252  0.90072  1.0000
  C   C1685     1.0  0.55156  0.97941  0.77769  1.0000
  C   C1686     1.0  0.57283  0.67182  0.78974  1.0000
  H   H2979     1.0  0.64587  0.55370  0.78264  1.0000
  C   C1687     1.0  0.54516  0.66885  0.80516  1.0000
  H   H2980     1.0  0.55133  0.67230  0.82011  1.0000
  C   C1688     1.0  0.75206  0.51307  0.91904  1.0000
  C   C1689     1.0  0.76429  0.51152  0.76959  1.0000
  H   H2981     1.0  0.52039  0.94426  0.78460  1.0000
  C   C1690     1.0  0.52396  0.64266  0.83744  1.0000
  H   H2982     1.0  0.52142  0.76667  0.82896  1.0000
  H   H2983     1.0  0.74628  0.96579  0.92480  1.0000
  C   C1691     1.0  0.58181  0.90899  0.96438  1.0000
  H   H2984     1.0  0.71105  0.90912  0.97383  1.0000
  H   H2985     1.0  0.53705  0.95971  0.81090  1.0000
  C   C1692     1.0  0.52880  0.97841  0.81325  1.0000
  H   H2986     1.0  0.60148  0.88805  0.94941  1.0000
  H   H2987     1.0  0.55539  0.70513  0.78562  1.0000
  H   H2988     1.0  0.54506  0.64459  0.80275  1.0000
  H   H2989     1.0  0.60899  0.98317  0.91259  1.0000
  H   H2990     1.0  0.75855  0.53084  0.68157  1.0000
  H   H2991     1.0  0.55207  0.66724  0.98981  1.0000
  H   H2992     1.0  0.52941  0.70503  0.77747  1.0000
  H   H2993     1.0  0.69346  0.86255  0.87816  1.0000
  H   H2994     1.0  0.75927  0.57964  0.67236  1.0000
  C   C1693     1.0  0.52778  0.70683  0.82137  1.0000
  H   H2995     1.0  0.55750  0.99122  0.88056  1.0000
  H   H2996     1.0  0.69016  0.99420  0.86332  1.0000
  H   H2997     1.0  0.57926  0.88930  0.97430  1.0000
  H   H2998     1.0  0.58962  0.99369  0.87303  1.0000
  C   C1694     1.0  0.52455  0.53273  0.88303  1.0000
  H   H2999     1.0  0.69147  0.97516  0.88796  1.0000
  C   C1695     1.0  0.53393  0.76013  0.82918  1.0000
  H   H3000     1.0  0.54213  0.54787  0.95751  1.0000
  H   H3001     1.0  0.75726  0.84462  0.96691  1.0000
  C   C1696     1.0  0.66846  0.92591  0.77572  1.0000
  H   H3002     1.0  0.56253  0.54844  0.93643  1.0000
  C   C1697     1.0  0.53018  0.55217  0.95195  1.0000
  C   C1698     1.0  0.52248  0.68742  0.78539  1.0000
  H   H3003     1.0  0.75377  0.96102  0.98085  1.0000
  H   H3004     1.0  0.53551  0.99546  0.82180  1.0000
  H   H3005     1.0  0.60970  0.94483  0.88131  1.0000
  C   C1699     1.0  0.54881  0.68211  0.97670  1.0000
  H   H3006     1.0  0.52470  0.68065  0.98650  1.0000
  H   H3007     1.0  0.72309  0.88852  0.81132  1.0000
  H   H3008     1.0  0.76019  0.95540  0.68369  1.0000
  H   H3009     1.0  0.52185  0.66898  0.92128  1.0000
  H   H3010     1.0  0.52994  0.93244  0.84247  1.0000
  H   H3011     1.0  0.67466  0.86619  0.83753  1.0000
  H   H3012     1.0  0.55303  0.54051  0.90148  1.0000
  N   N94       1.0  0.53508  0.51755  0.91955  1.0000
  H   H3013     1.0  0.74499  0.97027  0.66733  1.0000
  H   H3014     1.0  0.58813  0.97986  0.91135  1.0000
  H   H3015     1.0  0.74915  0.89111  0.91980  1.0000
  C   C1700     1.0  0.75279  0.99659  0.94914  1.0000
  H   H3016     1.0  0.54720  0.95698  0.77432  1.0000
  H   H3017     1.0  0.74435  0.54363  0.71078  1.0000
  H   H3018     1.0  0.73829  0.90478  0.95998  1.0000
  C   C1701     1.0  0.75774  0.85668  0.98152  1.0000
  H   H3019     1.0  0.51691  0.63851  0.80514  1.0000
  H   H3020     1.0  0.52199  0.53767  0.96105  1.0000
  H   H3021     1.0  0.58880  0.92471  0.97365  1.0000
  H   H3022     1.0  0.67724  0.95566  0.79871  1.0000
  C   C1702     1.0  0.75966  0.90541  0.91811  1.0000
  H   H3023     1.0  0.53020  0.65466  0.96653  1.0000
  H   H3024     1.0  0.53392  0.56528  0.91933  1.0000
  H   H3025     1.0  0.51734  0.60805  0.85950  1.0000
  C   C1703     1.0  0.52251  0.95132  0.84747  1.0000
  H   H3026     1.0  0.53572  0.63262  0.83546  1.0000
  H   H3027     1.0  0.68708  0.88980  0.79996  1.0000
  H   H3028     1.0  0.75694  0.92425  0.90765  1.0000
  H   H3029     1.0  0.74287  0.52395  0.90966  1.0000
  C   C1704     1.0  0.52562  0.50914  0.90067  1.0000
  H   H3030     1.0  0.76348  0.51621  0.91065  1.0000
  H   H3031     1.0  0.76317  0.62042  0.69869  1.0000
  H   H3032     1.0  0.58947  0.93943  0.88677  1.0000
  H   H3033     1.0  0.58283  0.54234  0.90881  1.0000
  C   C1705     1.0  0.59928  0.97698  0.90228  1.0000
  H   H3034     1.0  0.55669  0.98866  0.74457  1.0000
  C   C1706     1.0  0.58074  0.52462  0.92062  1.0000
  C   C1707     1.0  0.53160  0.67774  0.97166  1.0000
  H   H3035     1.0  0.55106  0.70518  0.98153  1.0000
  N   N95       1.0  0.75458  0.93907  0.95051  1.0000
  H   H3036     1.0  0.74731  0.75602  0.98501  1.0000
  C   C1708     1.0  0.74391  0.86245  0.99290  1.0000
  H   H3037     1.0  0.58299  0.50290  0.91319  1.0000
  H   H3038     1.0  0.52813  0.96260  0.75002  1.0000
  H   H3039     1.0  0.52694  0.58753  0.97449  1.0000
  C   C1709     1.0  0.52605  0.58408  0.95728  1.0000
  H   H3040     1.0  0.52060  0.55440  0.88904  1.0000
  C   C1710     1.0  0.76490  0.91618  0.93999  1.0000
  C   C1711     1.0  0.52166  0.63078  0.73829  1.0000
  H   H3041     1.0  0.52189  0.64357  0.72390  1.0000
  H   H3042     1.0  0.53551  0.74809  0.99640  1.0000
  C   C1712     1.0  0.76038  0.94348  0.97252  1.0000
  H   H3043     1.0  0.75803  0.92344  0.98217  1.0000
  H   H3044     1.0  0.75239  0.52390  0.93464  1.0000
  H   H3045     1.0  0.76588  0.89636  0.95021  1.0000
  S   S383      1.0  0.71877  0.49803  0.87926  1.0000
  H   H3046     1.0  0.52026  0.71169  0.90448  1.0000
  H   H3047     1.0  0.52035  0.56821  0.71735  1.0000
  H   H3048     1.0  0.55566  0.50216  0.90264  1.0000
  C   C1713     1.0  0.75284  0.49902  0.75705  1.0000
  S   S384      1.0  0.51773  0.78801  0.96937  1.0000
  H   H3049     1.0  0.53891  0.49848  0.95048  1.0000
  C   C1714     1.0  0.75779  0.96671  0.66860  1.0000
  H   H3050     1.0  0.51682  0.50222  0.85895  1.0000
  C   C1715     1.0  0.51765  0.73053  0.91499  1.0000
  C   C1716     1.0  0.74732  0.77530  0.99570  1.0000
  Fe  Fe193     1.0  0.97853  0.43021  0.05189  1.0000
  S   S385      1.0  0.98369  0.41110  0.08387  1.0000
  S   S386      1.0  0.99937  0.42998  0.02854  1.0000
  Fe  Fe194     1.0  0.94429  0.44315  0.06490  1.0000
  S   S387      1.0  0.94741  0.42606  0.09757  1.0000
  S   S388      1.0  0.92115  0.46568  0.05831  1.0000
  Fe  Fe195     1.0  0.97031  0.45029  0.09613  1.0000
  C   C1717     1.0  0.00208  0.04972  0.03249  1.0000
  Fe  Fe196     1.0  0.96031  0.38838  0.08239  1.0000
  S   S389      1.0  0.95259  0.34123  0.09031  1.0000
  S   S390      1.0  0.96639  0.47047  0.06454  1.0000
  S   S391      1.0  0.95600  0.40438  0.04928  1.0000
  Fe  Fe197     1.0  0.79883  0.41552  0.05080  1.0000
  S   S392      1.0  0.79427  0.43628  0.08261  1.0000
  H   H3051     1.0  0.01422  0.18670  0.03685  1.0000
  Fe  Fe198     1.0  0.83432  0.41336  0.05856  1.0000
  S   S393      1.0  0.83206  0.43421  0.09028  1.0000
  S   S394      1.0  0.85780  0.39374  0.04908  1.0000
  Fe  Fe199     1.0  0.81163  0.40355  0.09473  1.0000
  S   S395      1.0  0.81003  0.37903  0.12578  1.0000
  Fe  Fe200     1.0  0.81508  0.46520  0.07537  1.0000
  H   H3052     1.0  0.80416  0.33640  0.19340  1.0000
  S   S396      1.0  0.81468  0.38076  0.06376  1.0000
  S   S397      1.0  0.81878  0.44648  0.04272  1.0000
  Fe  Fe201     1.0  0.97095  0.14251  0.14274  1.0000
  S   S398      1.0  0.96667  0.11775  0.17281  1.0000
  S   S399      1.0  0.97214  0.12098  0.11093  1.0000
  Fe  Fe202     1.0  0.97175  0.20252  0.16405  1.0000
  S   S400      1.0  0.96739  0.18235  0.19630  1.0000
  S   S401      1.0  0.97841  0.25079  0.15839  1.0000
  Fe  Fe203     1.0  0.98484  0.14719  0.18679  1.0000
  S   S402      1.0  0.00743  0.13202  0.20247  1.0000
  Fe  Fe204     1.0  0.94950  0.15432  0.17980  1.0000
  S   S403      1.0  0.92548  0.13890  0.19133  1.0000
  S   S404      1.0  0.99032  0.16927  0.15571  1.0000
  S   S405      1.0  0.95267  0.17705  0.14858  1.0000
  Fe  Fe205     1.0  0.80883  0.21172  0.15050  1.0000
  S   S406      1.0  0.82120  0.23064  0.17787  1.0000
  S   S407      1.0  0.80062  0.24056  0.12370  1.0000
  Fe  Fe206     1.0  0.81403  0.14828  0.16508  1.0000
  S   S408      1.0  0.82681  0.16360  0.19389  1.0000
  S   S409      1.0  0.81386  0.09812  0.16076  1.0000
  Fe  Fe207     1.0  0.80761  0.19772  0.19746  1.0000
  S   S410      1.0  0.79905  0.21345  0.23014  1.0000
  Fe  Fe208     1.0  0.83911  0.19537  0.17201  1.0000
  S   S411      1.0  0.86431  0.21054  0.16768  1.0000
  S   S412      1.0  0.79398  0.18029  0.17015  1.0000
  S   S413      1.0  0.82752  0.17843  0.14327  1.0000
  H   H3053     1.0  0.81616  0.16753  0.28513  1.0000
  H   H3054     1.0  0.90198  0.14648  0.13725  1.0000
  H   H3055     1.0  0.99542  0.21697  0.12703  1.0000
  H   H3056     1.0  0.97761  0.02657  0.00945  1.0000
  H   H3057     1.0  0.77841  0.27246  0.04795  1.0000
  H   H3058     1.0  0.78697  0.39918  0.19223  1.0000
  H   H3059     1.0  0.82267  0.31554  0.21185  1.0000
  N   N96       1.0  0.86179  0.09276  0.12963  1.0000
  C   C1718     1.0  0.94938  0.19699  0.09256  1.0000
  C   C1719     1.0  0.97375  0.04179  0.21072  1.0000
  C   C1720     1.0  0.90851  0.15859  0.18423  1.0000
  C   C1721     1.0  0.90958  0.18554  0.17359  1.0000
  C   C1722     1.0  0.89591  0.20105  0.16857  1.0000
  C   C1723     1.0  0.88106  0.18977  0.17403  1.0000
  C   C1724     1.0  0.87995  0.16265  0.18445  1.0000
  C   C1725     1.0  0.89364  0.14712  0.18952  1.0000
  H   H3060     1.0  0.92093  0.19471  0.16956  1.0000
  H   H3061     1.0  0.89686  0.22207  0.16058  1.0000
  H   H3062     1.0  0.86857  0.15407  0.18902  1.0000
  H   H3063     1.0  0.89273  0.12641  0.19792  1.0000
  H   H3064     1.0  0.97489  0.05316  0.22604  1.0000
  C   C1726     1.0  0.80388  0.03725  0.10454  1.0000
  C   C1727     1.0  0.81129  0.02656  0.12242  1.0000
  C   C1728     1.0  0.81411  0.04547  0.13949  1.0000
  C   C1729     1.0  0.80984  0.07540  0.13878  1.0000
  C   C1730     1.0  0.80279  0.08626  0.12069  1.0000
  C   C1731     1.0  0.79973  0.06723  0.10377  1.0000
  H   H3065     1.0  0.97247  0.06390  0.01654  1.0000
  H   H3066     1.0  0.81950  0.03677  0.15342  1.0000
  H   H3067     1.0  0.79943  0.10918  0.11988  1.0000
  H   H3068     1.0  0.79396  0.07573  0.09005  1.0000
  C   C1732     1.0  0.80815  0.34046  0.12475  1.0000
  C   C1733     1.0  0.81105  0.32358  0.14273  1.0000
  C   C1734     1.0  0.80936  0.29282  0.14234  1.0000
  C   C1735     1.0  0.80441  0.27878  0.12414  1.0000
  C   C1736     1.0  0.80179  0.29568  0.10606  1.0000
  C   C1737     1.0  0.80369  0.32640  0.10636  1.0000
  H   H3069     1.0  0.81469  0.33432  0.15693  1.0000
  H   H3070     1.0  0.81168  0.28005  0.15617  1.0000
  H   H3071     1.0  0.79834  0.28493  0.09179  1.0000
  H   H3072     1.0  0.80151  0.33928  0.09249  1.0000
  H   H3073     1.0  0.99581  0.13865  0.31860  1.0000
  H   H3074     1.0  0.81446  0.00355  0.12332  1.0000
  H   H3075     1.0  0.00067  0.27959  0.05169  1.0000
  C   C1738     1.0  0.95910  0.31787  0.11082  1.0000
  C   C1739     1.0  0.95101  0.29138  0.11495  1.0000
  C   C1740     1.0  0.95645  0.27103  0.12993  1.0000
  C   C1741     1.0  0.97027  0.27665  0.14062  1.0000
  C   C1742     1.0  0.97819  0.30336  0.13675  1.0000
  C   C1743     1.0  0.97262  0.32394  0.12202  1.0000
  H   H3076     1.0  0.94053  0.28650  0.10641  1.0000
  H   H3077     1.0  0.95010  0.25082  0.13299  1.0000
  H   H3078     1.0  0.98879  0.30807  0.14509  1.0000
  H   H3079     1.0  0.97896  0.34420  0.11902  1.0000
  C   C1744     1.0  0.98451  0.02331  0.11362  1.0000
  C   C1745     1.0  0.97635  0.03482  0.09666  1.0000
  C   C1746     1.0  0.97233  0.06475  0.09612  1.0000
  C   C1747     1.0  0.97652  0.08336  0.11252  1.0000
  C   C1748     1.0  0.98454  0.07190  0.12962  1.0000
  C   C1749     1.0  0.98852  0.04195  0.13012  1.0000
  H   H3080     1.0  0.97331  0.02087  0.08379  1.0000
  H   H3081     1.0  0.96605  0.07359  0.08294  1.0000
  H   H3082     1.0  0.98794  0.08621  0.14228  1.0000
  H   H3083     1.0  0.97005  0.01865  0.21357  1.0000
  C   C1750     1.0  0.90360  0.44503  0.05719  1.0000
  C   C1751     1.0  0.88916  0.45982  0.05770  1.0000
  C   C1752     1.0  0.87502  0.44422  0.05595  1.0000
  C   C1753     1.0  0.87523  0.41373  0.05310  1.0000
  C   C1754     1.0  0.88964  0.39888  0.05275  1.0000
  C   C1755     1.0  0.90377  0.41439  0.05508  1.0000
  S   S414      1.0  0.97786  0.47706  0.12404  1.0000
  H   H3084     1.0  0.86398  0.45589  0.05609  1.0000
  H   H3085     1.0  0.88991  0.37532  0.05040  1.0000
  H   H3086     1.0  0.91481  0.40275  0.05459  1.0000
  H   H3087     1.0  0.81598  0.27930  0.20538  1.0000
  C   C1756     1.0  0.85601  0.04698  0.10664  1.0000
  C   C1757     1.0  0.78639  0.28698  0.19737  1.0000
  H   H3088     1.0  0.83748  0.09113  0.12118  1.0000
  H   H3089     1.0  0.88239  0.10614  0.14652  1.0000
  H   H3090     1.0  0.00042  0.47481  0.07549  1.0000
  H   H3091     1.0  0.97854  0.27739  0.09080  1.0000
  H   H3092     1.0  0.77414  0.14725  0.28922  1.0000
  C   C1758     1.0  0.80066  0.30289  0.22829  1.0000
  C   C1759     1.0  0.01333  0.47267  0.07602  1.0000
  H   H3093     1.0  0.99173  0.17455  0.07428  1.0000
  H   H3094     1.0  0.92203  0.04258  0.15288  1.0000
  H   H3095     1.0  0.80068  0.17525  0.26723  1.0000
  H   H3096     1.0  0.00880  0.15128  0.04759  1.0000
  H   H3097     1.0  0.00680  0.29010  0.07751  1.0000
  C   C1760     1.0  0.97644  0.21998  0.09398  1.0000
  H   H3098     1.0  0.82960  0.29776  0.24764  1.0000
  N   N97       1.0  0.01466  0.05071  0.04885  1.0000
  H   H3099     1.0  0.84251  0.12284  0.13489  1.0000
  C   C1761     1.0  0.98409  0.26627  0.07698  1.0000
  S   S415      1.0  0.79904  0.01399  0.08314  1.0000
  H   H3100     1.0  0.92392  0.46644  0.12336  1.0000
  C   C1762     1.0  0.97378  0.04108  0.02257  1.0000
  H   H3101     1.0  0.00601  0.11722  0.29978  1.0000
  C   C1763     1.0  0.77152  0.38374  0.01128  1.0000
  H   H3102     1.0  0.79694  0.16118  0.31436  1.0000
  C   C1764     1.0  0.78207  0.36326  0.00282  1.0000
  H   H3103     1.0  0.79501  0.28993  0.18422  1.0000
  H   H3104     1.0  0.94203  0.02462  0.10358  1.0000
  H   H3105     1.0  0.77482  0.36954  0.07953  1.0000
  C   C1765     1.0  0.85527  0.09412  0.16989  1.0000
  N   N98       1.0  0.86175  0.33563  0.11652  1.0000
  C   C1766     1.0  0.86020  0.36822  0.11206  1.0000
  C   C1767     1.0  0.85093  0.31809  0.10277  1.0000
  C   C1768     1.0  0.85658  0.33058  0.13915  1.0000
  C   C1769     1.0  0.87844  0.32508  0.11402  1.0000
  C   C1770     1.0  0.88685  0.33182  0.09272  1.0000
  C   C1771     1.0  0.87096  0.38879  0.12477  1.0000
  C   C1772     1.0  0.85525  0.29790  0.14644  1.0000
  C   C1773     1.0  0.84832  0.32970  0.08016  1.0000
  C   C1774     1.0  0.83925  0.30755  0.06716  1.0000
  C   C1775     1.0  0.90440  0.32550  0.09382  1.0000
  C   C1776     1.0  0.86898  0.42093  0.11814  1.0000
  C   C1777     1.0  0.85005  0.29582  0.16955  1.0000
  H   H3106     1.0  0.84783  0.37531  0.11488  1.0000
  H   H3107     1.0  0.86266  0.37340  0.09525  1.0000
  H   H3108     1.0  0.85490  0.29478  0.10167  1.0000
  H   H3109     1.0  0.83893  0.31711  0.11003  1.0000
  H   H3110     1.0  0.84495  0.34107  0.14221  1.0000
  H   H3111     1.0  0.86482  0.34124  0.15006  1.0000
  H   H3112     1.0  0.88571  0.33402  0.12682  1.0000
  H   H3113     1.0  0.87906  0.30078  0.11602  1.0000
  H   H3114     1.0  0.88562  0.35514  0.08794  1.0000
  H   H3115     1.0  0.88214  0.31747  0.08031  1.0000
  H   H3116     1.0  0.86816  0.38748  0.14184  1.0000
  H   H3117     1.0  0.88346  0.38305  0.12212  1.0000
  H   H3118     1.0  0.86668  0.28647  0.14489  1.0000
  H   H3119     1.0  0.84656  0.28561  0.13718  1.0000
  H   H3120     1.0  0.84132  0.35024  0.08091  1.0000
  H   H3121     1.0  0.85941  0.33469  0.07164  1.0000
  H   H3122     1.0  0.82786  0.30223  0.07500  1.0000
  H   H3123     1.0  0.83696  0.31716  0.05143  1.0000
  H   H3124     1.0  0.84612  0.28701  0.06501  1.0000
  H   H3125     1.0  0.90651  0.30215  0.09816  1.0000
  H   H3126     1.0  0.91010  0.32985  0.07823  1.0000
  H   H3127     1.0  0.90998  0.34004  0.10549  1.0000
  H   H3128     1.0  0.87732  0.43497  0.12672  1.0000
  H   H3129     1.0  0.87140  0.42367  0.10099  1.0000
  H   H3130     1.0  0.85692  0.42855  0.12194  1.0000
  H   H3131     1.0  0.85854  0.30718  0.17971  1.0000
  H   H3132     1.0  0.83826  0.30563  0.17195  1.0000
  H   H3133     1.0  0.84951  0.27233  0.17443  1.0000
  H   H3134     1.0  0.93899  0.19388  0.08264  1.0000
  H   H3135     1.0  0.79584  0.35688  0.21428  1.0000
  C   C1778     1.0  0.00303  0.24076  0.09876  1.0000
  H   H3136     1.0  0.00597  0.02171  0.07379  1.0000
  H   H3137     1.0  0.96453  0.05314  0.20169  1.0000
  N   N99       1.0  0.92319  0.01374  0.12582  1.0000
  H   H3138     1.0  0.78157  0.33420  0.25543  1.0000
  C   C1779     1.0  0.81692  0.29540  0.21826  1.0000
  H   H3139     1.0  0.99837  0.00769  0.21803  1.0000
  H   H3140     1.0  0.78935  0.26534  0.20460  1.0000
  H   H3141     1.0  0.96453  0.20413  0.06573  1.0000
  C   C1780     1.0  0.79340  0.17378  0.30032  1.0000
  C   C1781     1.0  0.00800  0.45982  0.01430  1.0000
  H   H3142     1.0  0.77676  0.34025  0.04538  1.0000
  H   H3143     1.0  0.00887  0.09638  0.05506  1.0000
  H   H3144     1.0  0.96219  0.03318  0.02850  1.0000
  H   H3145     1.0  0.99843  0.33268  0.05577  1.0000
  H   H3146     1.0  0.98357  0.18938  0.26396  1.0000
  H   H3147     1.0  0.87843  0.05977  0.11947  1.0000
  H   H3148     1.0  0.99955  0.07124  0.07218  1.0000
  H   H3149     1.0  0.85469  0.00914  0.08602  1.0000
  H   H3150     1.0  0.92131  0.10500  0.14001  1.0000
  C   C1782     1.0  0.96163  0.21555  0.08068  1.0000
  C   C1783     1.0  0.98550  0.04011  0.04035  1.0000
  C   C1784     1.0  0.86783  0.07099  0.11348  1.0000
  H   H3151     1.0  0.83276  0.14662  0.07953  1.0000
  H   H3152     1.0  0.99609  0.18209  0.29922  1.0000
  C   C1785     1.0  0.93012  0.48300  0.13293  1.0000
  H   H3153     1.0  0.97902  0.31738  0.05437  1.0000
  H   H3154     1.0  0.80292  0.32079  0.23966  1.0000
  H   H3155     1.0  0.79392  0.36252  0.00843  1.0000
  H   H3156     1.0  0.85783  0.05747  0.19184  1.0000
  H   H3157     1.0  0.95599  0.23695  0.07714  1.0000
  C   C1786     1.0  0.00781  0.13206  0.31338  1.0000
  H   H3158     1.0  0.79032  0.24109  0.26914  1.0000
  C   C1787     1.0  0.79855  0.29600  0.03637  1.0000
  H   H3159     1.0  0.80511  0.29315  0.05112  1.0000
  H   H3160     1.0  0.80210  0.27824  0.02532  1.0000
  H   H3161     1.0  0.80172  0.31754  0.02911  1.0000
  H   H3162     1.0  0.98667  0.32860  0.07936  1.0000
  H   H3163     1.0  0.83788  0.06462  0.18426  1.0000
  H   H3164     1.0  0.76756  0.22183  0.30649  1.0000
  C   C1788     1.0  0.86347  0.02584  0.09067  1.0000
  C   C1789     1.0  0.98970  0.31836  0.06399  1.0000
  C   C1790     1.0  0.93470  0.06708  0.12863  1.0000
  H   H3165     1.0  0.01273  0.00174  0.15761  1.0000
  H   H3166     1.0  0.76984  0.29386  0.23355  1.0000
  H   H3167     1.0  0.00611  0.23239  0.05699  1.0000
  H   H3168     1.0  0.80210  0.13928  0.27933  1.0000
  C   C1791     1.0  0.93310  0.09517  0.14163  1.0000
  H   H3169     1.0  0.85172  0.03365  0.12023  1.0000
  H   H3170     1.0  0.89344  0.10789  0.11184  1.0000
  H   H3171     1.0  0.98100  0.05502  0.05273  1.0000
  H   H3172     1.0  0.82288  0.26122  0.24090  1.0000
  H   H3173     1.0  0.84680  0.11221  0.16760  1.0000
  H   H3174     1.0  0.97484  0.26453  0.06505  1.0000
  N   N100      1.0  0.98993  0.23620  0.08341  1.0000
  C   C1792     1.0  0.92035  0.02853  0.08671  1.0000
  H   H3175     1.0  0.91064  0.05465  0.13167  1.0000
  S   S416      1.0  0.77664  0.40839  0.03163  1.0000
  H   H3176     1.0  0.93347  0.07345  0.11189  1.0000
  H   H3177     1.0  0.99267  0.17281  0.24110  1.0000
  H   H3178     1.0  0.85469  0.11418  0.08940  1.0000
  H   H3179     1.0  0.91506  0.04943  0.09234  1.0000
  H   H3180     1.0  0.95417  0.17498  0.09651  1.0000
  N   N101      1.0  0.78802  0.31158  0.21319  1.0000
  H   H3181     1.0  0.99464  0.03322  0.14337  1.0000
  H   H3182     1.0  0.88745  0.17125  0.12701  1.0000
  H   H3183     1.0  0.79598  0.19751  0.30251  1.0000
  H   H3184     1.0  0.98681  0.22160  0.05146  1.0000
  H   H3185     1.0  0.77500  0.29527  0.02560  1.0000
  H   H3186     1.0  0.00623  0.19427  0.10900  1.0000
  H   H3187     1.0  0.93512  0.09047  0.15850  1.0000
  H   H3188     1.0  0.94191  0.11158  0.13609  1.0000
  H   H3189     1.0  0.77910  0.39170  0.16672  1.0000
  C   C1793     1.0  0.99654  0.28764  0.06729  1.0000
  C   C1794     1.0  0.99919  0.48368  0.00722  1.0000
  H   H3190     1.0  0.77109  0.11437  0.31448  1.0000
  H   H3191     1.0  0.87878  0.13253  0.10235  1.0000
  H   H3192     1.0  0.01075  0.00348  0.05009  1.0000
  H   H3193     1.0  0.00174  0.20416  0.25304  1.0000
  C   C1795     1.0  0.87425  0.11523  0.13467  1.0000
  H   H3194     1.0  0.94671  0.05860  0.13046  1.0000
  H   H3195     1.0  0.99492  0.07542  0.26735  1.0000
  H   H3196     1.0  0.79674  0.28351  0.23783  1.0000
  C   C1796     1.0  0.89509  0.15212  0.12320  1.0000
  H   H3197     1.0  0.99719  0.14258  0.27252  1.0000
  C   C1797     1.0  0.78067  0.22681  0.23985  1.0000
  H   H3198     1.0  0.95099  0.02168  0.15150  1.0000
  H   H3199     1.0  0.01164  0.04706  0.17110  1.0000
  H   H3200     1.0  0.89940  0.01369  0.15672  1.0000
  H   H3201     1.0  0.82615  0.11095  0.08851  1.0000
  C   C1798     1.0  0.98922  0.04279  0.19824  1.0000
  C   C1799     1.0  0.77985  0.23979  0.25993  1.0000
  C   C1800     1.0  0.00095  0.18824  0.06657  1.0000
  H   H3202     1.0  0.98784  0.10304  0.23502  1.0000
  H   H3203     1.0  0.98684  0.48490  0.01123  1.0000
  C   C1801     1.0  0.77586  0.16971  0.29566  1.0000
  C   C1802     1.0  0.82781  0.28216  0.23452  1.0000
  C   C1803     1.0  0.00405  0.08496  0.25743  1.0000
  H   H3204     1.0  0.99421  0.17378  0.03538  1.0000
  H   H3205     1.0  0.85366  0.14722  0.10511  1.0000
  H   H3206     1.0  0.99191  0.06635  0.19494  1.0000
  C   C1804     1.0  0.85784  0.07566  0.14955  1.0000
  H   H3207     1.0  0.84735  0.08882  0.20230  1.0000
  H   H3208     1.0  0.77533  0.36114  0.23637  1.0000
  H   H3209     1.0  0.84700  0.06243  0.14758  1.0000
  C   C1805     1.0  0.93006  0.03491  0.06675  1.0000
  H   H3210     1.0  0.86642  0.10403  0.17494  1.0000
  H   H3211     1.0  0.82414  0.14254  0.10548  1.0000
  H   H3212     1.0  0.01519  0.15724  0.26150  1.0000
  C   C1806     1.0  0.84923  0.07494  0.18813  1.0000
  H   H3213     1.0  0.94555  0.20825  0.10725  1.0000
  H   H3214     1.0  0.86728  0.05957  0.15302  1.0000
  H   H3215     1.0  0.97277  0.23173  0.10853  1.0000
  H   H3216     1.0  0.00099  0.26128  0.10805  1.0000
  H   H3217     1.0  0.86875  0.13498  0.14217  1.0000
  C   C1807     1.0  0.00544  0.21663  0.11570  1.0000
  C   C1808     1.0  0.83176  0.13181  0.09343  1.0000
  H   H3218     1.0  0.83935  0.27723  0.22696  1.0000
  H   H3219     1.0  0.77860  0.26783  0.15686  1.0000
  C   C1809     1.0  0.84803  0.12567  0.10199  1.0000
  C   C1810     1.0  0.84699  0.10757  0.12263  1.0000
  H   H3220     1.0  0.90333  0.15864  0.11027  1.0000
  H   H3221     1.0  0.88885  0.48347  0.05908  1.0000
  C   C1811     1.0  0.79304  0.33981  0.20246  1.0000
  H   H3222     1.0  0.77360  0.18472  0.28222  1.0000
  C   C1812     1.0  0.80366  0.16327  0.28185  1.0000
  H   H3223     1.0  0.78120  0.33874  0.17236  1.0000
  C   C1813     1.0  0.99998  0.10061  0.23912  1.0000
  H   H3224     1.0  0.84576  0.05710  0.09900  1.0000
  C   C1814     1.0  0.88524  0.12585  0.11643  1.0000
  H   H3225     1.0  0.87185  0.08217  0.09882  1.0000
  C   C1815     1.0  0.00477  0.17426  0.04525  1.0000
  H   H3226     1.0  0.00063  0.07171  0.02502  1.0000
  H   H3227     1.0  0.93947  0.47153  0.14165  1.0000
  C   C1816     1.0  0.93037  0.01391  0.10391  1.0000
  C   C1817     1.0  0.00769  0.17699  0.29183  1.0000
  H   H3228     1.0  0.78412  0.32279  0.06775  1.0000
  H   H3229     1.0  0.77586  0.49206  0.14749  1.0000
  H   H3230     1.0  0.98000  0.19786  0.09957  1.0000
  H   H3231     1.0  0.93981  0.05024  0.07009  1.0000
  H   H3232     1.0  0.98739  0.03179  0.18305  1.0000
  H   H3233     1.0  0.00561  0.03447  0.01955  1.0000
  H   H3234     1.0  0.86741  0.03791  0.07628  1.0000
  C   C1818     1.0  0.99577  0.22066  0.06387  1.0000
  H   H3235     1.0  0.79905  0.38215  0.17194  1.0000
  H   H3236     1.0  0.98554  0.01728  0.04665  1.0000
  C   C1819     1.0  0.01084  0.07553  0.06379  1.0000
  C   C1820     1.0  0.92203  0.04416  0.13539  1.0000
  C   C1821     1.0  0.99498  0.18369  0.25634  1.0000
  C   C1822     1.0  0.00426  0.16284  0.27027  1.0000
  C   C1823     1.0  0.77299  0.31518  0.22585  1.0000
  C   C1824     1.0  0.78094  0.29426  0.04092  1.0000
  H   H3237     1.0  0.92253  0.04521  0.05475  1.0000
  H   H3238     1.0  0.01176  0.18723  0.07586  1.0000
  H   H3239     1.0  0.91071  0.01344  0.08232  1.0000
  C   C1825     1.0  0.77007  0.28218  0.18767  1.0000
  H   H3240     1.0  0.89926  0.01595  0.11536  1.0000
  C   C1826     1.0  0.01500  0.11261  0.33086  1.0000
  C   C1827     1.0  0.00270  0.02866  0.21086  1.0000
  H   H3241     1.0  0.77558  0.23838  0.17573  1.0000
  C   C1828     1.0  0.90689  0.00100  0.12448  1.0000
  H   H3242     1.0  0.87496  0.00935  0.13700  1.0000
  H   H3243     1.0  0.78431  0.25746  0.32434  1.0000
  H   H3244     1.0  0.87356  0.01410  0.09746  1.0000
  C   C1829     1.0  0.77541  0.32001  0.05523  1.0000
  C   C1830     1.0  0.01468  0.02150  0.06048  1.0000
  H   H3245     1.0  0.01438  0.24415  0.09017  1.0000
  H   H3246     1.0  0.93490  0.01415  0.06014  1.0000
  C   C1831     1.0  0.01167  0.11298  0.22613  1.0000
  H   H3247     1.0  0.76837  0.31280  0.09614  1.0000
  C   C1832     1.0  0.78705  0.38336  0.17897  1.0000
  H   H3248     1.0  0.00657  0.10753  0.10062  1.0000
  C   C1833     1.0  0.78158  0.35297  0.18648  1.0000
  C   C1834     1.0  0.94991  0.00105  0.14240  1.0000
  C   C1835     1.0  0.76705  0.22545  0.22811  1.0000
  H   H3249     1.0  0.76963  0.35546  0.19335  1.0000
  H   H3250     1.0  0.95611  0.00330  0.12708  1.0000
  H   H3251     1.0  0.00161  0.07323  0.32346  1.0000
  H   H3252     1.0  0.99970  0.20198  0.33086  1.0000
  C   C1836     1.0  0.77288  0.33908  0.24321  1.0000
  H   H3253     1.0  0.76865  0.26915  0.11958  1.0000
  C   C1837     1.0  0.77092  0.25966  0.16992  1.0000
  H   H3254     1.0  0.00418  0.04384  0.22435  1.0000
  C   C1838     1.0  0.76696  0.15559  0.33216  1.0000
  H   H3255     1.0  0.01325  0.19884  0.28893  1.0000
  H   H3256     1.0  0.76742  0.21539  0.21273  1.0000
  H   H3257     1.0  0.77459  0.26478  0.08105  1.0000
  H   H3258     1.0  0.01626  0.46114  0.09085  1.0000
  H   H3259     1.0  0.92178  0.49292  0.14449  1.0000
  H   H3260     1.0  0.94632  0.49583  0.10847  1.0000
  S   S417      1.0  0.92228  0.41986  0.65526  1.0000
  H   H3261     1.0  0.00345  0.33236  0.56463  1.0000
  H   H3262     1.0  0.98037  0.49304  0.61828  1.0000
  S   S418      1.0  0.98682  0.35766  0.62421  1.0000
  S   S419      1.0  0.96352  0.42834  0.64087  1.0000
  H   H3263     1.0  0.78280  0.10622  0.34907  1.0000
  C   C1839     1.0  0.89166  0.43531  0.65976  1.0000
  H   H3264     1.0  0.00102  0.16841  0.34593  1.0000
  H   H3265     1.0  0.89065  0.04316  0.60570  1.0000
  H   H3266     1.0  0.98788  0.01535  0.59910  1.0000
  Fe  Fe209     1.0  0.97031  0.19525  0.59422  1.0000
  S   S420      1.0  0.97151  0.21528  0.56197  1.0000
  S   S421      1.0  0.96866  0.22212  0.62418  1.0000
  Fe  Fe210     1.0  0.96648  0.13216  0.57751  1.0000
  S   S422      1.0  0.96713  0.14809  0.54377  1.0000
  S   S423      1.0  0.96064  0.08359  0.58340  1.0000
  Fe  Fe211     1.0  0.98711  0.17720  0.55338  1.0000
  C   C1840     1.0  0.78367  0.26389  0.60302  1.0000
  Fe  Fe212     1.0  0.95149  0.18469  0.55534  1.0000
  S   S424      1.0  0.92981  0.20470  0.54138  1.0000
  S   S425      1.0  0.98745  0.15892  0.58657  1.0000
  S   S426      1.0  0.94944  0.16688  0.58803  1.0000
  Fe  Fe213     1.0  0.80870  0.16801  0.55064  1.0000
  S   S427      1.0  0.80196  0.18850  0.58184  1.0000
  S   S428      1.0  0.79316  0.16726  0.52165  1.0000
  Fe  Fe214     1.0  0.84295  0.15959  0.56355  1.0000
  S   S429      1.0  0.83898  0.17944  0.59542  1.0000
  S   S430      1.0  0.86535  0.13653  0.55361  1.0000
  Fe  Fe215     1.0  0.81684  0.15265  0.59583  1.0000
  S   S431      1.0  0.81172  0.12749  0.62582  1.0000
  Fe  Fe216     1.0  0.82462  0.21380  0.57921  1.0000
  S   S432      1.0  0.82736  0.26362  0.58264  1.0000
  S   S433      1.0  0.82173  0.13039  0.56508  1.0000
  S   S434      1.0  0.83046  0.19585  0.54698  1.0000
  H   H3267     1.0  0.89859  0.07535  0.61724  1.0000
  C   C1841     1.0  0.01541  0.25008  0.40697  1.0000
  C   C1842     1.0  0.93883  0.26267  0.58579  1.0000
  C   C1843     1.0  0.86175  0.34566  0.64361  1.0000
  H   H3268     1.0  0.89325  0.19296  0.60294  1.0000
  C   C1844     1.0  0.91195  0.18570  0.54526  1.0000
  C   C1845     1.0  0.89777  0.20093  0.54329  1.0000
  C   C1846     1.0  0.88337  0.18638  0.54660  1.0000
  C   C1847     1.0  0.88310  0.15623  0.55115  1.0000
  C   C1848     1.0  0.89729  0.14096  0.55286  1.0000
  C   C1849     1.0  0.91167  0.15571  0.55027  1.0000
  H   H3269     1.0  0.89792  0.22409  0.53928  1.0000
  H   H3270     1.0  0.87249  0.19827  0.54505  1.0000
  H   H3271     1.0  0.89714  0.11759  0.55614  1.0000
  H   H3272     1.0  0.92255  0.14374  0.55170  1.0000
  C   C1850     1.0  0.81819  0.32107  0.64122  1.0000
  C   C1851     1.0  0.82193  0.33389  0.62171  1.0000
  C   C1852     1.0  0.82479  0.31596  0.60399  1.0000
  C   C1853     1.0  0.82384  0.28510  0.60552  1.0000
  C   C1854     1.0  0.82012  0.27229  0.62502  1.0000
  C   C1855     1.0  0.81725  0.29021  0.64272  1.0000
  H   H3273     1.0  0.82266  0.35760  0.62030  1.0000
  H   H3274     1.0  0.82765  0.32610  0.58897  1.0000
  H   H3275     1.0  0.81938  0.24859  0.62646  1.0000
  H   H3276     1.0  0.87560  0.05793  0.50565  1.0000
  C   C1856     1.0  0.80528  0.02744  0.62481  1.0000
  C   C1857     1.0  0.80093  0.04448  0.60741  1.0000
  C   C1858     1.0  0.80366  0.07507  0.60699  1.0000
  C   C1859     1.0  0.81040  0.08884  0.62422  1.0000
  C   C1860     1.0  0.81496  0.07176  0.64141  1.0000
  C   C1861     1.0  0.81261  0.04119  0.64155  1.0000
  H   H3277     1.0  0.79523  0.03406  0.59438  1.0000
  H   H3278     1.0  0.79989  0.08816  0.59381  1.0000
  C   C1862     1.0  0.92075  0.26364  0.58836  1.0000
  H   H3279     1.0  0.87034  0.01597  0.63294  1.0000
  C   C1863     1.0  0.96947  0.02914  0.64316  1.0000
  C   C1864     1.0  0.96013  0.01814  0.62725  1.0000
  C   C1865     1.0  0.95748  0.03514  0.60909  1.0000
  C   C1866     1.0  0.96380  0.06362  0.60692  1.0000
  C   C1867     1.0  0.97275  0.07498  0.62313  1.0000
  C   C1868     1.0  0.97558  0.05777  0.64115  1.0000
  C   C1869     1.0  0.86950  0.37519  0.63725  1.0000
  H   H3280     1.0  0.95054  0.02617  0.59663  1.0000
  H   H3281     1.0  0.97768  0.09686  0.62166  1.0000
  C   C1870     1.0  0.94434  0.27740  0.56529  1.0000
  C   C1871     1.0  0.98038  0.32067  0.62401  1.0000
  C   C1872     1.0  0.97389  0.30711  0.64195  1.0000
  C   C1873     1.0  0.97005  0.27699  0.64167  1.0000
  C   C1874     1.0  0.97268  0.26021  0.62349  1.0000
  C   C1875     1.0  0.97871  0.27394  0.60537  1.0000
  C   C1876     1.0  0.98251  0.30407  0.60565  1.0000
  H   H3282     1.0  0.82235  0.28339  0.50675  1.0000
  H   H3283     1.0  0.86520  0.33022  0.63085  1.0000
  H   H3284     1.0  0.98063  0.26125  0.59125  1.0000
  H   H3285     1.0  0.98716  0.31463  0.59166  1.0000
  C   C1877     1.0  0.91651  0.21388  0.60293  1.0000
  C   C1878     1.0  0.78118  0.13917  0.51095  1.0000
  S   S435      1.0  0.81639  0.48321  0.62331  1.0000
  C   C1879     1.0  0.77427  0.14409  0.49135  1.0000
  S   S436      1.0  0.83580  0.42142  0.65713  1.0000
  H   H3286     1.0  0.78368  0.10805  0.53627  1.0000
  C   C1880     1.0  0.77608  0.09264  0.66335  1.0000
  C   C1881     1.0  0.90072  0.05136  0.61480  1.0000
  C   C1882     1.0  0.77905  0.24870  0.33922  1.0000
  H   H3287     1.0  0.83930  0.46743  0.58924  1.0000
  H   H3288     1.0  0.77607  0.16496  0.48340  1.0000
  C   C1883     1.0  0.76977  0.06071  0.66509  1.0000
  H   H3289     1.0  0.00083  0.23197  0.64575  1.0000
  H   H3290     1.0  0.92043  0.15746  0.62114  1.0000
  H   H3291     1.0  0.95360  0.47204  0.60839  1.0000
  H   H3292     1.0  0.86334  0.24830  0.57760  1.0000
  H   H3293     1.0  0.93707  0.48924  0.59651  1.0000
  H   H3294     1.0  0.91735  0.28728  0.58947  1.0000
  C   C1884     1.0  0.85989  0.28128  0.64997  1.0000
  H   H3295     1.0  0.86580  0.27156  0.60013  1.0000
  H   H3296     1.0  0.93755  0.25016  0.66435  1.0000
  H   H3297     1.0  0.77195  0.23607  0.58159  1.0000
  C   C1885     1.0  0.81891  0.25981  0.50743  1.0000
  H   H3298     1.0  0.88988  0.26949  0.57722  1.0000
  H   H3299     1.0  0.89537  0.27779  0.61356  1.0000
  H   H3300     1.0  0.89064  0.24148  0.62117  1.0000
  H   H3301     1.0  0.89043  0.23026  0.57993  1.0000
  H   H3302     1.0  0.92158  0.28073  0.62748  1.0000
  C   C1886     1.0  0.91352  0.06786  0.58035  1.0000
  H   H3303     1.0  0.90338  0.24796  0.65030  1.0000
  H   H3304     1.0  0.80513  0.23019  0.52658  1.0000
  N   N102      1.0  0.82416  0.09426  0.49421  1.0000
  C   C1887     1.0  0.82036  0.09105  0.51740  1.0000
  C   C1888     1.0  0.82605  0.12653  0.48892  1.0000
  C   C1889     1.0  0.81020  0.08311  0.48236  1.0000
  C   C1890     1.0  0.83851  0.07700  0.48738  1.0000
  C   C1891     1.0  0.85166  0.07329  0.50372  1.0000
  C   C1892     1.0  0.81468  0.06003  0.52461  1.0000
  C   C1893     1.0  0.81060  0.08805  0.45820  1.0000
  C   C1894     1.0  0.83907  0.14347  0.50031  1.0000
  C   C1895     1.0  0.83859  0.17624  0.49474  1.0000
  C   C1896     1.0  0.86661  0.06102  0.49348  1.0000
  C   C1897     1.0  0.81473  0.05666  0.54852  1.0000
  C   C1898     1.0  0.79731  0.07136  0.44779  1.0000
  H   H3305     1.0  0.81108  0.10700  0.52217  1.0000
  H   H3306     1.0  0.83048  0.09716  0.52705  1.0000
  H   H3307     1.0  0.82881  0.12959  0.47189  1.0000
  H   H3308     1.0  0.81478  0.13826  0.49200  1.0000
  H   H3309     1.0  0.79926  0.09355  0.48853  1.0000
  H   H3310     1.0  0.80867  0.05902  0.48487  1.0000
  H   H3311     1.0  0.83525  0.05420  0.48277  1.0000
  H   H3312     1.0  0.84382  0.08696  0.47286  1.0000
  H   H3313     1.0  0.84790  0.05765  0.51630  1.0000
  H   H3314     1.0  0.85472  0.09417  0.51150  1.0000
  H   H3315     1.0  0.80245  0.05638  0.51965  1.0000
  H   H3316     1.0  0.82211  0.04248  0.51759  1.0000
  H   H3317     1.0  0.82186  0.08052  0.45109  1.0000
  H   H3318     1.0  0.80895  0.11173  0.45445  1.0000
  H   H3319     1.0  0.83782  0.14153  0.51763  1.0000
  H   H3320     1.0  0.85074  0.13533  0.49513  1.0000
  H   H3321     1.0  0.84051  0.17961  0.47757  1.0000
  H   H3322     1.0  0.82713  0.18594  0.49956  1.0000
  H   H3323     1.0  0.84799  0.18798  0.50312  1.0000
  H   H3324     1.0  0.99095  0.28625  0.55794  1.0000
  H   H3325     1.0  0.77884  0.15838  0.33845  1.0000
  C   C1899     1.0  0.99113  0.15464  0.47976  1.0000
  H   H3326     1.0  0.80645  0.07251  0.55595  1.0000
  H   H3327     1.0  0.81095  0.03408  0.55305  1.0000
  H   H3328     1.0  0.82665  0.06039  0.55464  1.0000
  H   H3329     1.0  0.78578  0.07862  0.45432  1.0000
  H   H3330     1.0  0.79758  0.07583  0.43061  1.0000
  H   H3331     1.0  0.85313  0.47381  0.56798  1.0000
  H   H3332     1.0  0.94350  0.48512  0.64394  1.0000
  H   H3333     1.0  0.89399  0.99683  0.61933  1.0000
  H   H3334     1.0  0.93986  0.26536  0.55151  1.0000
  H   H3335     1.0  0.77524  0.25936  0.61618  1.0000
  C   C1900     1.0  0.88720  0.04510  0.64863  1.0000
  H   H3336     1.0  0.81434  0.28008  0.65773  1.0000
  H   H3337     1.0  0.79853  0.04727  0.45030  1.0000
  H   H3338     1.0  0.82969  0.24632  0.50869  1.0000
  H   H3339     1.0  0.77023  0.30821  0.50875  1.0000
  H   H3340     1.0  0.97214  0.31965  0.65614  1.0000
  C   C1901     1.0  0.91520  0.04847  0.59988  1.0000
  C   C1902     1.0  0.80817  0.25390  0.52651  1.0000
  H   H3341     1.0  0.97829  0.27255  0.51571  1.0000
  C   C1903     1.0  0.01632  0.16789  0.45986  1.0000
  N   N103      1.0  0.90149  0.03587  0.63584  1.0000
  H   H3342     1.0  0.92606  0.05566  0.60749  1.0000
  H   H3343     1.0  0.87249  0.27956  0.64566  1.0000
  S   S437      1.0  0.01078  0.18034  0.53590  1.0000
  H   H3344     1.0  0.01130  0.21036  0.66484  1.0000
  H   H3345     1.0  0.84636  0.03969  0.64631  1.0000
  H   H3346     1.0  0.00332  0.30119  0.51295  1.0000
  H   H3347     1.0  0.91601  0.25553  0.57324  1.0000
  H   H3348     1.0  0.79703  0.29659  0.52853  1.0000
  H   H3349     1.0  0.90291  0.06175  0.57157  1.0000
  C   C1904     1.0  0.79327  0.27335  0.52608  1.0000
  C   C1905     1.0  0.77669  0.21543  0.33782  1.0000
  H   H3350     1.0  0.78900  0.27219  0.50971  1.0000
  H   H3351     1.0  0.99236  0.16603  0.44700  1.0000
  H   H3352     1.0  0.00375  0.24245  0.40193  1.0000
  H   H3353     1.0  0.89172  0.43549  0.64275  1.0000
  H   H3354     1.0  0.96524  0.26652  0.65567  1.0000
  H   H3355     1.0  0.93432  0.45698  0.61316  1.0000
  H   H3356     1.0  0.79367  0.24849  0.60445  1.0000
  H   H3357     1.0  0.88230  0.37226  0.63486  1.0000
  C   C1906     1.0  0.87114  0.03904  0.63848  1.0000
  C   C1907     1.0  0.76771  0.28820  0.54010  1.0000
  H   H3358     1.0  0.76771  0.25989  0.34242  1.0000
  C   C1908     1.0  0.01566  0.32503  0.56105  1.0000
  C   C1909     1.0  0.77867  0.11209  0.52106  1.0000
  C   C1910     1.0  0.90102  0.00274  0.63324  1.0000
  C   C1911     1.0  0.85760  0.04418  0.65412  1.0000
  C   C1912     1.0  0.77569  0.25943  0.58202  1.0000
  C   C1913     1.0  0.90412  0.19198  0.61214  1.0000
  C   C1914     1.0  0.00776  0.18742  0.33954  1.0000
  H   H3359     1.0  0.78117  0.48430  0.64425  1.0000
  H   H3360     1.0  0.86552  0.37084  0.60361  1.0000
  C   C1915     1.0  0.86309  0.38669  0.61651  1.0000
  H   H3361     1.0  0.91662  0.07097  0.64614  1.0000
  H   H3362     1.0  0.78900  0.09264  0.66409  1.0000
  C   C1916     1.0  0.78709  0.26610  0.56333  1.0000
  H   H3363     1.0  0.92672  0.03851  0.63921  1.0000
  C   C1917     1.0  0.91596  0.24318  0.64744  1.0000
  Fe  Fe217     1.0  0.97644  0.45258  0.66553  1.0000
  H   H3364     1.0  0.91647  0.02545  0.59443  1.0000
  H   H3365     1.0  0.78794  0.28688  0.60450  1.0000
  H   H3366     1.0  0.86877  0.40802  0.61239  1.0000
  H   H3367     1.0  0.97839  0.15925  0.48114  1.0000
  H   H3368     1.0  0.82017  0.08227  0.65478  1.0000
  H   H3369     1.0  0.85751  0.06733  0.65964  1.0000
  H   H3370     1.0  0.00385  0.21136  0.36863  1.0000
  C   C1918     1.0  0.00043  0.28518  0.54565  1.0000
  H   H3371     1.0  0.01385  0.01343  0.56440  1.0000
  C   C1919     1.0  0.01381  0.20470  0.35824  1.0000
  H   H3372     1.0  0.99407  0.22406  0.51095  1.0000
  C   C1920     1.0  0.88726  0.25088  0.58815  1.0000
  H   H3373     1.0  0.77198  0.20765  0.35332  1.0000
  Fe  Fe218     1.0  0.81727  0.45617  0.65327  1.0000
  C   C1921     1.0  0.00399  0.05420  0.57527  1.0000
  H   H3374     1.0  0.90087  0.19676  0.62868  1.0000
  C   C1922     1.0  0.00641  0.22538  0.50685  1.0000
  H   H3375     1.0  0.99276  0.13068  0.47710  1.0000
  H   H3376     1.0  0.84884  0.34849  0.64264  1.0000
  C   C1923     1.0  0.91581  0.04649  0.64707  1.0000
  N   N104      1.0  0.91379  0.24639  0.60672  1.0000
  H   H3377     1.0  0.79665  0.24974  0.56480  1.0000
  H   H3378     1.0  0.78699  0.25381  0.35230  1.0000
  H   H3379     1.0  0.85964  0.47269  0.59496  1.0000
  C   C1924     1.0  0.76994  0.10423  0.34742  1.0000
  H   H3380     1.0  0.93461  0.25019  0.62541  1.0000
  C   C1925     1.0  0.86962  0.25067  0.59262  1.0000
  H   H3381     1.0  0.87134  0.07662  0.48142  1.0000
  C   C1926     1.0  0.92199  0.25625  0.62628  1.0000
  H   H3382     1.0  0.00455  0.16892  0.40588  1.0000
  H   H3383     1.0  0.01439  0.06703  0.56986  1.0000
  H   H3384     1.0  0.91447  0.34260  0.65695  1.0000
  H   H3385     1.0  0.98268  0.06660  0.65350  1.0000
  H   H3386     1.0  0.91282  0.09145  0.58482  1.0000
  H   H3387     1.0  0.78194  0.21778  0.54473  1.0000
  C   C1927     1.0  0.97889  0.29624  0.51990  1.0000
  N   N105      1.0  0.78032  0.26509  0.54160  1.0000
  C   C1928     1.0  0.89667  0.25440  0.60859  1.0000
  H   H3388     1.0  0.99526  0.32825  0.53059  1.0000
  H   H3389     1.0  0.85334  0.28750  0.63572  1.0000
  H   H3390     1.0  0.92394  0.06505  0.56979  1.0000
  H   H3391     1.0  0.99928  0.06436  0.58996  1.0000
  H   H3392     1.0  0.94441  0.27495  0.59868  1.0000
  H   H3393     1.0  0.97576  0.30945  0.50587  1.0000
  H   H3394     1.0  0.81300  0.25374  0.49269  1.0000
  H   H3395     1.0  0.85026  0.39035  0.61793  1.0000
  H   H3396     1.0  0.88773  0.06906  0.65230  1.0000
  C   C1929     1.0  0.85007  0.47968  0.58450  1.0000
  H   H3397     1.0  0.86431  0.03941  0.48606  1.0000
  C   C1930     1.0  0.99535  0.30448  0.52673  1.0000
  H   H3398     1.0  0.99495  0.05568  0.56301  1.0000
  C   C1931     1.0  0.99412  0.00362  0.58610  1.0000
  H   H3399     1.0  0.91578  0.48567  0.63911  1.0000
  H   H3400     1.0  0.90069  0.14505  0.61698  1.0000
  H   H3401     1.0  0.86935  0.05407  0.62493  1.0000
  C   C1932     1.0  0.94107  0.47771  0.61085  1.0000
  C   C1933     1.0  0.91001  0.16025  0.61118  1.0000
  H   H3402     1.0  0.86626  0.23182  0.60295  1.0000
  Fe  Fe219     1.0  0.97752  0.38852  0.64955  1.0000
  C   C1934     1.0  0.85412  0.25076  0.65674  1.0000
  H   H3403     1.0  0.00361  0.26094  0.48462  1.0000
  H   H3404     1.0  0.94312  0.23961  0.58592  1.0000
  H   H3405     1.0  0.94030  0.30062  0.56468  1.0000
  H   H3406     1.0  0.91727  0.20905  0.58579  1.0000
  H   H3407     1.0  0.92817  0.20736  0.60888  1.0000
  H   H3408     1.0  0.95731  0.27728  0.56435  1.0000
  H   H3409     1.0  0.79260  0.28800  0.56606  1.0000
  C   C1935     1.0  0.00398  0.08744  0.33720  1.0000
  C   C1936     1.0  0.99833  0.17243  0.46152  1.0000
  C   C1937     1.0  0.76981  0.08995  0.51131  1.0000
  H   H3410     1.0  0.00042  0.26223  0.53979  1.0000
  H   H3411     1.0  0.00481  0.20433  0.42894  1.0000
  H   H3412     1.0  0.77599  0.09262  0.62900  1.0000
  H   H3413     1.0  0.81501  0.25881  0.54067  1.0000
  C   C1938     1.0  0.77361  0.49221  0.65748  1.0000
  H   H3414     1.0  0.91796  0.21908  0.64778  1.0000
  H   H3415     1.0  0.91316  0.15414  0.59475  1.0000
  H   H3416     1.0  0.97019  0.30088  0.53268  1.0000
  H   H3417     1.0  0.76697  0.08066  0.34519  1.0000
  H   H3418     1.0  0.99569  0.19602  0.46455  1.0000
  H   H3419     1.0  0.84154  0.25153  0.66150  1.0000
  C   C1939     1.0  0.77462  0.23440  0.53660  1.0000
  H   H3420     1.0  0.77204  0.30964  0.54619  1.0000
  H   H3421     1.0  0.86725  0.39223  0.64923  1.0000
  H   H3422     1.0  0.86698  0.44457  0.66265  1.0000
  H   H3423     1.0  0.98602  0.00463  0.57269  1.0000
  C   C1940     1.0  0.01185  0.24619  0.49189  1.0000
  H   H3424     1.0  0.77735  0.12852  0.64069  1.0000
  H   H3425     1.0  0.77670  0.04800  0.65319  1.0000
  H   H3426     1.0  0.01388  0.26657  0.41971  1.0000
  H   H3427     1.0  0.81620  0.02842  0.65483  1.0000
  H   H3428     1.0  0.88684  0.03341  0.66408  1.0000
  H   H3429     1.0  0.00279  0.12326  0.38566  1.0000
  H   H3430     1.0  0.00952  0.07365  0.34944  1.0000
  S   S438      1.0  0.79759  0.42548  0.66237  1.0000
  H   H3431     1.0  0.77631  0.22948  0.51954  1.0000
  C   C1941     1.0  0.77179  0.10649  0.64229  1.0000
  H   H3432     1.0  0.00558  0.01354  0.62446  1.0000
  C   C1942     1.0  0.01208  0.22960  0.65403  1.0000
  H   H3433     1.0  0.99275  0.09615  0.34370  1.0000
  H   H3434     1.0  0.88807  0.32130  0.65083  1.0000
  H   H3435     1.0  0.00653  0.23234  0.56435  1.0000
  H   H3436     1.0  0.99657  0.16076  0.49482  1.0000
  H   H3437     1.0  0.01251  0.37587  0.58539  1.0000
  H   H3438     1.0  0.00248  0.13727  0.42323  1.0000
  C   C1943     1.0  0.00860  0.02216  0.57922  1.0000
  H   H3439     1.0  0.78832  0.20529  0.33536  1.0000
  S   S439      1.0  0.81535  0.34228  0.66441  1.0000
  H   H3440     1.0  0.85545  0.23521  0.64339  1.0000
  N   N106      1.0  0.86569  0.33329  0.66493  1.0000
  C   C1944     1.0  0.01047  0.14919  0.41220  1.0000
  H   H3441     1.0  0.00847  0.27858  0.58609  1.0000
  H   H3442     1.0  0.00963  0.22820  0.60260  1.0000
  H   H3443     1.0  0.76820  0.06892  0.51911  1.0000
  C   C1945     1.0  0.01385  0.12863  0.39365  1.0000
  N   N107      1.0  0.01600  0.29272  0.55509  1.0000
  S   S440      1.0  0.97365  0.00805  0.66586  1.0000
  C   C1946     1.0  0.92496  0.25606  0.66577  1.0000
  S   S441      1.0  0.95953  0.43997  0.69176  1.0000
  C   C1947     1.0  0.91070  0.34524  0.67366  1.0000
  H   H3444     1.0  0.79370  0.03179  0.67799  1.0000
  C   C1948     1.0  0.89329  0.35270  0.67531  1.0000
  Fe  Fe220     1.0  0.97458  0.39952  0.69621  1.0000
  S   S442      1.0  0.98016  0.37874  0.72824  1.0000
  H   H3445     1.0  0.79117  0.06506  0.72016  1.0000
  Fe  Fe221     1.0  0.80086  0.44259  0.69528  1.0000
  Fe  Fe222     1.0  0.94702  0.41471  0.66702  1.0000
  H   H3446     1.0  0.99306  0.42032  0.92859  1.0000
  Fe  Fe223     1.0  0.83665  0.43817  0.69017  1.0000
  S   S443      1.0  0.85949  0.44346  0.70727  1.0000
  H   H3447     1.0  0.76816  0.15452  0.86224  1.0000
  S   S444      1.0  0.81819  0.40690  0.70267  1.0000
  H   H3448     1.0  0.78131  0.41728  0.79970  1.0000
  H   H3449     1.0  0.80013  0.21900  0.89257  1.0000
  C   C1949     1.0  0.84789  0.99693  0.72921  1.0000
  C   C1950     1.0  0.90552  0.42930  0.67035  1.0000
  H   H3450     1.0  0.79458  0.99892  0.76875  1.0000
  C   C1951     1.0  0.99831  0.36600  0.73813  1.0000
  H   H3451     1.0  0.80870  0.26693  0.92432  1.0000
  C   C1952     1.0  0.81318  0.05246  0.70650  1.0000
  H   H3452     1.0  0.01568  0.36102  0.87403  1.0000
  S   S445      1.0  0.81953  0.47520  0.68552  1.0000
  H   H3453     1.0  0.77089  0.37440  0.92576  1.0000
  C   C1953     1.0  0.90537  0.42919  0.69234  1.0000
  C   C1954     1.0  0.89124  0.43416  0.70360  1.0000
  C   C1955     1.0  0.87725  0.43911  0.69293  1.0000
  H   H3454     1.0  0.00178  0.43475  0.73454  1.0000
  H   H3455     1.0  0.77074  0.37769  0.88641  1.0000
  H   H3456     1.0  0.91602  0.42461  0.70063  1.0000
  H   H3457     1.0  0.89108  0.43356  0.72061  1.0000
  H   H3458     1.0  0.84822  0.37986  0.71853  1.0000
  H   H3459     1.0  0.96049  0.28149  0.72517  1.0000
  N   N108      1.0  0.76937  0.21369  0.91145  1.0000
  H   H3460     1.0  0.99218  0.26857  0.67344  1.0000
  H   H3461     1.0  0.01373  0.01467  0.96341  1.0000
  C   C1956     1.0  0.00278  0.42016  0.93998  1.0000
  H   H3462     1.0  0.93872  0.48779  0.71070  1.0000
  C   C1957     1.0  0.79662  0.23725  0.90316  1.0000
  H   H3463     1.0  0.77462  0.46575  0.81871  1.0000
  H   H3464     1.0  0.81374  0.03103  0.71493  1.0000
  H   H3465     1.0  0.76907  0.44273  0.78706  1.0000
  H   H3466     1.0  0.99650  0.47254  0.91944  1.0000
  S   S446      1.0  0.96008  0.37288  0.67385  1.0000
  H   H3467     1.0  0.78067  0.19042  0.88547  1.0000
  C   C1958     1.0  0.99172  0.29228  0.71210  1.0000
  C   C1959     1.0  0.85983  0.34176  0.70451  1.0000
  S   S447      1.0  0.99252  0.41399  0.67195  1.0000
  N   N109      1.0  0.77020  0.04576  0.68637  1.0000
  H   H3468     1.0  0.78974  0.41322  0.92977  1.0000
  H   H3469     1.0  0.81107  0.41216  0.95562  1.0000
  H   H3470     1.0  0.77416  0.12931  0.88276  1.0000
  C   C1960     1.0  0.77047  0.42071  0.95300  1.0000
  H   H3471     1.0  0.76863  0.08537  0.70522  1.0000
  H   H3472     1.0  0.79123  0.44705  0.94425  1.0000
  H   H3473     1.0  0.79646  0.38452  0.96137  1.0000
  H   H3474     1.0  0.00998  0.25928  0.73721  1.0000
  H   H3475     1.0  0.77122  0.10731  0.67569  1.0000
  H   H3476     1.0  0.00731  0.45862  0.80864  1.0000
  H   H3477     1.0  0.86936  0.38082  0.71937  1.0000
  C   C1961     1.0  0.85951  0.35399  0.68168  1.0000
  H   H3478     1.0  0.78558  0.32800  0.98056  1.0000
  C   C1962     1.0  0.99661  0.43801  0.95927  1.0000
  H   H3479     1.0  0.79532  0.39473  0.76829  1.0000
  H   H3480     1.0  0.81952  0.06918  0.71572  1.0000
  H   H3481     1.0  0.92024  0.24698  0.68086  1.0000
  H   H3482     1.0  0.85843  0.02907  0.66783  1.0000
  C   C1963     1.0  0.78453  0.48860  0.74717  1.0000
  H   H3483     1.0  0.85840  0.35681  0.73685  1.0000
  H   H3484     1.0  0.84413  0.30837  0.66863  1.0000
  H   H3485     1.0  0.81670  0.23003  0.92318  1.0000
  H   H3486     1.0  0.00320  0.33737  0.69488  1.0000
  C   C1964     1.0  0.85889  0.36637  0.72076  1.0000
  C   C1965     1.0  0.96299  0.30394  0.71898  1.0000
  H   H3487     1.0  0.91323  0.32484  0.68261  1.0000
  H   H3488     1.0  0.00352  0.47240  0.74340  1.0000
  H   H3489     1.0  0.98851  0.40070  0.97826  1.0000
  H   H3490     1.0  0.79218  0.25595  0.89374  1.0000
  H   H3491     1.0  0.86579  0.37538  0.68121  1.0000
  C   C1966     1.0  0.79616  0.06186  0.70408  1.0000
  H   H3492     1.0  0.98721  0.34300  0.76418  1.0000
  H   H3493     1.0  0.84960  0.32701  0.70731  1.0000
  C   C1967     1.0  0.78677  0.03812  0.69224  1.0000
  C   C1968     1.0  0.87760  0.44016  0.67099  1.0000
  C   C1969     1.0  0.00282  0.26447  0.68267  1.0000
  H   H3494     1.0  0.94120  0.02619  0.67113  1.0000
  H   H3495     1.0  0.76818  0.39734  0.95726  1.0000
  H   H3496     1.0  0.99498  0.45724  0.77937  1.0000
  H   H3497     1.0  0.01211  0.32481  0.77919  1.0000
  H   H3498     1.0  0.81911  0.05036  0.69087  1.0000
  H   H3499     1.0  0.76832  0.37783  0.77350  1.0000
  H   H3500     1.0  0.00692  0.38661  0.78735  1.0000
  C   C1970     1.0  0.91660  0.03807  0.67066  1.0000
  C   C1971     1.0  0.99970  0.44016  0.76861  1.0000
  C   C1972     1.0  0.81141  0.24802  0.91383  1.0000
  H   H3501     1.0  0.99159  0.45928  0.95409  1.0000
  C   C1973     1.0  0.77309  0.47581  0.73477  1.0000
  H   H3502     1.0  0.99777  0.34474  0.81160  1.0000
  C   C1974     1.0  0.77731  0.34375  0.98698  1.0000
  H   H3503     1.0  0.79709  0.41785  0.97684  1.0000
  H   H3504     1.0  0.86001  0.29366  0.68266  1.0000
  H   H3505     1.0  0.99247  0.42000  0.77067  1.0000
  H   H3506     1.0  0.98469  0.45448  0.74341  1.0000
  H   H3507     1.0  0.77268  0.47449  0.66952  1.0000
  H   H3508     1.0  0.85437  0.01211  0.73952  1.0000
  H   H3509     1.0  0.95222  0.31277  0.71182  1.0000
  H   H3510     1.0  0.01198  0.48529  0.84370  1.0000
  C   C1975     1.0  0.99825  0.34861  0.75654  1.0000
  C   C1976     1.0  0.98377  0.42131  0.97142  1.0000
  C   C1977     1.0  0.93309  0.04196  0.67896  1.0000
  C   C1978     1.0  0.85699  0.30443  0.66753  1.0000
  C   C1979     1.0  0.76940  0.00264  0.77133  1.0000
  H   H3511     1.0  0.99439  0.30747  0.72522  1.0000
  H   H3512     1.0  0.82014  0.25538  0.90170  1.0000
  H   H3513     1.0  0.77700  0.23577  0.87041  1.0000
  C   C1980     1.0  0.79872  0.40859  0.96078  1.0000
  H   H3514     1.0  0.00383  0.39667  0.94486  1.0000
  H   H3515     1.0  0.99506  0.36821  0.83434  1.0000
  C   C1981     1.0  0.01268  0.37281  0.72835  1.0000
  S   S448      1.0  0.77785  0.45255  0.71316  1.0000
  H   H3516     1.0  0.92847  0.48383  0.67465  1.0000
  H   H3517     1.0  0.76956  0.01544  0.78562  1.0000
  H   H3518     1.0  0.78693  0.01813  0.70252  1.0000
  H   H3519     1.0  0.91762  0.36345  0.68045  1.0000
  H   H3520     1.0  0.01220  0.48379  0.90201  1.0000
  H   H3521     1.0  0.97390  0.41595  0.96103  1.0000
  H   H3522     1.0  0.76680  0.34154  0.84882  1.0000
  H   H3523     1.0  0.87059  0.32883  0.70731  1.0000
  H   H3524     1.0  0.78122  0.24802  0.92853  1.0000
  H   H3525     1.0  0.96614  0.31851  0.73221  1.0000
  H   H3526     1.0  0.89047  0.35664  0.69217  1.0000
  H   H3527     1.0  0.88525  0.30810  0.67683  1.0000
  C   C1982     1.0  0.97621  0.30310  0.70241  1.0000
  H   H3528     1.0  0.79677  0.48460  0.74356  1.0000
  Fe  Fe224     1.0  0.81632  0.39220  0.66898  1.0000
  C   C1983     1.0  0.77012  0.40172  0.77119  1.0000
  C   C1984     1.0  0.00839  0.48234  0.91882  1.0000
  H   H3529     1.0  0.00589  0.44321  0.97043  1.0000
  H   H3530     1.0  0.98901  0.27060  0.71954  1.0000
  H   H3531     1.0  0.00731  0.43272  0.89893  1.0000
  H   H3532     1.0  0.78967  0.21236  0.93107  1.0000
  H   H3533     1.0  0.00018  0.24403  0.69176  1.0000
  H   H3534     1.0  0.78870  0.42914  0.75737  1.0000
  C   C1985     1.0  0.01235  0.33832  0.76514  1.0000
  C   C1986     1.0  0.78406  0.22759  0.91968  1.0000
  C   C1987     1.0  0.78776  0.42353  0.94535  1.0000
  H   H3535     1.0  0.97239  0.28833  0.68973  1.0000
  H   H3536     1.0  0.97749  0.32565  0.69590  1.0000
  C   C1988     1.0  0.01337  0.00207  0.97789  1.0000
  N   N110      1.0  0.00573  0.28988  0.69727  1.0000
  H   H3537     1.0  0.79608  0.08337  0.69594  1.0000
  H   H3538     1.0  0.77219  0.46831  0.92611  1.0000
  C   C1989     1.0  0.01046  0.39941  0.80125  1.0000
  H   H3539     1.0  0.83538  0.00346  0.72944  1.0000
  C   C1990     1.0  0.01515  0.38493  0.87757  1.0000
  H   H3540     1.0  0.86099  0.24233  0.67010  1.0000
  C   C1991     1.0  0.00737  0.31853  0.68510  1.0000
  H   H3541     1.0  0.01297  0.38611  0.71419  1.0000
  H   H3542     1.0  0.78523  0.39532  0.74368  1.0000
  H   H3543     1.0  0.00813  0.37799  0.90994  1.0000
  H   H3544     1.0  0.76966  0.43279  0.96816  1.0000
  H   H3545     1.0  0.99966  0.31838  0.67119  1.0000
  H   H3546     1.0  0.84711  0.35997  0.67862  1.0000
  H   H3547     1.0  0.93740  0.06475  0.67611  1.0000
  H   H3548     1.0  0.91311  0.01489  0.67325  1.0000
  H   H3549     1.0  0.99935  0.40852  0.80800  1.0000
  H   H3550     1.0  0.97924  0.43511  0.98459  1.0000
  H   H3551     1.0  0.85250  0.99900  0.71280  1.0000
  H   H3552     1.0  0.77245  0.37950  0.82145  1.0000
  H   H3553     1.0  0.93311  0.03741  0.69613  1.0000
  H   H3554     1.0  0.90861  0.05233  0.68012  1.0000
  C   C1992     1.0  0.78581  0.40551  0.75949  1.0000
  H   H3555     1.0  0.01320  0.43067  0.83951  1.0000
  H   H3556     1.0  0.76917  0.03756  0.72947  1.0000
  C   C1993     1.0  0.76973  0.41934  0.79210  1.0000
  H   H3557     1.0  0.78144  0.17185  0.90979  1.0000
  C   C1994     1.0  0.77368  0.18571  0.89996  1.0000
  H   H3558     1.0  0.00880  0.33813  0.83497  1.0000
  H   H3559     1.0  0.77014  0.42432  0.90794  1.0000
  C   C1995     1.0  0.00376  0.35554  0.82484  1.0000
  H   H3560     1.0  0.00359  0.39353  0.87283  1.0000
  H   H3561     1.0  0.89144  0.37361  0.66688  1.0000
  C   C1996     1.0  0.99736  0.45114  0.74613  1.0000
  C   C1997     1.0  0.88307  0.32747  0.66651  1.0000
  H   H3562     1.0  0.92384  0.28039  0.66609  1.0000
  C   C1998     1.0  0.01582  0.25766  0.66614  1.0000
  Fe  Fe225     1.0  0.97401  0.94066  0.04618  1.0000
  S   S449      1.0  0.99213  0.92644  0.06910  1.0000
  H   H3563     1.0  0.77976  0.74227  0.31956  1.0000
  Fe  Fe226     1.0  0.94680  0.93059  0.07861  1.0000
  S   S450      1.0  0.96349  0.91677  0.10360  1.0000
  S   S451      1.0  0.92209  0.93148  0.09270  1.0000
  Fe  Fe227     1.0  0.97840  0.95443  0.09204  1.0000
  H   H3564     1.0  0.89022  0.93680  0.10568  1.0000
  Fe  Fe228     1.0  0.97523  0.88997  0.07841  1.0000
  S   S452      1.0  0.98138  0.84122  0.08133  1.0000
  S   S453      1.0  0.96095  0.97023  0.06889  1.0000
  S   S454      1.0  0.95789  0.90208  0.05359  1.0000
  Fe  Fe229     1.0  0.80243  0.91397  0.04644  1.0000
  S   S455      1.0  0.79308  0.92480  0.07906  1.0000
  S   S456      1.0  0.79205  0.89063  0.01782  1.0000
  Fe  Fe230     1.0  0.83572  0.93580  0.05697  1.0000
  S   S457      1.0  0.82904  0.94776  0.09008  1.0000
  S   S458      1.0  0.85957  0.94326  0.04136  1.0000
  Fe  Fe231     1.0  0.81559  0.90496  0.09041  1.0000
  S   S459      1.0  0.81831  0.87564  0.11910  1.0000
  Fe  Fe232     1.0  0.80732  0.96698  0.07642  1.0000
  H   H3565     1.0  0.78310  0.54874  0.18874  1.0000
  S   S460      1.0  0.82407  0.89144  0.05834  1.0000
  S   S461      1.0  0.81484  0.95754  0.04288  1.0000
  Fe  Fe233     1.0  0.97579  0.64370  0.14896  1.0000
  S   S462      1.0  0.97179  0.62353  0.18089  1.0000
  S   S463      1.0  0.98094  0.61653  0.11964  1.0000
  Fe  Fe234     1.0  0.97119  0.70694  0.16495  1.0000
  S   S464      1.0  0.96682  0.69075  0.19823  1.0000
  S   S465      1.0  0.96916  0.75688  0.16083  1.0000
  Fe  Fe235     1.0  0.98713  0.65980  0.19275  1.0000
  H   H3566     1.0  0.80261  0.83885  0.04489  1.0000
  Fe  Fe236     1.0  0.95187  0.65601  0.18349  1.0000
  S   S466      1.0  0.92816  0.63970  0.19568  1.0000
  S   S467      1.0  0.99242  0.67834  0.16033  1.0000
  S   S468      1.0  0.95490  0.67394  0.15076  1.0000
  Fe  Fe237     1.0  0.81839  0.71001  0.14520  1.0000
  S   S469      1.0  0.82256  0.73048  0.17652  1.0000
  S   S470      1.0  0.81165  0.73679  0.11669  1.0000
  Fe  Fe238     1.0  0.82394  0.64701  0.16142  1.0000
  S   S471      1.0  0.82891  0.66357  0.19401  1.0000
  S   S472      1.0  0.82487  0.59690  0.15845  1.0000
  Fe  Fe239     1.0  0.80803  0.69347  0.19024  1.0000
  S   S473      1.0  0.78578  0.69440  0.21107  1.0000
  Fe  Fe240     1.0  0.84297  0.69885  0.17729  1.0000
  S   S474      1.0  0.86726  0.71718  0.18232  1.0000
  S   S475      1.0  0.80247  0.67493  0.15848  1.0000
  S   S476      1.0  0.83944  0.68035  0.14511  1.0000
  C   C1999     1.0  0.77920  0.71853  0.23141  1.0000
  H   H3567     1.0  0.93771  0.51711  0.06776  1.0000
  H   H3568     1.0  0.82324  0.78966  0.20956  1.0000
  H   H3569     1.0  0.94966  0.76610  0.19812  1.0000
  C   C2000     1.0  0.78063  0.76994  0.17400  1.0000
  C   C2001     1.0  0.86402  0.51734  0.11338  1.0000
  C   C2002     1.0  0.00563  0.60647  0.23994  1.0000
  C   C2003     1.0  0.93768  0.75910  0.20306  1.0000
  H   H3570     1.0  0.99376  0.60455  0.23455  1.0000
  H   H3571     1.0  0.93097  0.61294  0.15040  1.0000
  C   C2004     1.0  0.91114  0.66079  0.19133  1.0000
  C   C2005     1.0  0.91160  0.68577  0.17843  1.0000
  C   C2006     1.0  0.89791  0.70223  0.17533  1.0000
  C   C2007     1.0  0.88364  0.69383  0.18487  1.0000
  C   C2008     1.0  0.88306  0.66845  0.19739  1.0000
  C   C2009     1.0  0.89681  0.65211  0.20072  1.0000
  H   H3572     1.0  0.92253  0.69249  0.17100  1.0000
  H   H3573     1.0  0.89832  0.72153  0.16547  1.0000
  H   H3574     1.0  0.87217  0.66200  0.20508  1.0000
  H   H3575     1.0  0.89639  0.63295  0.21087  1.0000
  N   N111      1.0  0.93058  0.54784  0.09210  1.0000
  C   C2010     1.0  0.81753  0.53750  0.10101  1.0000
  C   C2011     1.0  0.81692  0.56832  0.09886  1.0000
  C   C2012     1.0  0.81917  0.58688  0.11624  1.0000
  C   C2013     1.0  0.82195  0.57473  0.13602  1.0000
  C   C2014     1.0  0.82264  0.54393  0.13819  1.0000
  C   C2015     1.0  0.82042  0.52537  0.12080  1.0000
  H   H3576     1.0  0.81475  0.57789  0.08359  1.0000
  H   H3577     1.0  0.81882  0.61052  0.11427  1.0000
  H   H3578     1.0  0.82486  0.53431  0.15342  1.0000
  H   H3579     1.0  0.91771  0.59113  0.12042  1.0000
  C   C2016     1.0  0.81767  0.83702  0.11719  1.0000
  C   C2017     1.0  0.81085  0.82308  0.10013  1.0000
  C   C2018     1.0  0.80936  0.79223  0.10004  1.0000
  C   C2019     1.0  0.81476  0.77520  0.11681  1.0000
  C   C2020     1.0  0.82229  0.78909  0.13333  1.0000
  C   C2021     1.0  0.82361  0.81992  0.13362  1.0000
  H   H3580     1.0  0.80635  0.83615  0.08737  1.0000
  H   H3581     1.0  0.80385  0.78137  0.08712  1.0000
  H   H3582     1.0  0.82698  0.77615  0.14597  1.0000
  H   H3583     1.0  0.82900  0.83060  0.14679  1.0000
  H   H3584     1.0  0.93824  0.73586  0.20850  1.0000
  H   H3585     1.0  0.93820  0.56761  0.04978  1.0000
  C   C2022     1.0  0.80397  0.81576  0.03949  1.0000
  C   C2023     1.0  0.97790  0.81808  0.10360  1.0000
  C   C2024     1.0  0.97986  0.78744  0.10154  1.0000
  C   C2025     1.0  0.97742  0.76832  0.11888  1.0000
  C   C2026     1.0  0.97316  0.77973  0.13857  1.0000
  C   C2027     1.0  0.97130  0.81036  0.14065  1.0000
  C   C2028     1.0  0.97351  0.82943  0.12327  1.0000
  H   H3586     1.0  0.98332  0.77844  0.08643  1.0000
  H   H3587     1.0  0.97887  0.74483  0.11701  1.0000
  H   H3588     1.0  0.96813  0.81941  0.15585  1.0000
  H   H3589     1.0  0.97210  0.85292  0.12515  1.0000
  C   C2029     1.0  0.97859  0.51573  0.12224  1.0000
  C   C2030     1.0  0.98137  0.53032  0.10310  1.0000
  C   C2031     1.0  0.98213  0.56126  0.10249  1.0000
  C   C2032     1.0  0.98030  0.57774  0.12101  1.0000
  C   C2033     1.0  0.97755  0.56304  0.14008  1.0000
  C   C2034     1.0  0.97662  0.53220  0.14065  1.0000
  H   H3590     1.0  0.98293  0.51776  0.08883  1.0000
  H   H3591     1.0  0.98384  0.57255  0.08762  1.0000
  H   H3592     1.0  0.97600  0.57536  0.15438  1.0000
  H   H3593     1.0  0.97426  0.52097  0.15541  1.0000
  C   C2035     1.0  0.90503  0.93577  0.07792  1.0000
  C   C2036     1.0  0.89058  0.93782  0.08871  1.0000
  C   C2037     1.0  0.87661  0.94102  0.07768  1.0000
  C   C2038     1.0  0.87697  0.94153  0.05572  1.0000
  C   C2039     1.0  0.89145  0.93979  0.04491  1.0000
  C   C2040     1.0  0.90547  0.93698  0.05597  1.0000
  H   H3594     1.0  0.00391  0.51131  0.16484  1.0000
  H   H3595     1.0  0.86553  0.94287  0.08609  1.0000
  H   H3596     1.0  0.89181  0.94029  0.02789  1.0000
  H   H3597     1.0  0.91656  0.93543  0.04750  1.0000
  H   H3598     1.0  0.77755  0.94961  0.00853  1.0000
  H   H3599     1.0  0.91499  0.52875  0.11582  1.0000
  H   H3600     1.0  0.98947  0.57235  0.20094  1.0000
  H   H3601     1.0  0.87519  0.98297  0.15813  1.0000
  H   H3602     1.0  0.96358  0.56156  0.03177  1.0000
  H   H3603     1.0  0.82886  0.82239  0.03435  1.0000
  H   H3604     1.0  0.00403  0.56830  0.26027  1.0000
  H   H3605     1.0  0.89891  0.57847  0.04708  1.0000
  C   C2041     1.0  0.78085  0.82588  0.15140  1.0000
  H   H3606     1.0  0.79451  0.78393  0.21021  1.0000
  C   C2042     1.0  0.82147  0.81143  0.20193  1.0000
  C   C2043     1.0  0.89456  0.55875  0.05579  1.0000
  H   H3607     1.0  0.79023  0.77689  0.26119  1.0000
  N   N112      1.0  0.87683  0.57914  0.15246  1.0000
  C   C2044     1.0  0.86697  0.59296  0.16973  1.0000
  C   C2045     1.0  0.88141  0.60264  0.13657  1.0000
  C   C2046     1.0  0.86668  0.55717  0.14121  1.0000
  C   C2047     1.0  0.89103  0.56331  0.16070  1.0000
  C   C2048     1.0  0.89874  0.57619  0.18057  1.0000
  C   C2049     1.0  0.85887  0.57103  0.18531  1.0000
  C   C2050     1.0  0.89090  0.62918  0.14460  1.0000
  C   C2051     1.0  0.89315  0.65247  0.12738  1.0000
  C   C2052     1.0  0.91406  0.56053  0.18547  1.0000
  C   C2053     1.0  0.85274  0.58666  0.20504  1.0000
  H   H3608     1.0  0.85762  0.60684  0.16286  1.0000
  H   H3609     1.0  0.87393  0.60856  0.17910  1.0000
  H   H3610     1.0  0.88871  0.59317  0.12365  1.0000
  H   H3611     1.0  0.87068  0.61156  0.12912  1.0000
  H   H3612     1.0  0.85557  0.56780  0.13629  1.0000
  H   H3613     1.0  0.88584  0.56557  0.06803  1.0000
  C   C2054     1.0  0.00898  0.66146  0.29025  1.0000
  H   H3614     1.0  0.90021  0.56175  0.14813  1.0000
  H   H3615     1.0  0.89093  0.57360  0.19460  1.0000
  H   H3616     1.0  0.90134  0.59982  0.17885  1.0000
  H   H3617     1.0  0.77192  0.77311  0.00072  1.0000
  H   H3618     1.0  0.84870  0.56048  0.17780  1.0000
  H   H3619     1.0  0.88491  0.64011  0.15801  1.0000
  H   H3620     1.0  0.90273  0.62207  0.14915  1.0000
  H   H3621     1.0  0.88167  0.66158  0.12271  1.0000
  H   H3622     1.0  0.90036  0.67082  0.13340  1.0000
  H   H3623     1.0  0.89928  0.64301  0.11339  1.0000
  H   H3624     1.0  0.91215  0.53648  0.18748  1.0000
  H   H3625     1.0  0.92294  0.56450  0.17282  1.0000
  C   C2055     1.0  0.01327  0.67157  0.32846  1.0000
  H   H3626     1.0  0.84416  0.60389  0.20077  1.0000
  H   H3627     1.0  0.79236  0.78609  0.01826  1.0000
  H   H3628     1.0  0.77999  0.78047  0.07089  1.0000
  N   N113      1.0  0.86780  0.84210  0.08999  1.0000
  C   C2056     1.0  0.86326  0.83977  0.06726  1.0000
  C   C2057     1.0  0.86126  0.81577  0.10181  1.0000
  C   C2058     1.0  0.85987  0.86913  0.09905  1.0000
  C   C2059     1.0  0.88529  0.84514  0.09265  1.0000
  C   C2060     1.0  0.89618  0.82952  0.07629  1.0000
  C   C2061     1.0  0.86662  0.86754  0.05363  1.0000
  C   C2062     1.0  0.86154  0.87383  0.12311  1.0000
  C   C2063     1.0  0.86799  0.78529  0.09578  1.0000
  C   C2064     1.0  0.85879  0.76058  0.10685  1.0000
  C   C2065     1.0  0.91335  0.83252  0.08219  1.0000
  C   C2066     1.0  0.86571  0.86100  0.03016  1.0000
  C   C2067     1.0  0.85754  0.90536  0.12956  1.0000
  H   H3629     1.0  0.85047  0.83523  0.06619  1.0000
  H   H3630     1.0  0.86904  0.82077  0.05948  1.0000
  H   H3631     1.0  0.86327  0.81775  0.11890  1.0000
  H   H3632     1.0  0.84830  0.81494  0.10017  1.0000
  H   H3633     1.0  0.84714  0.86893  0.09565  1.0000
  H   H3634     1.0  0.86454  0.88926  0.09125  1.0000
  H   H3635     1.0  0.88883  0.86881  0.09211  1.0000
  H   H3636     1.0  0.88857  0.83725  0.10853  1.0000
  H   H3637     1.0  0.89509  0.83954  0.06047  1.0000
  H   H3638     1.0  0.89347  0.80583  0.07486  1.0000
  H   H3639     1.0  0.85774  0.88457  0.05734  1.0000
  H   H3640     1.0  0.87827  0.87712  0.05676  1.0000
  H   H3641     1.0  0.87361  0.86925  0.12821  1.0000
  H   H3642     1.0  0.85335  0.85905  0.13191  1.0000
  H   H3643     1.0  0.86749  0.78121  0.07865  1.0000
  H   H3644     1.0  0.88029  0.78358  0.10088  1.0000
  H   H3645     1.0  0.86426  0.73899  0.10317  1.0000
  H   H3646     1.0  0.85865  0.76351  0.12419  1.0000
  H   H3647     1.0  0.84654  0.76008  0.10137  1.0000
  H   H3648     1.0  0.91675  0.85612  0.08311  1.0000
  H   H3649     1.0  0.91546  0.82166  0.09750  1.0000
  H   H3650     1.0  0.92094  0.82187  0.07003  1.0000
  H   H3651     1.0  0.85392  0.85255  0.02632  1.0000
  H   H3652     1.0  0.82096  0.50171  0.12264  1.0000
  H   H3653     1.0  0.87476  0.84472  0.02533  1.0000
  H   H3654     1.0  0.85776  0.90731  0.14694  1.0000
  H   H3655     1.0  0.86615  0.92105  0.12262  1.0000
  H   H3656     1.0  0.84569  0.91152  0.12433  1.0000
  C   C2068     1.0  0.92494  0.52213  0.10535  1.0000
  H   H3657     1.0  0.76656  0.76936  0.21071  1.0000
  H   H3658     1.0  0.95268  0.97374  0.17046  1.0000
  H   H3659     1.0  0.80110  0.75168  0.29218  1.0000
  H   H3660     1.0  0.90862  0.84592  0.16130  1.0000
  H   H3661     1.0  0.78776  0.72798  0.07866  1.0000
  N   N114      1.0  0.77464  0.80099  0.04092  1.0000
  C   C2069     1.0  0.98426  0.67445  0.27097  1.0000
  C   C2070     1.0  0.78641  0.72252  0.32481  1.0000
  C   C2071     1.0  0.78873  0.74053  0.23955  1.0000
  S   S477      1.0  0.00860  0.65571  0.21375  1.0000
  H   H3662     1.0  0.94119  0.59079  0.09568  1.0000
  C   C2072     1.0  0.79220  0.80313  0.19981  1.0000
  C   C2073     1.0  0.90812  0.54218  0.06568  1.0000
  H   H3663     1.0  0.88807  0.54006  0.16483  1.0000
  H   H3664     1.0  0.00987  0.51701  0.20702  1.0000
  H   H3665     1.0  0.86693  0.55325  0.19012  1.0000
  C   C2074     1.0  0.95985  0.54520  0.04388  1.0000
  C   C2075     1.0  0.79669  0.60374  0.20023  1.0000
  C   C2076     1.0  0.92905  0.58149  0.12490  1.0000
  C   C2077     1.0  0.78924  0.80591  0.02753  1.0000
  H   H3666     1.0  0.85252  0.52596  0.10838  1.0000
  N   N115      1.0  0.91417  0.79931  0.15900  1.0000
  C   C2078     1.0  0.92603  0.79334  0.17581  1.0000
  C   C2079     1.0  0.91558  0.83073  0.15103  1.0000
  C   C2080     1.0  0.89807  0.79580  0.16913  1.0000
  C   C2081     1.0  0.91555  0.77774  0.14109  1.0000
  C   C2082     1.0  0.93159  0.77626  0.12948  1.0000
  C   C2083     1.0  0.92643  0.76150  0.18478  1.0000
  C   C2084     1.0  0.88397  0.80346  0.15508  1.0000
  C   C2085     1.0  0.93216  0.84467  0.14987  1.0000
  C   C2086     1.0  0.93218  0.87383  0.13777  1.0000
  C   C2087     1.0  0.93242  0.75018  0.11442  1.0000
  C   C2088     1.0  0.86858  0.80301  0.16781  1.0000
  H   H3667     1.0  0.93817  0.79776  0.17005  1.0000
  H   H3668     1.0  0.91047  0.83272  0.13515  1.0000
  H   H3669     1.0  0.89598  0.77278  0.17440  1.0000
  H   H3670     1.0  0.91255  0.75521  0.14669  1.0000
  H   H3671     1.0  0.90691  0.78287  0.12882  1.0000
  H   H3672     1.0  0.94116  0.77356  0.14063  1.0000
  H   H3673     1.0  0.93364  0.79646  0.11997  1.0000
  H   H3674     1.0  0.91487  0.75418  0.19096  1.0000
  H   H3675     1.0  0.93049  0.74590  0.17243  1.0000
  H   H3676     1.0  0.88292  0.78701  0.14235  1.0000
  H   H3677     1.0  0.88514  0.82563  0.14790  1.0000
  H   H3678     1.0  0.77750  0.62018  0.10415  1.0000
  H   H3679     1.0  0.94079  0.83011  0.14207  1.0000
  H   H3680     1.0  0.92919  0.87023  0.12106  1.0000
  H   H3681     1.0  0.92372  0.88958  0.14496  1.0000
  H   H3682     1.0  0.94399  0.75015  0.10608  1.0000
  H   H3683     1.0  0.93121  0.72910  0.12325  1.0000
  H   H3684     1.0  0.92313  0.75176  0.10254  1.0000
  H   H3685     1.0  0.86667  0.78111  0.17525  1.0000
  H   H3686     1.0  0.86865  0.82007  0.18026  1.0000
  H   H3687     1.0  0.85862  0.80750  0.15734  1.0000
  S   S478      1.0  0.81472  0.51536  0.07849  1.0000
  C   C2089     1.0  0.87420  0.54239  0.12142  1.0000
  H   H3688     1.0  0.93360  0.77294  0.21643  1.0000
  H   H3689     1.0  0.77342  0.58879  0.20965  1.0000
  H   H3690     1.0  0.88587  0.53315  0.12491  1.0000
  H   H3691     1.0  0.97034  0.53765  0.05238  1.0000
  H   H3692     1.0  0.91609  0.53494  0.05272  1.0000
  H   H3693     1.0  0.79267  0.61152  0.15847  1.0000
  S   S479      1.0  0.98002  0.95895  0.01329  1.0000
  H   H3694     1.0  0.89713  0.80949  0.18363  1.0000
  H   H3695     1.0  0.78517  0.75176  0.18403  1.0000
  H   H3696     1.0  0.91878  0.56941  0.20031  1.0000
  C   C2090     1.0  0.78000  0.62695  0.12049  1.0000
  C   C2091     1.0  0.93250  0.99323  0.13949  1.0000
  H   H3697     1.0  0.97067  0.98349  0.15683  1.0000
  C   C2092     1.0  0.77054  0.73718  0.14485  1.0000
  H   H3698     1.0  0.94357  0.52243  0.12911  1.0000
  H   H3699     1.0  0.95294  0.52856  0.08389  1.0000
  C   C2093     1.0  0.80643  0.72982  0.29519  1.0000
  H   H3700     1.0  0.79358  0.56163  0.16614  1.0000
  C   C2094     1.0  0.94805  0.55927  0.05917  1.0000
  H   H3701     1.0  0.81088  0.72080  0.28000  1.0000
  H   H3702     1.0  0.01175  0.95670  0.02992  1.0000
  C   C2095     1.0  0.00882  0.54127  0.20479  1.0000
  H   H3703     1.0  0.94053  0.62430  0.12614  1.0000
  H   H3704     1.0  0.80656  0.83233  0.17980  1.0000
  C   C2096     1.0  0.99088  0.66309  0.29163  1.0000
  H   H3705     1.0  0.98764  0.65968  0.25775  1.0000
  C   C2097     1.0  0.77831  0.85629  0.14170  1.0000
  C   C2098     1.0  0.99174  0.54844  0.19886  1.0000
  H   H3706     1.0  0.94404  0.88378  0.13810  1.0000
  H   H3707     1.0  0.97128  0.67519  0.27218  1.0000
  H   H3708     1.0  0.90312  0.52240  0.07354  1.0000
  C   C2099     1.0  0.93844  0.57084  0.10527  1.0000
  H   H3709     1.0  0.00991  0.55068  0.22077  1.0000
  C   C2100     1.0  0.93748  0.50676  0.11880  1.0000
  H   H3710     1.0  0.87548  0.55850  0.10833  1.0000
  C   C2101     1.0  0.78280  0.75971  0.25521  1.0000
  H   H3711     1.0  0.90767  0.56789  0.09379  1.0000
  H   H3712     1.0  0.95450  0.52612  0.03582  1.0000
  H   H3713     1.0  0.96790  0.53816  0.20871  1.0000
  H   H3714     1.0  0.92018  0.50454  0.09519  1.0000
  H   H3715     1.0  0.93628  0.84921  0.16600  1.0000
  H   H3716     1.0  0.99466  0.54802  0.02974  1.0000
  H   H3717     1.0  0.92411  0.80880  0.18918  1.0000
  H   H3718     1.0  0.90721  0.97989  0.11564  1.0000
  H   H3719     1.0  0.80042  0.68796  0.30875  1.0000
  H   H3720     1.0  0.98937  0.54277  0.18240  1.0000
  H   H3721     1.0  0.94918  0.59630  0.14248  1.0000
  C   C2102     1.0  0.01149  0.62125  0.31547  1.0000
  H   H3722     1.0  0.98570  0.64102  0.29456  1.0000
  H   H3723     1.0  0.86779  0.88164  0.02107  1.0000
  H   H3724     1.0  0.98695  0.67824  0.30431  1.0000
  H   H3725     1.0  0.00355  0.52458  0.05750  1.0000
  H   H3726     1.0  0.98451  0.59067  0.01094  1.0000
  H   H3727     1.0  0.01041  0.61952  0.08961  1.0000
  C   C2103     1.0  0.80749  0.81036  0.18738  1.0000
  H   H3728     1.0  0.79353  0.82156  0.15108  1.0000
  H   H3729     1.0  0.78996  0.77348  0.16187  1.0000
  S   S480      1.0  0.98963  0.98577  0.11485  1.0000
  H   H3730     1.0  0.98169  0.53759  0.22975  1.0000
  H   H3731     1.0  0.81967  0.82844  0.21424  1.0000
  H   H3732     1.0  0.95394  0.57822  0.06657  1.0000
  H   H3733     1.0  0.78158  0.82937  0.06640  1.0000
  H   H3734     1.0  0.81284  0.61422  0.22494  1.0000
  H   H3735     1.0  0.79211  0.70380  0.05696  1.0000
  H   H3736     1.0  0.00958  0.56938  0.07446  1.0000
  C   C2104     1.0  0.78154  0.55937  0.17308  1.0000
  H   H3737     1.0  0.79539  0.59540  0.23405  1.0000
  H   H3738     1.0  0.84678  0.57054  0.21567  1.0000
  H   H3739     1.0  0.92006  0.58274  0.07383  1.0000
  C   C2105     1.0  0.77556  0.77431  0.05520  1.0000
  H   H3740     1.0  0.88861  0.54410  0.04451  1.0000
  H   H3741     1.0  0.86312  0.53890  0.15200  1.0000
  H   H3742     1.0  0.00296  0.60960  0.01263  1.0000
  H   H3743     1.0  0.78302  0.74096  0.03163  1.0000
  H   H3744     1.0  0.94994  0.56280  0.11064  1.0000
  C   C2106     1.0  0.81864  0.81478  0.02537  1.0000
  H   H3745     1.0  0.79268  0.63208  0.12135  1.0000
  H   H3746     1.0  0.98863  0.69700  0.26739  1.0000
  C   C2107     1.0  0.95829  0.97699  0.15470  1.0000
  H   H3747     1.0  0.81017  0.79363  0.17531  1.0000
  H   H3748     1.0  0.95818  0.95591  0.14591  1.0000
  H   H3749     1.0  0.92690  0.56307  0.13602  1.0000
  C   C2108     1.0  0.77362  0.82390  0.17401  1.0000
  H   H3750     1.0  0.80204  0.62086  0.18990  1.0000
  H   H3751     1.0  0.80273  0.58257  0.19711  1.0000
  H   H3752     1.0  0.79851  0.75468  0.04728  1.0000
  H   H3753     1.0  0.86251  0.59696  0.21360  1.0000
  C   C2109     1.0  0.76740  0.75680  0.26330  1.0000
  H   H3754     1.0  0.78554  0.70411  0.29285  1.0000
  H   H3755     1.0  0.83223  0.81701  0.19262  1.0000
  H   H3756     1.0  0.82093  0.79200  0.01985  1.0000
  C   C2110     1.0  0.79434  0.70878  0.30498  1.0000
  H   H3757     1.0  0.79030  0.82223  0.21042  1.0000
  H   H3758     1.0  0.99889  0.62148  0.32016  1.0000
  H   H3759     1.0  0.80067  0.74279  0.23379  1.0000
  C   C2111     1.0  0.01148  0.58604  0.25460  1.0000
  C   C2112     1.0  0.94232  0.53668  0.07600  1.0000
  H   H3760     1.0  0.78437  0.87345  0.15089  1.0000
  C   C2113     1.0  0.91667  0.56171  0.08175  1.0000
  C   C2114     1.0  0.77882  0.60190  0.19651  1.0000
  H   H3761     1.0  0.00631  0.57913  0.17112  1.0000
  H   H3762     1.0  0.99681  0.89280  0.01204  1.0000
  C   C2115     1.0  0.89823  0.99489  0.14579  1.0000
  H   H3763     1.0  0.81645  0.73265  0.30582  1.0000
  C   C2116     1.0  0.93800  0.60518  0.13662  1.0000
  H   H3764     1.0  0.86211  0.50022  0.12570  1.0000
  H   H3765     1.0  0.01006  0.54286  0.14919  1.0000
  C   C2117     1.0  0.77322  0.88134  0.00836  1.0000
  C   C2118     1.0  0.77971  0.61014  0.15853  1.0000
  H   H3766     1.0  0.01492  0.56082  0.32338  1.0000
  N   N116      1.0  0.77784  0.79722  0.18706  1.0000
  C   C2119     1.0  0.01407  0.52276  0.15738  1.0000
  C   C2120     1.0  0.78432  0.72188  0.06249  1.0000
  H   H3767     1.0  0.78654  0.49893  0.17112  1.0000
  C   C2121     1.0  0.01174  0.95543  0.16330  1.0000
  H   H3768     1.0  0.90313  0.97489  0.15330  1.0000
  H   H3769     1.0  0.79461  0.63396  0.22673  1.0000
  H   H3770     1.0  0.78330  0.85678  0.12543  1.0000
  H   H3771     1.0  0.01247  0.60673  0.30142  1.0000
  N   N117      1.0  0.77401  0.58942  0.17561  1.0000
  H   H3772     1.0  0.77112  0.67042  0.31353  1.0000
  H   H3773     1.0  0.77762  0.71854  0.15071  1.0000
  C   C2122     1.0  0.78598  0.74829  0.04761  1.0000
  H   H3774     1.0  0.01212  0.64617  0.27721  1.0000
  C   C2123     1.0  0.99737  0.58757  0.01168  1.0000
  H   H3775     1.0  0.78709  0.82325  0.01549  1.0000
  H   H3776     1.0  0.01308  0.68337  0.28472  1.0000
  H   H3777     1.0  0.78230  0.58232  0.13071  1.0000
  C   C2124     1.0  0.97999  0.53189  0.21298  1.0000
  C   C2125     1.0  0.99832  0.97383  0.00445  1.0000
  C   C2126     1.0  0.77267  0.53606  0.16006  1.0000
  H   H3778     1.0  0.77538  0.80950  0.14096  1.0000
  H   H3779     1.0  0.01566  0.97666  0.20242  1.0000
  H   H3780     1.0  0.87900  0.97105  0.13152  1.0000
  H   H3781     1.0  0.01417  0.59784  0.19267  1.0000
  C   C2127     1.0  0.01207  0.96958  0.01557  1.0000
  H   H3782     1.0  0.80587  0.80171  0.05343  1.0000
  C   C2128     1.0  0.88079  0.98922  0.14283  1.0000
  H   H3783     1.0  0.93197  0.97037  0.13312  1.0000
  H   H3784     1.0  0.77448  0.62485  0.19850  1.0000
  H   H3785     1.0  0.99719  0.58096  0.04511  1.0000
  H   H3786     1.0  0.98131  0.50774  0.21092  1.0000
  C   C2129     1.0  0.00131  0.56892  0.03092  1.0000
  C   C2130     1.0  0.80001  0.61234  0.22290  1.0000
  H   H3787     1.0  0.79316  0.51452  0.14623  1.0000
  C   C2131     1.0  0.78271  0.50876  0.15606  1.0000
  H   H3788     1.0  0.77741  0.74926  0.13252  1.0000
  H   H3789     1.0  0.86985  0.50686  0.09953  1.0000
  H   H3790     1.0  0.01249  0.71382  0.31081  1.0000
  H   H3791     1.0  0.01228  0.61937  0.14646  1.0000
  H   H3792     1.0  0.77316  0.64713  0.12419  1.0000
  C   C2132     1.0  0.77556  0.60205  0.13574  1.0000
  C   C2133     1.0  0.77229  0.82799  0.05445  1.0000
  H   H3793     1.0  0.00977  0.86621  0.99996  1.0000
  C   C2134     1.0  0.01516  0.62938  0.23236  1.0000
  H   H3794     1.0  0.77208  0.71364  0.06291  1.0000
  H   H3795     1.0  0.76910  0.54474  0.14461  1.0000
  H   H3796     1.0  0.77677  0.84443  0.18246  1.0000
  H   H3797     1.0  0.77569  0.63297  0.16181  1.0000
  H   H3798     1.0  0.00430  0.95128  0.14952  1.0000
  H   H3799     1.0  0.92741  0.99220  0.15570  1.0000
  H   H3800     1.0  0.76994  0.81271  0.23196  1.0000
  H   H3801     1.0  0.77361  0.84832  0.04483  1.0000
  H   H3802     1.0  0.00839  0.93941  0.17586  1.0000
  H   H3803     1.0  0.93277  0.99096  0.09864  1.0000
  H   H3804     1.0  0.99675  0.98951  0.17475  1.0000
  H   H3805     1.0  0.01169  0.49702  0.12898  1.0000
  C   C2135     1.0  0.00934  0.98703  0.17089  1.0000
  H   H3806     1.0  0.81727  0.82961  0.01158  1.0000
  C   C2136     1.0  0.01632  0.52057  0.05546  1.0000
  H   H3807     1.0  0.92551  0.94172  0.62610  1.0000
  H   H3808     1.0  0.87186  0.83020  0.58568  1.0000
  Fe  Fe241     1.0  0.97430  0.89751  0.64816  1.0000
  S   S481      1.0  0.97831  0.87505  0.61683  1.0000
  S   S482      1.0  0.99158  0.92859  0.66194  1.0000
  S   S483      1.0  0.82993  0.92825  0.64461  1.0000
  Fe  Fe242     1.0  0.81071  0.96097  0.65156  1.0000
  H   H3809     1.0  0.85383  0.80425  0.61072  1.0000
  H   H3810     1.0  0.88837  0.73619  0.62028  1.0000
  C   C2137     1.0  0.97967  0.51640  0.62133  1.0000
  Fe  Fe243     1.0  0.97745  0.70626  0.59756  1.0000
  S   S484      1.0  0.96093  0.72267  0.57327  1.0000
  S   S485      1.0  0.98935  0.73666  0.62048  1.0000
  Fe  Fe244     1.0  0.97345  0.64118  0.58499  1.0000
  S   S486      1.0  0.95674  0.65384  0.55958  1.0000
  S   S487      1.0  0.97872  0.59169  0.58601  1.0000
  Fe  Fe245     1.0  0.97362  0.69090  0.55176  1.0000
  S   S488      1.0  0.98080  0.70108  0.51757  1.0000
  Fe  Fe246     1.0  0.94583  0.68426  0.58342  1.0000
  S   S489      1.0  0.92058  0.68841  0.59518  1.0000
  S   S490      1.0  0.99096  0.67640  0.57558  1.0000
  S   S491      1.0  0.96168  0.66972  0.60926  1.0000
  Fe  Fe247     1.0  0.79980  0.66351  0.55076  1.0000
  S   S492      1.0  0.79263  0.68061  0.58298  1.0000
  S   S493      1.0  0.78514  0.66186  0.52080  1.0000
  Fe  Fe248     1.0  0.83483  0.66408  0.56217  1.0000
  S   S494      1.0  0.83026  0.68115  0.59470  1.0000
  S   S495      1.0  0.85869  0.65438  0.54755  1.0000
  Fe  Fe249     1.0  0.81047  0.64836  0.59508  1.0000
  S   S496      1.0  0.80771  0.62196  0.62519  1.0000
  Fe  Fe250     1.0  0.81301  0.71208  0.58025  1.0000
  S   S497      1.0  0.81212  0.76232  0.58320  1.0000
  S   S498      1.0  0.81619  0.62914  0.56332  1.0000
  S   S499      1.0  0.81908  0.69716  0.54741  1.0000
  C   C2138     1.0  0.99880  0.71676  0.50838  1.0000
  H   H3811     1.0  0.90036  0.50513  0.66466  1.0000
  C   C2139     1.0  0.85836  0.74457  0.60839  1.0000
  C   C2140     1.0  0.87275  0.52194  0.65142  1.0000
  H   H3812     1.0  0.91394  0.78177  0.60937  1.0000
  C   C2141     1.0  0.90370  0.67851  0.58142  1.0000
  C   C2142     1.0  0.88920  0.67899  0.59223  1.0000
  C   C2143     1.0  0.87533  0.67221  0.58187  1.0000
  C   C2144     1.0  0.87586  0.66424  0.56071  1.0000
  C   C2145     1.0  0.89037  0.66331  0.54992  1.0000
  C   C2146     1.0  0.90427  0.67066  0.56019  1.0000
  H   H3813     1.0  0.88873  0.68461  0.60873  1.0000
  H   H3814     1.0  0.86427  0.67267  0.59037  1.0000
  H   H3815     1.0  0.89086  0.65709  0.53352  1.0000
  H   H3816     1.0  0.91539  0.67023  0.55173  1.0000
  C   C2147     1.0  0.81403  0.82450  0.64052  1.0000
  C   C2148     1.0  0.81300  0.83565  0.62005  1.0000
  C   C2149     1.0  0.81224  0.81626  0.60280  1.0000
  C   C2150     1.0  0.81269  0.78553  0.60570  1.0000
  C   C2151     1.0  0.81372  0.77435  0.62613  1.0000
  C   C2152     1.0  0.81437  0.79372  0.64340  1.0000
  H   H3817     1.0  0.81264  0.85921  0.61755  1.0000
  H   H3818     1.0  0.81125  0.82519  0.58711  1.0000
  H   H3819     1.0  0.81390  0.75081  0.62867  1.0000
  H   H3820     1.0  0.78468  0.75280  0.36274  1.0000
  H   H3821     1.0  0.94180  0.53204  0.66199  1.0000
  C   C2153     1.0  0.81026  0.53696  0.60568  1.0000
  C   C2154     1.0  0.80854  0.56774  0.60569  1.0000
  C   C2155     1.0  0.81063  0.58357  0.62420  1.0000
  C   C2156     1.0  0.81484  0.56852  0.64253  1.0000
  C   C2157     1.0  0.81670  0.53777  0.64249  1.0000
  H   H3822     1.0  0.80831  0.52477  0.59140  1.0000
  H   H3823     1.0  0.80514  0.57907  0.59152  1.0000
  H   H3824     1.0  0.92323  0.98711  0.64629  1.0000
  C   C2158     1.0  0.00909  0.72251  0.34357  1.0000
  C   C2159     1.0  0.97981  0.52649  0.64207  1.0000
  H   H3825     1.0  0.98377  0.81015  0.54015  1.0000
  C   C2160     1.0  0.97908  0.53664  0.60444  1.0000
  C   C2161     1.0  0.97852  0.56720  0.60801  1.0000
  C   C2162     1.0  0.97836  0.57728  0.62877  1.0000
  C   C2163     1.0  0.97911  0.55704  0.64566  1.0000
  H   H3826     1.0  0.87739  0.77209  0.56458  1.0000
  H   H3827     1.0  0.97928  0.52856  0.58847  1.0000
  H   H3828     1.0  0.97802  0.60068  0.63181  1.0000
  H   H3829     1.0  0.99552  0.98330  0.63691  1.0000
  C   C2164     1.0  0.98128  0.83660  0.61789  1.0000
  C   C2165     1.0  0.98847  0.82350  0.63510  1.0000
  C   C2166     1.0  0.99120  0.79298  0.63531  1.0000
  C   C2167     1.0  0.98625  0.77512  0.61883  1.0000
  C   C2168     1.0  0.97916  0.78826  0.60152  1.0000
  C   C2169     1.0  0.97687  0.81896  0.60094  1.0000
  H   H3830     1.0  0.83694  0.51822  0.57671  1.0000
  H   H3831     1.0  0.00076  0.66895  0.33333  1.0000
  H   H3832     1.0  0.79489  0.62446  0.36385  1.0000
  H   H3833     1.0  0.97147  0.82897  0.58746  1.0000
  H   H3834     1.0  0.99226  0.83697  0.64800  1.0000
  H   H3835     1.0  0.82204  0.56708  0.53820  1.0000
  H   H3836     1.0  0.79265  0.74621  0.54635  1.0000
  H   H3837     1.0  0.94692  0.51661  0.62775  1.0000
  H   H3838     1.0  0.81683  0.58082  0.65674  1.0000
  C   C2170     1.0  0.85647  0.57400  0.60141  1.0000
  C   C2171     1.0  0.85640  0.60784  0.60452  1.0000
  H   H3839     1.0  0.94493  0.94021  0.58286  1.0000
  H   H3840     1.0  0.87802  0.56750  0.55498  1.0000
  H   H3841     1.0  0.86476  0.56418  0.61266  1.0000
  H   H3842     1.0  0.84469  0.56611  0.60679  1.0000
  H   H3843     1.0  0.84708  0.61827  0.59518  1.0000
  H   H3844     1.0  0.86779  0.61768  0.59978  1.0000
  C   C2172     1.0  0.81418  0.52182  0.62412  1.0000
  H   H3845     1.0  0.87105  0.52402  0.59092  1.0000
  H   H3846     1.0  0.98963  0.78211  0.46953  1.0000
  H   H3847     1.0  0.78366  0.72080  0.37956  1.0000
  C   C2173     1.0  0.76690  0.72054  0.35351  1.0000
  C   C2174     1.0  0.77769  0.65992  0.36536  1.0000
  H   H3848     1.0  0.78272  0.62476  0.38733  1.0000
  C   C2175     1.0  0.00331  0.95572  0.57316  1.0000
  H   H3849     1.0  0.98905  0.81273  0.50146  1.0000
  H   H3850     1.0  0.78562  0.78183  0.53980  1.0000
  H   H3851     1.0  0.77201  0.67295  0.37808  1.0000
  H   H3852     1.0  0.94507  0.56703  0.63957  1.0000
  H   H3853     1.0  0.77281  0.96595  0.47469  1.0000
  C   C2176     1.0  0.78917  0.63893  0.37576  1.0000
  H   H3854     1.0  0.83462  0.59634  0.52822  1.0000
  H   H3855     1.0  0.84867  0.73038  0.56796  1.0000
  C   C2177     1.0  0.93917  0.49745  0.63012  1.0000
  C   C2178     1.0  0.99415  0.79885  0.45816  1.0000
  H   H3856     1.0  0.88771  0.79386  0.59447  1.0000
  H   H3857     1.0  0.98744  0.63612  0.52881  1.0000
  H   H3858     1.0  0.98904  0.85234  0.47855  1.0000
  H   H3859     1.0  0.87682  0.73602  0.57480  1.0000
  C   C2179     1.0  0.86981  0.75659  0.57380  1.0000
  H   H3860     1.0  0.84204  0.60676  0.63329  1.0000
  H   H3861     1.0  0.84654  0.73997  0.60216  1.0000
  H   H3862     1.0  0.97758  0.97163  0.61412  1.0000
  H   H3863     1.0  0.84629  0.73001  0.66033  1.0000
  C   C2180     1.0  0.98330  0.59400  0.51388  1.0000
  H   H3864     1.0  0.86487  0.72347  0.60686  1.0000
  C   C2181     1.0  0.84853  0.84474  0.57987  1.0000
  H   H3865     1.0  0.98186  0.90478  0.48784  1.0000
  C   C2182     1.0  0.91420  0.95363  0.62640  1.0000
  C   C2183     1.0  0.93555  0.60274  0.62225  1.0000
  H   H3866     1.0  0.01466  0.82523  0.45174  1.0000
  H   H3867     1.0  0.85302  0.64014  0.62919  1.0000
  H   H3868     1.0  0.90245  0.61210  0.57467  1.0000
  C   C2184     1.0  0.80211  0.75760  0.50687  1.0000
  H   H3869     1.0  0.77771  0.76692  0.50515  1.0000
  H   H3870     1.0  0.01288  0.74587  0.34241  1.0000
  H   H3871     1.0  0.01511  0.96406  0.56837  1.0000
  C   C2185     1.0  0.78617  0.67993  0.34876  1.0000
  H   H3872     1.0  0.86842  0.71951  0.53934  1.0000
  C   C2186     1.0  0.85580  0.75107  0.63214  1.0000
  H   H3873     1.0  0.81024  0.74247  0.51495  1.0000
  H   H3874     1.0  0.93802  0.55744  0.61391  1.0000
  S   S500      1.0  0.98150  0.50207  0.66393  1.0000
  H   H3875     1.0  0.97933  0.56514  0.66161  1.0000
  H   H3876     1.0  0.01231  0.88347  0.55804  1.0000
  H   H3877     1.0  0.77324  0.76491  0.39737  1.0000
  S   S501      1.0  0.80067  0.98949  0.62572  1.0000
  C   C2187     1.0  0.90400  0.58787  0.57416  1.0000
  C   C2188     1.0  0.89341  0.75315  0.60954  1.0000
  C   C2189     1.0  0.96878  0.95625  0.58470  1.0000
  C   C2190     1.0  0.00144  0.87937  0.49985  1.0000
  H   H3878     1.0  0.84791  0.77020  0.63448  1.0000
  H   H3879     1.0  0.00099  0.91841  0.47975  1.0000
  S   S502      1.0  0.81471  0.84775  0.66301  1.0000
  H   H3880     1.0  0.99474  0.60472  0.54211  1.0000
  C   C2191     1.0  0.87505  0.57693  0.57066  1.0000
  H   H3881     1.0  0.83758  0.83651  0.57288  1.0000
  C   C2192     1.0  0.88148  0.77801  0.60509  1.0000
  H   H3882     1.0  0.01004  0.62669  0.56338  1.0000
  C   C2193     1.0  0.86188  0.53056  0.57970  1.0000
  H   H3883     1.0  0.99224  0.71477  0.47589  1.0000
  H   H3884     1.0  0.76863  0.64616  0.35799  1.0000
  H   H3885     1.0  0.96103  0.61493  0.52175  1.0000
  C   C2194     1.0  0.77665  0.73651  0.37029  1.0000
  H   H3886     1.0  0.84357  0.78779  0.59017  1.0000
  C   C2195     1.0  0.00648  0.98991  0.62866  1.0000
  H   H3887     1.0  0.98800  0.57126  0.51467  1.0000
  C   C2196     1.0  0.00697  0.81423  0.52534  1.0000
  H   H3888     1.0  0.84579  0.53567  0.54334  1.0000
  H   H3889     1.0  0.91531  0.57834  0.64897  1.0000
  H   H3890     1.0  0.86267  0.81290  0.56370  1.0000
  H   H3891     1.0  0.84998  0.73205  0.52959  1.0000
  H   H3892     1.0  0.90873  0.95113  0.61084  1.0000
  C   C2197     1.0  0.00814  0.63733  0.49626  1.0000
  C   C2198     1.0  0.88977  0.57254  0.58421  1.0000
  C   C2199     1.0  0.84683  0.57293  0.56549  1.0000
  H   H3893     1.0  0.77564  0.70540  0.55057  1.0000
  C   C2200     1.0  0.85539  0.74871  0.56052  1.0000
  H   H3894     1.0  0.00899  0.72150  0.53881  1.0000
  H   H3895     1.0  0.80325  0.75364  0.48969  1.0000
  C   C2201     1.0  0.77164  0.63643  0.50971  1.0000
  H   H3896     1.0  0.83684  0.71925  0.63654  1.0000
  C   C2202     1.0  0.78523  0.75186  0.51424  1.0000
  C   C2203     1.0  0.78312  0.75799  0.53805  1.0000
  C   C2204     1.0  0.90804  0.76533  0.61982  1.0000
  H   H3897     1.0  0.93454  0.61684  0.63644  1.0000
  H   H3898     1.0  0.78425  0.79544  0.57234  1.0000
  H   H3899     1.0  0.87922  0.79036  0.61993  1.0000
  H   H3900     1.0  0.99615  0.72163  0.34255  1.0000
  C   C2205     1.0  0.77287  0.98378  0.44358  1.0000
  C   C2206     1.0  0.84699  0.55997  0.54295  1.0000
  N   N118      1.0  0.91844  0.53116  0.64892  1.0000
  C   C2207     1.0  0.00132  0.72086  0.48662  1.0000
  C   C2208     1.0  0.00939  0.97020  0.60911  1.0000
  H   H3901     1.0  0.86699  0.75578  0.63995  1.0000
  H   H3902     1.0  0.82012  0.52644  0.65661  1.0000
  H   H3903     1.0  0.00404  0.76557  0.43706  1.0000
  H   H3904     1.0  0.83527  0.56773  0.57307  1.0000
  H   H3905     1.0  0.91640  0.74708  0.62263  1.0000
  H   H3906     1.0  0.84687  0.59727  0.56357  1.0000
  H   H3907     1.0  0.95705  0.91897  0.60002  1.0000
  H   H3908     1.0  0.98226  0.60082  0.49724  1.0000
  H   H3909     1.0  0.88805  0.58174  0.60020  1.0000
  C   C2209     1.0  0.77209  0.78943  0.57702  1.0000
  H   H3910     1.0  0.97563  0.77491  0.58848  1.0000
  H   H3911     1.0  0.84744  0.76776  0.55864  1.0000
  H   H3912     1.0  0.90654  0.94323  0.63869  1.0000
  H   H3913     1.0  0.89466  0.99215  0.64677  1.0000
  C   C2210     1.0  0.83344  0.57212  0.53025  1.0000
  H   H3914     1.0  0.85293  0.86353  0.57019  1.0000
  H   H3915     1.0  0.85607  0.70514  0.64234  1.0000
  H   H3916     1.0  0.00406  0.78601  0.49927  1.0000
  H   H3917     1.0  0.89271  0.54886  0.58565  1.0000
  H   H3918     1.0  0.87358  0.60090  0.56759  1.0000
  C   C2211     1.0  0.85549  0.79465  0.59476  1.0000
  H   H3919     1.0  0.99338  0.91136  0.57934  1.0000
  H   H3920     1.0  0.87298  0.49843  0.65619  1.0000
  H   H3921     1.0  0.86291  0.60713  0.63749  1.0000
  H   H3922     1.0  0.01133  0.66265  0.53355  1.0000
  C   C2212     1.0  0.86083  0.82034  0.58014  1.0000
  H   H3923     1.0  0.86613  0.52244  0.56410  1.0000
  H   H3924     1.0  0.78249  0.72872  0.51029  1.0000
  S   S503      1.0  0.95413  0.92896  0.65230  1.0000
  H   H3925     1.0  0.91134  0.56148  0.62442  1.0000
  C   C2213     1.0  0.91934  0.56074  0.63793  1.0000
  H   H3926     1.0  0.86645  0.75689  0.52980  1.0000
  H   H3927     1.0  0.90581  0.58092  0.55756  1.0000
  H   H3928     1.0  0.77912  0.58229  0.66436  1.0000
  H   H3929     1.0  0.83353  0.56194  0.51441  1.0000
  C   C2214     1.0  0.93545  0.57017  0.62845  1.0000
  H   H3930     1.0  0.97233  0.94299  0.57082  1.0000
  C   C2215     1.0  0.00197  0.80986  0.50221  1.0000
  C   C2216     1.0  0.85342  0.61581  0.62757  1.0000
  C   C2217     1.0  0.01072  0.72451  0.52203  1.0000
  H   H3931     1.0  0.99584  0.96013  0.55938  1.0000
  C   C2218     1.0  0.98222  0.95866  0.60066  1.0000
  H   H3932     1.0  0.85796  0.56572  0.53427  1.0000
  C   C2219     1.0  0.01020  0.81127  0.46502  1.0000
  H   H3933     1.0  0.91467  0.58215  0.58291  1.0000
  H   H3934     1.0  0.94678  0.60808  0.61394  1.0000
  H   H3935     1.0  0.84592  0.85277  0.59605  1.0000
  H   H3936     1.0  0.00608  0.57263  0.48902  1.0000
  H   H3937     1.0  0.92585  0.60807  0.61159  1.0000
  H   H3938     1.0  0.00786  0.83767  0.52971  1.0000
  C   C2220     1.0  0.96673  0.59310  0.52340  1.0000
  C   C2221     1.0  0.99555  0.78403  0.43667  1.0000
  C   C2222     1.0  0.86043  0.73873  0.53848  1.0000
  H   H3939     1.0  0.79594  0.73142  0.33460  1.0000
  N   N119      1.0  0.86006  0.56357  0.57934  1.0000
  N   N120      1.0  0.01018  0.82833  0.48539  1.0000
  C   C2223     1.0  0.90192  0.52750  0.65764  1.0000
  H   H3940     1.0  0.89728  0.74237  0.59472  1.0000
  H   H3941     1.0  0.88741  0.55464  0.63697  1.0000
  N   N121      1.0  0.86630  0.76846  0.59552  1.0000
  H   H3942     1.0  0.01019  0.94723  0.61519  1.0000
  H   H3943     1.0  0.96694  0.58689  0.54031  1.0000
  H   H3944     1.0  0.94987  0.95468  0.60813  1.0000
  H   H3945     1.0  0.80555  0.78071  0.51008  1.0000
  H   H3946     1.0  0.00348  0.91190  0.54243  1.0000
  H   H3947     1.0  0.89073  0.51769  0.62746  1.0000
  H   H3948     1.0  0.98436  0.93648  0.60750  1.0000
  C   C2224     1.0  0.01140  0.90767  0.55570  1.0000
  H   H3949     1.0  0.79614  0.69093  0.35651  1.0000
  H   H3950     1.0  0.99976  0.65589  0.49824  1.0000
  H   H3951     1.0  0.90500  0.77570  0.63515  1.0000
  H   H3952     1.0  0.95963  0.57660  0.51502  1.0000
  C   C2225     1.0  0.84830  0.72469  0.64346  1.0000
  C   C2226     1.0  0.95431  0.94162  0.59461  1.0000
  H   H3953     1.0  0.98400  0.77507  0.43224  1.0000
  H   H3954     1.0  0.79824  0.65143  0.38422  1.0000
  C   C2227     1.0  0.99390  0.61503  0.52630  1.0000
  N   N122      1.0  0.99727  0.97209  0.59225  1.0000
  H   H3955     1.0  0.96512  0.97836  0.57923  1.0000
  H   H3956     1.0  0.98530  0.81651  0.45684  1.0000
  H   H3957     1.0  0.99945  0.80013  0.42443  1.0000
  C   C2228     1.0  0.99406  0.90840  0.49293  1.0000
  H   H3958     1.0  0.99428  0.87089  0.51331  1.0000
  H   H3959     1.0  0.78139  0.53671  0.65410  1.0000
  H   H3960     1.0  0.99416  0.77570  0.53719  1.0000
  C   C2229     1.0  0.00154  0.85679  0.48174  1.0000
  H   H3961     1.0  0.99975  0.80149  0.55709  1.0000
  N   N123      1.0  0.00997  0.62124  0.51690  1.0000
  C   C2230     1.0  0.01557  0.73245  0.47857  1.0000
  C   C2231     1.0  0.84713  0.51275  0.58646  1.0000
  C   C2232     1.0  0.91686  0.98617  0.63129  1.0000
  H   H3962     1.0  0.77753  0.74287  0.57870  1.0000
  C   C2233     1.0  0.00488  0.92181  0.57579  1.0000
  H   H3963     1.0  0.99726  0.78309  0.64818  1.0000
  C   C2234     1.0  0.88854  0.53120  0.64170  1.0000
  H   H3964     1.0  0.78466  0.99368  0.44516  1.0000
  H   H3965     1.0  0.76956  0.60779  0.53665  1.0000
  H   H3966     1.0  0.01140  0.67109  0.46016  1.0000
  H   H3967     1.0  0.00267  0.62312  0.48438  1.0000
  H   H3968     1.0  0.86336  0.52477  0.63980  1.0000
  H   H3969     1.0  0.92459  0.99555  0.61881  1.0000
  H   H3970     1.0  0.99380  0.92413  0.50624  1.0000
  C   C2235     1.0  0.01326  0.57473  0.33759  1.0000
  C   C2236     1.0  0.99543  0.79947  0.54081  1.0000
  H   H3971     1.0  0.00612  0.86796  0.46724  1.0000
  H   H3972     1.0  0.84402  0.51723  0.60315  1.0000
  C   C2237     1.0  0.76846  0.75695  0.57129  1.0000
  H   H3973     1.0  0.00060  0.57600  0.34178  1.0000
  H   H3974     1.0  0.79171  0.66481  0.33709  1.0000
  C   C2238     1.0  0.77058  0.79425  0.60076  1.0000
  H   H3975     1.0  0.81507  0.78481  0.65915  1.0000
  H   H3976     1.0  0.01341  0.88449  0.50508  1.0000
  H   H3977     1.0  0.91677  0.51153  0.61820  1.0000
  H   H3978     1.0  0.01259  0.71383  0.35914  1.0000
  H   H3979     1.0  0.77405  0.81715  0.60459  1.0000
  N   N124      1.0  0.77605  0.70224  0.33782  1.0000
  C   C2239     1.0  0.92179  0.50629  0.63377  1.0000
  H   H3980     1.0  0.77703  0.63482  0.65474  1.0000
  H   H3981     1.0  0.77084  0.66023  0.48034  1.0000
  H   H3982     1.0  0.86982  0.53554  0.66544  1.0000
  N   N125      1.0  0.76747  0.75012  0.54809  1.0000
  H   H3983     1.0  0.77840  0.77898  0.60928  1.0000
  H   H3984     1.0  0.77416  0.96208  0.43575  1.0000
  H   H3985     1.0  0.01289  0.91620  0.58869  1.0000
  H   H3986     1.0  0.01635  0.57783  0.52781  1.0000
  H   H3987     1.0  0.95499  0.99653  0.62898  1.0000
  S   S504      1.0  0.96642  0.93826  0.70088  1.0000
  S   S505      1.0  0.96999  0.87322  0.67841  1.0000
  Fe  Fe251     1.0  0.95086  0.90680  0.68367  1.0000
  S   S506      1.0  0.92689  0.89018  0.69413  1.0000
  Fe  Fe252     1.0  0.98594  0.90650  0.69300  1.0000
  S   S507      1.0  0.00825  0.89744  0.71123  1.0000
  H   H3988     1.0  0.89725  0.95974  0.74944  1.0000
  Fe  Fe253     1.0  0.80903  0.94767  0.69882  1.0000
  H   H3989     1.0  0.98532  0.96921  0.91326  1.0000
  S   S508      1.0  0.80202  0.96608  0.73130  1.0000
  H   H3990     1.0  0.92284  0.94029  0.75945  1.0000
  H   H3991     1.0  0.77175  0.51373  0.69862  1.0000
  H   H3992     1.0  0.01610  0.91756  0.98895  1.0000
  S   S509      1.0  0.82819  0.91376  0.69550  1.0000
  C   C2240     1.0  0.78371  0.97699  0.74286  1.0000
  C   C2241     1.0  0.79285  0.56276  0.69797  1.0000
  H   H3993     1.0  0.99003  0.87087  0.99057  1.0000
  H   H3994     1.0  0.99650  0.92212  0.97959  1.0000
  H   H3995     1.0  0.89531  0.93343  0.77074  1.0000
  H   H3996     1.0  0.76871  0.66039  0.67342  1.0000
  S   S510      1.0  0.86549  0.96363  0.67628  1.0000
  N   N126      1.0  0.86944  0.92338  0.74351  1.0000
  C   C2242     1.0  0.78014  0.50635  0.76445  1.0000
  C   C2243     1.0  0.99911  0.98985  0.98545  1.0000
  C   C2244     1.0  0.91029  0.91055  0.68678  1.0000
  C   C2245     1.0  0.97298  0.81148  0.71774  1.0000
  C   C2246     1.0  0.00537  0.93632  0.93834  1.0000
  H   H3997     1.0  0.84374  0.96421  0.75292  1.0000
  H   H3998     1.0  0.99193  0.80507  0.73854  1.0000
  C   C2247     1.0  0.00619  0.90619  0.98152  1.0000
  H   H3999     1.0  0.96722  0.80150  0.70405  1.0000
  H   H4000     1.0  0.78490  0.92949  0.97269  1.0000
  H   H4001     1.0  0.79702  0.51692  0.70821  1.0000
  C   C2248     1.0  0.88253  0.94237  0.67968  1.0000
  H   H4002     1.0  0.78362  0.62200  0.69152  1.0000
  H   H4003     1.0  0.82299  0.53974  0.69797  1.0000
  H   H4004     1.0  0.92101  0.95286  0.69127  1.0000
  H   H4005     1.0  0.99457  0.94806  0.78522  1.0000
  H   H4006     1.0  0.85119  0.92302  0.76759  1.0000
  H   H4007     1.0  0.78221  0.96552  0.96156  1.0000
  H   H4008     1.0  0.98299  0.96783  0.75222  1.0000
  C   C2249     1.0  0.00005  0.86568  0.74734  1.0000
  H   H4009     1.0  0.85954  0.91447  0.71313  1.0000
  H   H4010     1.0  0.89010  0.92083  0.72359  1.0000
  H   H4011     1.0  0.00968  0.98887  0.79489  1.0000
  H   H4012     1.0  0.91839  0.92990  0.73296  1.0000
  C   C2250     1.0  0.86662  0.95513  0.73737  1.0000
  C   C2251     1.0  0.88672  0.91739  0.74042  1.0000
  C   C2252     1.0  0.91038  0.94130  0.68744  1.0000
  H   H4013     1.0  0.99780  0.82450  0.69159  1.0000
  Fe  Fe254     1.0  0.97108  0.95819  0.66877  1.0000
  H   H4014     1.0  0.78291  0.86095  0.98044  1.0000
  H   H4015     1.0  0.98858  0.99306  0.97660  1.0000
  C   C2253     1.0  0.98103  0.74112  0.69740  1.0000
  H   H4016     1.0  0.79474  0.96632  0.99678  1.0000
  H   H4017     1.0  0.99924  0.89124  0.84114  1.0000
  H   H4018     1.0  0.98819  0.93182  0.74222  1.0000
  H   H4019     1.0  0.79590  0.58456  0.70457  1.0000
  C   C2254     1.0  0.89798  0.93610  0.75369  1.0000
  C   C2255     1.0  0.86705  0.88923  0.77637  1.0000
  C   C2256     1.0  0.77232  0.88691  0.90722  1.0000
  C   C2257     1.0  0.86623  0.87241  0.72470  1.0000
  H   H4020     1.0  0.87180  0.90015  0.67489  1.0000
  C   C2258     1.0  0.01261  0.89513  0.81158  1.0000
  N   N127      1.0  0.77549  0.56068  0.69451  1.0000
  H   H4021     1.0  0.85125  0.89679  0.80324  1.0000
  H   H4022     1.0  0.86538  0.86792  0.80695  1.0000
  H   H4023     1.0  0.86863  0.86013  0.73929  1.0000
  C   C2259     1.0  0.00949  0.95733  0.91966  1.0000
  H   H4024     1.0  0.00820  0.85755  0.83200  1.0000
  C   C2260     1.0  0.99661  0.98015  0.91661  1.0000
  H   H4025     1.0  0.86926  0.93689  0.77608  1.0000
  C   C2261     1.0  0.98661  0.79222  0.72574  1.0000
  H   H4026     1.0  0.99921  0.52332  0.98836  1.0000
  C   C2262     1.0  0.77228  0.86598  0.98925  1.0000
  H   H4027     1.0  0.89965  0.54337  0.67069  1.0000
  C   C2263     1.0  0.01463  0.92902  0.81276  1.0000
  H   H4028     1.0  0.79519  0.54303  0.72936  1.0000
  H   H4029     1.0  0.87245  0.97036  0.74834  1.0000
  C   C2264     1.0  0.94027  0.50648  0.69953  1.0000
  C   C2265     1.0  0.99184  0.76743  0.69146  1.0000
  H   H4030     1.0  0.95517  0.79466  0.73975  1.0000
  C   C2266     1.0  0.00985  0.88172  0.83342  1.0000
  S   S511      1.0  0.82255  0.98039  0.67920  1.0000
  C   C2267     1.0  0.88249  0.91166  0.67845  1.0000
  C   C2268     1.0  0.89632  0.89580  0.68225  1.0000
  N   N128      1.0  0.99890  0.78390  0.70948  1.0000
  H   H4031     1.0  0.77112  0.58589  0.72289  1.0000
  C   C2269     1.0  0.97539  0.72563  0.67764  1.0000
  H   H4032     1.0  0.78303  0.90025  0.90412  1.0000
  C   C2270     1.0  0.01080  0.76434  0.71978  1.0000
  C   C2271     1.0  0.89647  0.95703  0.68427  1.0000
  H   H4033     1.0  0.00084  0.89512  0.90831  1.0000
  H   H4034     1.0  0.00354  0.93844  0.81936  1.0000
  H   H4035     1.0  0.99413  0.92513  0.93496  1.0000
  C   C2272     1.0  0.91497  0.92672  0.74977  1.0000
  H   H4036     1.0  0.85269  0.86492  0.69652  1.0000
  H   H4037     1.0  0.96564  0.82673  0.74889  1.0000
  H   H4038     1.0  0.98798  0.86970  0.74347  1.0000
  C   C2273     1.0  0.00372  0.84897  0.76530  1.0000
  C   C2274     1.0  0.79980  0.53966  0.71312  1.0000
  S   S512      1.0  0.79588  0.92968  0.67128  1.0000
  C   C2275     1.0  0.81760  0.54256  0.71389  1.0000
  H   H4039     1.0  0.91663  0.90320  0.75404  1.0000
  H   H4040     1.0  0.00149  0.57661  0.99699  1.0000
  C   C2276     1.0  0.92935  0.53140  0.66730  1.0000
  H   H4041     1.0  0.84226  0.95137  0.72639  1.0000
  H   H4042     1.0  0.93943  0.52731  0.70855  1.0000
  C   C2277     1.0  0.77118  0.58374  0.67845  1.0000
  H   H4043     1.0  0.95112  0.83055  0.72893  1.0000
  C   C2278     1.0  0.77186  0.61623  0.68584  1.0000
  C   C2279     1.0  0.01205  0.87705  0.73440  1.0000
  H   H4044     1.0  0.77703  0.92470  0.93778  1.0000
  C   C2280     1.0  0.78187  0.96390  0.99543  1.0000
  C   C2281     1.0  0.85455  0.85454  0.71212  1.0000
  H   H4045     1.0  0.99437  0.84020  0.77523  1.0000
  H   H4046     1.0  0.79941  0.56146  0.68274  1.0000
  H   H4047     1.0  0.85906  0.87260  0.76974  1.0000
  H   H4048     1.0  0.89617  0.87199  0.68183  1.0000
  H   H4049     1.0  0.89636  0.98063  0.68591  1.0000
  C   C2282     1.0  0.86404  0.91956  0.76609  1.0000
  H   H4050     1.0  0.00124  0.75846  0.68095  1.0000
  H   H4051     1.0  0.82232  0.52529  0.72442  1.0000
  C   C2283     1.0  0.96049  0.81605  0.73496  1.0000
  Fe  Fe255     1.0  0.84076  0.94554  0.67397  1.0000
  H   H4052     1.0  0.84313  0.85278  0.72073  1.0000
  H   H4053     1.0  0.82091  0.56445  0.72010  1.0000
  H   H4054     1.0  0.99923  0.52688  0.91763  1.0000
  H   H4055     1.0  0.87154  0.90583  0.80783  1.0000
  H   H4056     1.0  0.98725  0.72463  0.70700  1.0000
  C   C2284     1.0  0.86358  0.89013  0.80004  1.0000
  H   H4057     1.0  0.99412  0.96441  0.72794  1.0000
  H   H4058     1.0  0.87729  0.87329  0.71527  1.0000
  C   C2285     1.0  0.00753  0.95601  0.75589  1.0000
  H   H4059     1.0  0.84774  0.90232  0.73485  1.0000
  C   C2286     1.0  0.84924  0.96518  0.73697  1.0000
  H   H4060     1.0  0.00397  0.91679  0.77400  1.0000
  H   H4061     1.0  0.01085  0.97948  0.75736  1.0000
  H   H4062     1.0  0.97049  0.74862  0.70633  1.0000
  H   H4063     1.0  0.97743  0.83357  0.71312  1.0000
  C   C2287     1.0  0.00724  0.51361  0.92738  1.0000
  C   C2288     1.0  0.77810  0.95028  0.97420  1.0000
  C   C2289     1.0  0.00573  0.94046  0.77762  1.0000
  H   H4064     1.0  0.85917  0.83199  0.70947  1.0000
  H   H4065     1.0  0.79282  0.51446  0.67141  1.0000
  H   H4066     1.0  0.00262  0.95062  0.95206  1.0000
  C   C2290     1.0  0.00623  0.50536  0.99416  1.0000
  H   H4067     1.0  0.87192  0.95971  0.72152  1.0000
  C   C2291     1.0  0.00637  0.81164  0.70083  1.0000
  H   H4068     1.0  0.78910  0.51607  0.77397  1.0000
  H   H4069     1.0  0.88957  0.89404  0.74369  1.0000
  H   H4070     1.0  0.96746  0.70717  0.68211  1.0000
  C   C2292     1.0  0.86009  0.90409  0.72902  1.0000
  H   H4071     1.0  0.87934  0.88196  0.77414  1.0000
  H   H4072     1.0  0.00970  0.82644  0.71379  1.0000
  H   H4073     1.0  0.98169  0.77225  0.73366  1.0000
  H   H4074     1.0  0.98500  0.78262  0.68140  1.0000
  C   C2293     1.0  0.77104  0.53087  0.68614  1.0000
  C   C2294     1.0  0.78360  0.99332  0.76165  1.0000
  H   H4075     1.0  0.00494  0.74491  0.72717  1.0000
  C   C2295     1.0  0.99224  0.95491  0.74393  1.0000
  H   H4076     1.0  0.00025  0.88246  0.95383  1.0000
  H   H4077     1.0  0.98546  0.71655  0.66841  1.0000
  H   H4078     1.0  0.00563  0.86218  0.92268  1.0000
  H   H4079     1.0  0.01287  0.78453  0.75110  1.0000
  H   H4080     1.0  0.00262  0.51340  0.94385  1.0000
  C   C2296     1.0  0.01053  0.88041  0.91289  1.0000
  H   H4081     1.0  0.77927  0.99128  0.66824  1.0000
  C   C2297     1.0  0.00037  0.88243  0.99687  1.0000
  H   H4082     1.0  0.00243  0.88912  0.80198  1.0000
  H   H4083     1.0  0.92761  0.55194  0.67659  1.0000
  H   H4084     1.0  0.00817  0.85448  0.88447  1.0000
  H   H4085     1.0  0.96891  0.74118  0.66748  1.0000
  H   H4086     1.0  0.99984  0.99474  0.90313  1.0000
  C   C2298     1.0  0.01101  0.89286  0.95994  1.0000
  H   H4087     1.0  0.91622  0.50608  0.69158  1.0000
  H   H4088     1.0  0.95210  0.50498  0.69203  1.0000
  H   H4089     1.0  0.76795  0.87894  0.89192  1.0000
  H   H4090     1.0  0.77525  0.86747  0.91702  1.0000
  H   H4091     1.0  0.77642  0.98599  0.99697  1.0000
  C   C2299     1.0  0.92764  0.50523  0.68294  1.0000
  H   H4092     1.0  0.01086  0.94498  0.90472  1.0000
  H   H4093     1.0  0.76925  0.95673  0.71985  1.0000
  H   H4094     1.0  0.76976  0.54739  0.72648  1.0000
  C   C2300     1.0  0.76939  0.96973  0.73402  1.0000
  H   H4095     1.0  0.99518  0.99401  0.93088  1.0000
  H   H4096     1.0  0.76650  0.96903  0.92866  1.0000
  C   C2301     1.0  0.76698  0.56539  0.71524  1.0000
  C   C2302     1.0  0.76825  0.63731  0.66777  1.0000
  Fe  Fe256     1.0  0.81614  0.89805  0.66627  1.0000
  C   C2303     1.0  0.78075  0.51994  0.66679  1.0000
  C   C2304     1.0  0.76658  0.99597  0.66712  1.0000
