data_image0
_chemical_formula_structural       FeS2FeSCFeSFeS3FeS2FeSCFeSFeSCSCH2CHC6H4C3H4CH2CH2CHCH2NCHC4HC3H2CH9CH6C2NHC2H4C2H2CH21CHC2NC7SC2HCH13CH8CHCH2SC3H7CH2CHCH2C2H8C3NCH2FeS2CFeSCHS2HC2H2C2H2CHCHNHCHCH3CH2CH2SC2HCH6C2H3FeSHCHCHC2H3SCH3CH2CHCHCH4C2H4C2HCHCHCH2CHCFeCH3C2H3FeS2FeS2FeSFeS3H2C7H2CSH2C5H7CHCH5CHCHCHNC9H19CHCHC2H14CSC3H2NH2CH4C2H3CH4FeHSHCSFeSHFeSHFeSFeS3C3H2NHCH2C6H9CH4CHSH2CSH2CHC3HCH3CHCHC3HFeH5CH3CFeHNC4HC2H2C3H7CH6CHC3HC3H3CH9C2H4CHSC2HCH3CH3C2H2SFeHSCH3CH2Fe2S2CHSHSFeSHFeSFeS3C3H2CH2C7H4C2H2NH6CH2NC12H17CH10CH2CH3SFe2CHCH3CHNC2H2CHCH3CHCH2C3H7C2SH2C3HCH2C2H3CH8CNHCH5CH3CH8C2H3CFeH2SH2C2HCHCH2NCH3CH2CHNH3CH4CH2CHSH2CH2CH4C4H3NH2C3HC2H2C3HCH6CSH5CH2C2H6CH3FeS2FeS2FeSFeS3H2CH2C4H5CHCH5C4H3CH3NC6HC3H7CH13CH3CHSC2H3CHC2HC2HC2H2CH2CH4CH2CH9NCHCH3C2HCH2C2H2C3H3SHCHCH5FeS2FeS2FeSFeSHC3H3C3H3C2H2C2H2CHSC4NHC7H3CH3CH9C2H3C2SCH3CH6C2NCHCH3C2NCHCH2C2H3CH3C2H3C2HCH3C2NH3CH10CH3C2HCH4NHCH6CSHCHFeS2FeS2FeSFeHS2FeS2FeS2FeSFeHS2HC3HSC2HC5HCH3C7H4CH11C2SHC2HCH2CHCH2CH2C2HCH3CH7CH4NC8HCH22NC5H4CH4NC2H11CH2CHCH3CHC3HCH2CH4CH3C2HCH2C2HCHCH2CH2CH3FeCSHC2H6C3H8CH2CH7NHC2HC2HCHCSCH2CH3CHCSH3NH5CH2CH2CH4CHCH3C2H4SCSHNCH2SHC2HCHFeS2FeS2Fe2CS2FeS2HCSH3CHCHCHC6H5CH3FeCSFeCSHCH4CH3CHC6HSH7NHSCH2NH8CHC2H2CH2CH3C6H2CH5C2H3FeC2HCH3CHCHS2HCHCH3FeS2FeS2FeSFeHS2FeCSH2SHCHC2HC2HCH2CHCHC6H4C3H2NC4H2C6HCH4CH12C2H8S2CH4C2H3CHCH2CH5FeCH6CHFeH5CHCHSCH2CHCH
_chemical_formula_sum              "Fe64 S128 C576 H1024 N32"
_cell_length_a       37.0034
_cell_length_b       36.9281
_cell_length_c       46.4092
_cell_angle_alpha    89.7928
_cell_angle_beta     89.96
_cell_angle_gamma    89.7878

_space_group_name_H-M_alt    "P 1"
_space_group_IT_number       1

loop_
  _space_group_symop_operation_xyz
  'x, y, z'

loop_
  _atom_site_type_symbol
  _atom_site_label
  _atom_site_symmetry_multiplicity
  _atom_site_fract_x
  _atom_site_fract_y
  _atom_site_fract_z
  _atom_site_occupancy
  Fe  Fe1       1.0  0.21125  0.43470  0.21735  1.0000
  S   S1        1.0  0.20312  0.38183  0.19522  1.0000
  S   S2        1.0  0.21100  0.48734  0.19228  1.0000
  Fe  Fe2       1.0  0.20928  0.40062  0.27763  1.0000
  S   S3        1.0  0.20042  0.34453  0.25922  1.0000
  C   C1        1.0  0.23024  0.45350  0.14145  1.0000
  Fe  Fe3       1.0  0.24358  0.35910  0.22662  1.0000
  S   S4        1.0  0.29583  0.32992  0.21273  1.0000
  Fe  Fe4       1.0  0.16066  0.37217  0.22925  1.0000
  S   S5        1.0  0.10497  0.35773  0.21178  1.0000
  S   S6        1.0  0.25454  0.41363  0.24698  1.0000
  S   S7        1.0  0.16684  0.42647  0.24966  1.0000
  Fe  Fe5       1.0  0.45410  0.16015  0.09687  1.0000
  S   S8        1.0  0.40778  0.12245  0.10586  1.0000
  S   S9        1.0  0.46446  0.18823  0.05374  1.0000
  Fe  Fe6       1.0  0.47668  0.16115  0.16091  1.0000
  S   S10       1.0  0.43193  0.12383  0.17416  1.0000
  C   C2        1.0  0.12944  0.44232  0.08003  1.0000
  Fe  Fe7       1.0  0.44675  0.09194  0.13450  1.0000
  S   S11       1.0  0.46624  0.03334  0.13589  1.0000
  Fe  Fe8       1.0  0.39724  0.15809  0.14476  1.0000
  S   S12       1.0  0.34064  0.17798  0.15697  1.0000
  C   C3        1.0  0.49240  0.13698  0.26674  1.0000
  S   S13       1.0  0.44125  0.19723  0.13399  1.0000
  C   C4        1.0  0.10400  0.47155  0.20492  1.0000
  H   H1        1.0  0.02992  0.36873  0.29923  1.0000
  H   H2        1.0  0.44172  0.03968  0.07193  1.0000
  C   C5        1.0  0.11768  0.45239  0.11098  1.0000
  H   H3        1.0  0.44547  0.27684  0.20049  1.0000
  C   C6        1.0  0.30694  0.28799  0.19605  1.0000
  C   C7        1.0  0.28114  0.26145  0.19008  1.0000
  C   C8        1.0  0.29188  0.22797  0.17810  1.0000
  C   C9        1.0  0.32846  0.22049  0.17215  1.0000
  C   C10       1.0  0.35422  0.24701  0.17812  1.0000
  C   C11       1.0  0.34346  0.28065  0.18967  1.0000
  H   H4        1.0  0.25299  0.26657  0.19497  1.0000
  H   H5        1.0  0.27170  0.20762  0.17363  1.0000
  H   H6        1.0  0.38243  0.24148  0.17397  1.0000
  H   H7        1.0  0.36364  0.30095  0.19425  1.0000
  C   C12       1.0  0.06398  0.36376  0.23110  1.0000
  C   C13       1.0  0.06344  0.36606  0.26115  1.0000
  C   C14       1.0  0.03103  0.36473  0.21599  1.0000
  H   H8        1.0  0.08860  0.36465  0.27292  1.0000
  H   H9        1.0  0.03112  0.36264  0.19275  1.0000
  H   H10       1.0  0.14049  0.46796  0.03896  1.0000
  H   H11       1.0  0.03921  0.45713  0.25282  1.0000
  C   C15       1.0  0.21564  0.48433  0.15453  1.0000
  H   H12       1.0  0.30408  0.34402  0.12746  1.0000
  H   H13       1.0  0.49102  0.26397  0.20978  1.0000
  C   C16       1.0  0.28266  0.32429  0.12180  1.0000
  H   H14       1.0  0.10229  0.48680  0.05775  1.0000
  H   H15       1.0  0.08111  0.49016  0.20017  1.0000
  C   C17       1.0  0.04137  0.42088  0.10957  1.0000
  H   H16       1.0  0.34125  0.13453  0.06722  1.0000
  C   C18       1.0  0.38322  0.30191  0.04056  1.0000
  H   H17       1.0  0.05028  0.43092  0.31705  1.0000
  H   H18       1.0  0.36789  0.30424  0.99514  1.0000
  N   N1        1.0  0.39475  0.21654  0.26590  1.0000
  C   C19       1.0  0.04249  0.48108  0.29577  1.0000
  H   H19       1.0  0.09417  0.44845  0.21817  1.0000
  C   C20       1.0  0.41196  0.24695  0.24905  1.0000
  C   C21       1.0  0.38674  0.18596  0.24533  1.0000
  C   C22       1.0  0.36192  0.15547  0.25697  1.0000
  C   C23       1.0  0.44993  0.23875  0.23632  1.0000
  H   H20       1.0  0.46963  0.14014  0.22419  1.0000
  C   C24       1.0  0.29598  0.25292  0.27516  1.0000
  C   C25       1.0  0.35824  0.12500  0.23496  1.0000
  C   C26       1.0  0.46398  0.27079  0.21873  1.0000
  H   H21       1.0  0.13218  0.48151  0.16543  1.0000
  H   H22       1.0  0.48834  0.21887  0.99995  1.0000
  C   C27       1.0  0.06869  0.45169  0.30777  1.0000
  H   H23       1.0  0.09580  0.47302  0.10971  1.0000
  H   H24       1.0  0.02418  0.38380  0.07574  1.0000
  H   H25       1.0  0.39452  0.25459  0.23052  1.0000
  H   H26       1.0  0.37444  0.19636  0.22500  1.0000
  H   H27       1.0  0.41230  0.17262  0.23840  1.0000
  H   H28       1.0  0.33432  0.16593  0.26138  1.0000
  H   H29       1.0  0.37290  0.14347  0.27708  1.0000
  H   H30       1.0  0.44896  0.21507  0.22172  1.0000
  H   H31       1.0  0.46995  0.23310  0.25357  1.0000
  C   C28       1.0  0.39279  0.30386  0.00852  1.0000
  H   H32       1.0  0.07093  0.45746  0.15428  1.0000
  H   H33       1.0  0.14412  0.45369  0.30440  1.0000
  H   H34       1.0  0.38495  0.11228  0.23064  1.0000
  H   H35       1.0  0.33978  0.10386  0.24345  1.0000
  H   H36       1.0  0.34685  0.13555  0.21441  1.0000
  H   H37       1.0  0.34883  0.20949  0.29438  1.0000
  C   C29       1.0  0.41978  0.20252  0.28908  1.0000
  C   C30       1.0  0.12997  0.47564  0.06049  1.0000
  N   N2        1.0  0.10657  0.42155  0.13044  1.0000
  H   H38       1.0  0.32132  0.15488  0.09866  1.0000
  C   C31       1.0  0.13861  0.39743  0.13737  1.0000
  C   C32       1.0  0.09290  0.43753  0.15839  1.0000
  H   H39       1.0  0.02280  0.48910  0.31271  1.0000
  H   H40       1.0  0.06819  0.37782  0.13355  1.0000
  H   H41       1.0  0.32516  0.22550  0.24177  1.0000
  H   H42       1.0  0.15735  0.43111  0.08046  1.0000
  C   C33       1.0  0.14684  0.36572  0.11643  1.0000
  C   C34       1.0  0.18336  0.34812  0.12307  1.0000
  H   H43       1.0  0.26572  0.31979  0.14126  1.0000
  H   H44       1.0  0.44581  0.25478  0.30001  1.0000
  C   C35       1.0  0.23440  0.45227  0.11133  1.0000
  H   H45       1.0  0.29996  0.16013  0.06383  1.0000
  H   H46       1.0  0.16355  0.41399  0.13952  1.0000
  H   H47       1.0  0.13479  0.38413  0.15873  1.0000
  H   H48       1.0  0.14777  0.49689  0.06951  1.0000
  H   H49       1.0  0.29686  0.50626  0.10821  1.0000
  H   H50       1.0  0.41357  0.27202  0.26221  1.0000
  H   H51       1.0  0.08466  0.38477  0.09834  1.0000
  H   H52       1.0  0.11116  0.42251  0.06984  1.0000
  H   H53       1.0  0.46657  0.29518  0.23250  1.0000
  H   H54       1.0  0.23915  0.43092  0.15454  1.0000
  H   H55       1.0  0.08262  0.43831  0.28928  1.0000
  H   H56       1.0  0.36716  0.32643  0.04570  1.0000
  H   H57       1.0  0.14388  0.43964  0.18315  1.0000
  H   H58       1.0  0.12588  0.34441  0.11880  1.0000
  H   H59       1.0  0.14723  0.37449  0.09366  1.0000
  H   H60       1.0  0.18898  0.32636  0.10722  1.0000
  H   H61       1.0  0.20539  0.36843  0.12174  1.0000
  H   H62       1.0  0.18308  0.33581  0.14494  1.0000
  H   H63       1.0  0.35406  0.19342  0.04617  1.0000
  H   H64       1.0  0.08085  0.41587  0.17217  1.0000
  H   H65       1.0  0.40914  0.30238  0.05257  1.0000
  C   C36       1.0  0.07607  0.39950  0.11794  1.0000
  H   H66       1.0  0.33488  0.31936  0.08439  1.0000
  C   C37       1.0  0.33125  0.24494  0.25923  1.0000
  C   C38       1.0  0.12113  0.45771  0.17705  1.0000
  N   N3        1.0  0.34818  0.26248  0.07791  1.0000
  C   C39       1.0  0.32149  0.29259  0.08395  1.0000
  C   C40       1.0  0.36250  0.26664  0.04758  1.0000
  C   C41       1.0  0.32757  0.22718  0.07925  1.0000
  C   C42       1.0  0.37893  0.26099  0.09939  1.0000
  C   C43       1.0  0.39132  0.29762  0.11255  1.0000
  C   C44       1.0  0.29946  0.28840  0.11225  1.0000
  C   C45       1.0  0.34850  0.19277  0.06967  1.0000
  S   S14       1.0  0.23124  0.47985  0.05645  1.0000
  C   C46       1.0  0.22410  0.48184  0.09408  1.0000
  C   C47       1.0  0.42765  0.29400  0.12792  1.0000
  H   H67       1.0  0.14108  0.46710  0.12029  1.0000
  C   C48       1.0  0.32630  0.15860  0.07524  1.0000
  H   H68       1.0  0.36708  0.25360  0.29448  1.0000
  H   H69       1.0  0.30153  0.29479  0.06603  1.0000
  H   H70       1.0  0.38210  0.24462  0.04253  1.0000
  H   H71       1.0  0.33992  0.26399  0.03181  1.0000
  H   H72       1.0  0.30266  0.22894  0.06579  1.0000
  H   H73       1.0  0.31819  0.22170  0.10168  1.0000
  H   H74       1.0  0.37185  0.24337  0.11807  1.0000
  H   H75       1.0  0.40291  0.24748  0.08952  1.0000
  H   H76       1.0  0.37128  0.30722  0.12864  1.0000
  H   H77       1.0  0.39413  0.31920  0.09617  1.0000
  H   H78       1.0  0.27715  0.26873  0.10905  1.0000
  H   H79       1.0  0.31662  0.27808  0.12998  1.0000
  H   H80       1.0  0.37452  0.19034  0.08140  1.0000
  C   C49       1.0  0.01335  0.39601  0.09584  1.0000
  H   H81       1.0  0.34037  0.27076  0.24942  1.0000
  H   H82       1.0  0.47038  0.12103  0.27533  1.0000
  H   H83       1.0  0.26538  0.33582  0.10446  1.0000
  H   H84       1.0  0.28476  0.22774  0.28472  1.0000
  H   H85       1.0  0.24618  0.42853  0.10140  1.0000
  H   H86       1.0  0.44890  0.28468  0.11271  1.0000
  H   H87       1.0  0.43575  0.32070  0.13671  1.0000
  H   H88       1.0  0.42566  0.27460  0.14613  1.0000
  C   C50       1.0  0.02090  0.46665  0.27023  1.0000
  H   H89       1.0  0.44354  0.18877  0.27936  1.0000
  C   C51       1.0  0.03021  0.36827  0.27596  1.0000
  H   H90       1.0  0.47633  0.01315  0.22130  1.0000
  H   H91       1.0  0.40629  0.18114  0.30208  1.0000
  S   S15       1.0  0.49369  0.12787  0.12297  1.0000
  C   C52       1.0  0.48747  0.16871  0.02390  1.0000
  C   C53       1.0  0.49194  0.14776  0.23768  1.0000
  C   C54       1.0  0.36077  0.23052  0.28003  1.0000
  H   H92       1.0  0.22730  0.48252  0.31715  1.0000
  H   H93       1.0  0.02841  0.43315  0.12877  1.0000
  H   H94       1.0  0.30041  0.27322  0.29241  1.0000
  H   H95       1.0  0.04757  0.44257  0.09374  1.0000
  H   H96       1.0  0.27586  0.26422  0.25976  1.0000
  H   H97       1.0  0.40983  0.28032  0.00222  1.0000
  H   H98       1.0  0.12453  0.48660  0.21752  1.0000
  C   C55       1.0  0.13059  0.47618  0.31595  1.0000
  H   H99       1.0  0.46135  0.04355  0.03648  1.0000
  H   H100      1.0  0.13261  0.39741  0.31489  1.0000
  C   C56       1.0  0.46164  0.02758  0.05681  1.0000
  H   H101      1.0  0.49100  0.11497  0.04172  1.0000
  C   C57       1.0  0.43367  0.23103  0.31093  1.0000
  H   H102      1.0  0.39043  0.01714  0.12196  1.0000
  H   H103      1.0  0.18128  0.49974  0.27614  1.0000
  C   C58       1.0  0.49649  0.19071  0.00014  1.0000
  C   C59       1.0  0.49802  0.13231  0.02375  1.0000
  H   H104      1.0  0.48880  0.02926  0.06689  1.0000
  H   H105      1.0  0.40818  0.32904  0.00406  1.0000
  H   H106      1.0  0.08725  0.38408  0.32295  1.0000
  H   H107      1.0  0.48697  0.20762  0.31772  1.0000
  H   H108      1.0  0.50377  0.24621  0.08630  1.0000
  H   H109      1.0  0.11362  0.49783  0.27420  1.0000
  H   H110      1.0  0.05654  0.50582  0.28856  1.0000
  H   H111      1.0  0.45263  0.19026  0.34177  1.0000
  C   C60       1.0  0.22108  0.47868  0.33972  1.0000
  C   C61       1.0  0.21266  0.44405  0.34996  1.0000
  C   C62       1.0  0.48251  0.08455  0.40563  1.0000
  N   N4        1.0  0.26908  0.33269  0.60651  1.0000
  C   C63       1.0  0.49818  0.08094  0.43597  1.0000
  H   H112      1.0  0.17665  0.27329  0.62857  1.0000
  H   H113      1.0  0.08405  0.42546  0.36444  1.0000
  Fe  Fe9       1.0  0.43890  0.16060  0.58991  1.0000
  S   S16       1.0  0.38124  0.15341  0.60540  1.0000
  S   S17       1.0  0.44655  0.16764  0.54109  1.0000
  C   C64       1.0  0.20734  0.44580  0.63516  1.0000
  Fe  Fe10      1.0  0.40510  0.11087  0.63501  1.0000
  S   S18       1.0  0.21575  0.46993  0.55009  1.0000
  C   C65       1.0  0.01203  0.40912  0.65229  1.0000
  H   H114      1.0  0.23693  0.28367  0.60625  1.0000
  S   S19       1.0  0.46138  0.11557  0.61752  1.0000
  S   S20       1.0  0.45028  0.20366  0.62289  1.0000
  H   H115      1.0  0.06779  0.42674  0.65199  1.0000
  C   C66       1.0  0.11259  0.39444  0.33248  1.0000
  C   C67       1.0  0.24624  0.30460  0.62176  1.0000
  H   H116      1.0  0.42030  0.04473  0.59318  1.0000
  H   H117      1.0  0.47083  0.23500  0.34703  1.0000
  C   C68       1.0  0.20517  0.46926  0.39850  1.0000
  C   C69       1.0  0.20638  0.44398  0.60491  1.0000
  H   H118      1.0  0.29502  0.36561  0.55468  1.0000
  H   H119      1.0  0.15038  0.48417  0.33257  1.0000
  C   C70       1.0  0.21651  0.47384  0.58802  1.0000
  H   H120      1.0  0.33443  0.43593  0.63922  1.0000
  C   C71       1.0  0.20518  0.43951  0.37951  1.0000
  H   H121      1.0  0.25119  0.38289  0.62601  1.0000
  N   N5        1.0  0.09621  0.46329  0.33001  1.0000
  H   H122      1.0  0.04871  0.41313  0.40482  1.0000
  C   C72       1.0  0.46271  0.21488  0.33055  1.0000
  H   H123      1.0  0.35444  0.28741  0.55845  1.0000
  C   C73       1.0  0.49655  0.04119  0.44684  1.0000
  H   H124      1.0  0.12888  0.45980  0.54795  1.0000
  H   H125      1.0  0.24172  0.32108  0.56629  1.0000
  H   H126      1.0  0.33890  0.24125  0.56017  1.0000
  C   C74       1.0  0.04639  0.41992  0.63616  1.0000
  H   H127      1.0  0.35768  0.26201  0.59174  1.0000
  H   H128      1.0  0.13065  0.43623  0.36131  1.0000
  C   C75       1.0  0.30302  0.28000  0.58086  1.0000
  H   H129      1.0  0.21774  0.38770  0.53752  1.0000
  H   H130      1.0  0.48394  0.11329  0.39852  1.0000
  S   S21       1.0  0.20982  0.40584  0.32685  1.0000
  C   C76       1.0  0.48279  0.16740  0.48918  1.0000
  C   C77       1.0  0.48560  0.06251  0.55206  1.0000
  H   H131      1.0  0.45379  0.07592  0.40530  1.0000
  C   C78       1.0  0.39508  0.01633  0.62825  1.0000
  H   H132      1.0  0.27614  0.35445  0.64944  1.0000
  H   H133      1.0  0.19963  0.42256  0.64784  1.0000
  H   H134      1.0  0.10584  0.35976  0.37029  1.0000
  H   H135      1.0  0.31538  0.39400  0.60038  1.0000
  H   H136      1.0  0.45691  0.17486  0.48006  1.0000
  H   H137      1.0  0.28759  0.28434  0.56068  1.0000
  C   C79       1.0  0.21902  0.47734  0.64884  1.0000
  C   C80       1.0  0.27482  0.36417  0.62679  1.0000
  H   H138      1.0  0.03150  0.37137  0.39007  1.0000
  H   H139      1.0  0.49828  0.06794  0.39011  1.0000
  H   H140      1.0  0.29023  0.25780  0.59339  1.0000
  Fe  Fe11      1.0  0.39406  0.19398  0.64032  1.0000
  S   S22       1.0  0.36549  0.24723  0.65356  1.0000
  H   H141      1.0  0.22223  0.35663  0.58595  1.0000
  C   C81       1.0  0.12614  0.36511  0.35318  1.0000
  H   H142      1.0  0.25886  0.40136  0.51998  1.0000
  C   C82       1.0  0.24603  0.37941  0.53279  1.0000
  H   H143      1.0  0.15200  0.37332  0.36332  1.0000
  C   C83       1.0  0.26715  0.37355  0.56073  1.0000
  C   C84       1.0  0.34084  0.26704  0.57233  1.0000
  H   H144      1.0  0.24591  0.35432  0.51966  1.0000
  H   H145      1.0  0.46735  0.03455  0.44869  1.0000
  H   H146      1.0  0.04130  0.44392  0.62224  1.0000
  S   S23       1.0  0.38305  0.05569  0.64784  1.0000
  C   C85       1.0  0.10581  0.43078  0.34850  1.0000
  H   H147      1.0  0.50041  0.08434  0.49465  1.0000
  H   H148      1.0  0.19754  0.41940  0.59454  1.0000
  H   H149      1.0  0.19558  0.33720  0.62420  1.0000
  C   C86       1.0  0.21280  0.50400  0.38814  1.0000
  H   H150      1.0  0.13438  0.48392  0.59716  1.0000
  H   H151      1.0  0.10197  0.49825  0.53711  1.0000
  C   C87       1.0  0.30484  0.31512  0.59908  1.0000
  H   H152      1.0  0.19910  0.41279  0.38777  1.0000
  C   C88       1.0  0.41327  0.01849  0.60188  1.0000
  H   H153      1.0  0.48123  0.09201  0.54919  1.0000
  C   C89       1.0  0.10937  0.48058  0.55565  1.0000
  H   H154      1.0  0.19915  0.46533  0.42111  1.0000
  H   H155      1.0  0.45911  0.04871  0.55036  1.0000
  H   H156      1.0  0.08482  0.46667  0.56378  1.0000
  H   H157      1.0  0.26271  0.28967  0.63805  1.0000
  C   C90       1.0  0.48580  0.16240  0.51920  1.0000
  C   C91       1.0  0.24874  0.34470  0.57993  1.0000
  H   H158      1.0  0.13103  0.33965  0.34109  1.0000
  H   H159      1.0  0.32285  0.33410  0.58746  1.0000
  H   H160      1.0  0.31962  0.30804  0.61927  1.0000
  H   H161      1.0  0.46759  0.05026  0.49809  1.0000
  C   C92       1.0  0.30992  0.38666  0.62306  1.0000
  C   C93       1.0  0.21211  0.31889  0.63782  1.0000
  H   H162      1.0  0.26762  0.39996  0.57210  1.0000
  C   C94       1.0  0.10469  0.50469  0.37486  1.0000
  H   H163      1.0  0.33343  0.37070  0.63107  1.0000
  C   C95       1.0  0.30810  0.42169  0.64047  1.0000
  H   H164      1.0  0.05641  0.39714  0.62275  1.0000
  C   C96       1.0  0.02385  0.39741  0.40038  1.0000
  H   H165      1.0  0.09180  0.48881  0.63645  1.0000
  H   H166      1.0  0.28691  0.43995  0.63160  1.0000
  C   C97       1.0  0.49733  0.05474  0.49849  1.0000
  H   H167      1.0  0.11316  0.48176  0.38883  1.0000
  C   C98       1.0  0.22759  0.50568  0.60162  1.0000
  Fe  Fe12      1.0  0.46782  0.15789  0.65184  1.0000
  C   C99       1.0  0.18790  0.28768  0.64750  1.0000
  H   H168      1.0  0.41127  0.24054  0.32493  1.0000
  H   H169      1.0  0.48199  0.09869  0.45029  1.0000
  H   H170      1.0  0.01262  0.42323  0.35971  1.0000
  C   C100      1.0  0.08037  0.49194  0.34953  1.0000
  C   C101      1.0  0.12683  0.50284  0.57954  1.0000
  H   H171      1.0  0.01056  0.39179  0.42140  1.0000
  H   H172      1.0  0.49665  0.05766  0.57399  1.0000
  H   H173      1.0  0.05460  0.48184  0.35900  1.0000
  Fe  Fe13      1.0  0.19953  0.43532  0.71558  1.0000
  S   S24       1.0  0.17057  0.38760  0.69705  1.0000
  S   S25       1.0  0.22174  0.48023  0.68685  1.0000
  Fe  Fe14      1.0  0.18493  0.41212  0.77849  1.0000
  S   S26       1.0  0.15532  0.36218  0.76340  1.0000
  S   S27       1.0  0.18286  0.41865  0.82778  1.0000
  Fe  Fe15      1.0  0.20056  0.35542  0.73087  1.0000
  S   S28       1.0  0.22315  0.29863  0.72111  1.0000
  Fe  Fe16      1.0  0.12846  0.39854  0.73100  1.0000
  S   S29       1.0  0.06962  0.40912  0.71917  1.0000
  S   S30       1.0  0.23203  0.40282  0.74804  1.0000
  S   S31       1.0  0.15564  0.44862  0.74750  1.0000
  H   H174      1.0  0.10565  0.46817  0.83987  1.0000
  H   H175      1.0  0.06248  0.38239  0.79559  1.0000
  C   C102      1.0  0.26342  0.28473  0.70308  1.0000
  C   C103      1.0  0.29020  0.30931  0.69489  1.0000
  C   C104      1.0  0.45426  0.05349  0.79564  1.0000
  C   C105      1.0  0.41971  0.05126  0.77767  1.0000
  C   C106      1.0  0.29972  0.23562  0.68189  1.0000
  C   C107      1.0  0.26857  0.24778  0.69669  1.0000
  C   C108      1.0  0.47882  0.14392  0.76031  1.0000
  H   H176      1.0  0.12815  0.46768  0.95113  1.0000
  H   H177      1.0  0.24810  0.22845  0.70299  1.0000
  C   C109      1.0  0.03051  0.38774  0.73265  1.0000
  S   S32       1.0  0.50027  0.15870  0.81550  1.0000
  H   H178      1.0  0.44136  0.22733  0.83125  1.0000
  H   H179      1.0  0.40918  0.07900  0.77348  1.0000
  C   C110      1.0  0.45580  0.25786  0.72264  1.0000
  C   C111      1.0  0.19157  0.47832  0.90139  1.0000
  C   C112      1.0  0.18512  0.45026  0.88146  1.0000
  C   C113      1.0  0.19240  0.45493  0.85186  1.0000
  C   C114      1.0  0.33365  0.31724  0.76115  1.0000
  H   H180      1.0  0.18610  0.47417  0.92404  1.0000
  H   H181      1.0  0.17452  0.42467  0.88902  1.0000
  H   H182      1.0  0.35030  0.32967  0.77835  1.0000
  H   H183      1.0  0.07194  0.38495  0.83378  1.0000
  H   H184      1.0  0.08407  0.47470  0.96718  1.0000
  H   H185      1.0  0.28692  0.33769  0.70004  1.0000
  H   H186      1.0  0.05634  0.33834  0.74647  1.0000
  C   C115      1.0  0.48258  0.14382  0.73017  1.0000
  H   H187      1.0  0.08876  0.41904  0.80941  1.0000
  C   C116      1.0  0.08620  0.48319  0.92059  1.0000
  H   H188      1.0  0.20332  0.26814  0.66102  1.0000
  H   H189      1.0  0.45471  0.13293  0.77009  1.0000
  H   H190      1.0  0.44650  0.28594  0.72666  1.0000
  H   H191      1.0  0.47165  0.05697  0.69343  1.0000
  H   H192      1.0  0.09963  0.46925  0.68758  1.0000
  C   C117      1.0  0.32626  0.26032  0.67336  1.0000
  H   H193      1.0  0.39947  0.21445  0.84829  1.0000
  C   C118      1.0  0.12007  0.48626  0.67658  1.0000
  H   H194      1.0  0.34179  0.31655  0.67387  1.0000
  C   C119      1.0  0.20631  0.48813  0.84246  1.0000
  H   H195      1.0  0.45696  0.26690  0.67615  1.0000
  N   N6        1.0  0.39741  0.23343  0.74717  1.0000
  C   C120      1.0  0.36822  0.20564  0.74197  1.0000
  C   C121      1.0  0.38183  0.27148  0.74645  1.0000
  C   C122      1.0  0.42414  0.23032  0.72262  1.0000
  C   C123      1.0  0.41747  0.22654  0.77491  1.0000
  C   C124      1.0  0.39441  0.22700  0.80270  1.0000
  C   C125      1.0  0.37947  0.16534  0.74562  1.0000
  C   C126      1.0  0.34283  0.27703  0.75807  1.0000
  C   C127      1.0  0.41580  0.21206  0.82830  1.0000
  C   C128      1.0  0.34910  0.14010  0.73615  1.0000
  H   H196      1.0  0.35677  0.20945  0.71993  1.0000
  H   H197      1.0  0.34502  0.20919  0.75678  1.0000
  H   H198      1.0  0.39981  0.29040  0.75832  1.0000
  H   H199      1.0  0.38088  0.28194  0.72384  1.0000
  H   H200      1.0  0.40978  0.23285  0.70164  1.0000
  H   H201      1.0  0.43716  0.20327  0.72220  1.0000
  H   H202      1.0  0.43241  0.20040  0.77379  1.0000
  H   H203      1.0  0.43886  0.24722  0.77812  1.0000
  H   H204      1.0  0.36964  0.21047  0.80058  1.0000
  H   H205      1.0  0.38666  0.25531  0.80789  1.0000
  H   H206      1.0  0.40357  0.15840  0.73277  1.0000
  H   H207      1.0  0.38561  0.15924  0.76855  1.0000
  H   H208      1.0  0.32315  0.26514  0.74274  1.0000
  H   H209      1.0  0.33863  0.26405  0.77931  1.0000
  H   H210      1.0  0.44715  0.06733  0.81601  1.0000
  H   H211      1.0  0.30465  0.32036  0.76697  1.0000
  H   H212      1.0  0.34260  0.14454  0.71301  1.0000
  H   H213      1.0  0.35778  0.11147  0.73892  1.0000
  H   H214      1.0  0.32441  0.14476  0.74926  1.0000
  C   C129      1.0  0.06552  0.40102  0.81415  1.0000
  H   H215      1.0  0.10192  0.47160  0.90241  1.0000
  C   C130      1.0  0.47545  0.25794  0.69368  1.0000
  H   H216      1.0  0.09326  0.43451  0.94636  1.0000
  C   C131      1.0  0.32136  0.29718  0.68015  1.0000
  C   C132      1.0  0.03114  0.42351  0.81858  1.0000
  H   H217      1.0  0.47375  0.07068  0.78367  1.0000
  H   H218      1.0  0.48272  0.05396  0.85158  1.0000
  H   H219      1.0  0.16516  0.29844  0.66061  1.0000
  H   H220      1.0  0.47580  0.25033  0.73950  1.0000
  H   H221      1.0  0.33842  0.33188  0.74056  1.0000
  H   H222      1.0  0.03519  0.44073  0.83781  1.0000
  H   H223      1.0  0.46183  0.13203  0.71689  1.0000
  H   H224      1.0  0.42240  0.18300  0.82492  1.0000
  H   H225      1.0  0.49877  0.27674  0.69449  1.0000
  H   H226      1.0  0.42501  0.03812  0.75661  1.0000
  H   H227      1.0  0.14122  0.46814  0.66758  1.0000
  H   H228      1.0  0.30296  0.20721  0.67683  1.0000
  H   H229      1.0  0.02818  0.44112  0.79926  1.0000
  H   H230      1.0  0.48575  0.23047  0.68859  1.0000
  C   C133      1.0  0.48696  0.03445  0.70380  1.0000
  S   S33       1.0  0.41293  0.15077  0.67114  1.0000
  C   C134      1.0  0.03096  0.35278  0.74435  1.0000
  C   C135      1.0  0.09866  0.46398  0.94806  1.0000
  C   C136      1.0  0.48913  0.02450  0.85082  1.0000
  H   H231      1.0  0.49567  0.06154  0.90326  1.0000
  H   H232      1.0  0.05749  0.47642  0.91727  1.0000
  N   N7        1.0  0.50281  0.01392  0.82121  1.0000
  H   H233      1.0  0.21212  0.49216  0.81983  1.0000
  H   H234      1.0  0.30198  0.41589  0.66348  1.0000
  C   C137      1.0  0.47085  0.01536  0.80097  1.0000
  H   H235      1.0  0.47632  0.03054  0.72591  1.0000
  H   H236      1.0  0.01935  0.38634  0.66681  1.0000
  H   H237      1.0  0.46343  0.01015  0.85586  1.0000
  H   H238      1.0  0.13252  0.50428  0.69290  1.0000
  C   C138      1.0  0.49983  0.03177  0.90472  1.0000
  C   C139      1.0  0.11054  0.49573  0.83111  1.0000
  H   H239      1.0  0.47378  0.01849  0.91005  1.0000
  H   H240      1.0  0.39863  0.03574  0.78940  1.0000
  H   H241      1.0  0.13641  0.49515  0.81899  1.0000
  C   C140      1.0  0.50616  0.15813  0.77782  1.0000
  H   H242      1.0  0.08868  0.50322  0.81581  1.0000
  H   H243      1.0  0.06183  0.50271  0.87098  1.0000
  H   H244      1.0  0.21995  0.33403  0.65747  1.0000
  H   H245      1.0  0.45511  0.78521  0.27628  1.0000
  Fe  Fe17      1.0  0.20868  0.60495  0.01510  1.0000
  H   H246      1.0  0.31150  0.53259  0.07742  1.0000
  S   S34       1.0  0.22935  0.66035  0.02970  1.0000
  H   H247      1.0  0.49583  0.88754  0.99863  1.0000
  C   C141      1.0  0.45597  0.66229  0.03683  1.0000
  S   S35       1.0  0.17588  0.56953  0.04479  1.0000
  Fe  Fe18      1.0  0.46727  0.77901  0.14448  1.0000
  S   S36       1.0  0.40622  0.78218  0.14385  1.0000
  H   H248      1.0  0.42241  0.92504  0.04447  1.0000
  Fe  Fe19      1.0  0.47243  0.79277  0.07895  1.0000
  S   S37       1.0  0.41241  0.79718  0.07338  1.0000
  H   H249      1.0  0.38973  0.86465  0.21323  1.0000
  Fe  Fe20      1.0  0.41418  0.83031  0.11407  1.0000
  S   S38       1.0  0.38418  0.88419  0.11528  1.0000
  Fe  Fe21      1.0  0.40909  0.74879  0.10296  1.0000
  S   S39       1.0  0.37894  0.69594  0.09264  1.0000
  S   S40       1.0  0.47421  0.82894  0.11743  1.0000
  S   S41       1.0  0.46992  0.74234  0.10574  1.0000
  C   C142      1.0  0.38784  0.95861  0.11912  1.0000
  C   C143      1.0  0.40694  0.92570  0.12127  1.0000
  C   C144      1.0  0.44368  0.92652  0.12816  1.0000
  H   H250      1.0  0.35936  0.95829  0.11388  1.0000
  H   H251      1.0  0.45864  0.90158  0.12994  1.0000
  N   N8        1.0  0.47667  0.92987  0.02719  1.0000
  H   H252      1.0  0.36396  0.74968  0.03633  1.0000
  C   C145      1.0  0.47700  0.97075  0.02823  1.0000
  H   H253      1.0  0.47642  0.88994  0.17912  1.0000
  H   H254      1.0  0.00818  0.57678  0.08144  1.0000
  C   C146      1.0  0.33681  0.68689  0.07559  1.0000
  C   C147      1.0  0.31008  0.71337  0.07194  1.0000
  C   C148      1.0  0.27734  0.70474  0.05794  1.0000
  C   C149      1.0  0.27095  0.66966  0.04733  1.0000
  C   C150      1.0  0.29768  0.64319  0.05100  1.0000
  C   C151      1.0  0.33022  0.65169  0.06524  1.0000
  H   H255      1.0  0.31458  0.74050  0.07988  1.0000
  H   H256      1.0  0.25681  0.72543  0.05528  1.0000
  H   H257      1.0  0.29324  0.61614  0.04286  1.0000
  H   H258      1.0  0.35068  0.63094  0.06793  1.0000
  H   H259      1.0  0.21120  0.67964  0.09187  1.0000
  H   H260      1.0  0.34447  0.57430  0.11138  1.0000
  H   H261      1.0  0.50261  0.88472  0.04866  1.0000
  H   H262      1.0  0.37032  0.65265  0.18542  1.0000
  H   H263      1.0  0.16105  0.54303  0.26823  1.0000
  C   C152      1.0  0.45180  0.98808  0.05114  1.0000
  H   H264      1.0  0.44706  0.86034  0.03506  1.0000
  H   H265      1.0  0.06270  0.61466  0.99097  1.0000
  H   H266      1.0  0.18694  0.67100  0.12505  1.0000
  H   H267      1.0  0.38229  0.87226  0.04514  1.0000
  C   C153      1.0  0.40083  0.69149  0.01373  1.0000
  H   H268      1.0  0.31813  0.79449  0.99390  1.0000
  S   S42       1.0  0.24484  0.56036  0.99915  1.0000
  H   H269      1.0  0.32769  0.70634  0.01109  1.0000
  H   H270      1.0  0.23675  0.58559  0.16123  1.0000
  C   C154      1.0  0.46114  0.95971  0.13289  1.0000
  S   S43       1.0  0.08074  0.54163  0.01229  1.0000
  H   H271      1.0  0.32733  0.54868  0.14124  1.0000
  H   H272      1.0  0.30722  0.55307  0.31056  1.0000
  C   C155      1.0  0.28351  0.56803  0.18398  1.0000
  H   H273      1.0  0.46764  0.68910  0.04210  1.0000
  C   C156      1.0  0.41441  0.86540  0.19963  1.0000
  C   C157      1.0  0.47841  0.78016  0.23376  1.0000
  C   C158      1.0  0.01057  0.55389  0.09690  1.0000
  H   H274      1.0  0.27871  0.53912  0.22463  1.0000
  C   C159      1.0  0.48225  0.87569  0.19978  1.0000
  H   H275      1.0  0.41014  0.88560  0.18213  1.0000
  H   H276      1.0  0.42412  0.93302  0.00659  1.0000
  H   H277      1.0  0.45264  0.78096  0.22278  1.0000
  C   C160      1.0  0.44213  0.99260  0.13070  1.0000
  H   H278      1.0  0.38398  0.68075  0.03154  1.0000
  C   C161      1.0  0.34619  0.72230  0.99705  1.0000
  H   H279      1.0  0.19349  0.53756  0.14725  1.0000
  C   C162      1.0  0.39154  0.86745  0.02266  1.0000
  C   C163      1.0  0.40535  0.99198  0.12376  1.0000
  C   C164      1.0  0.49428  0.76051  0.00307  1.0000
  H   H280      1.0  0.42334  0.98755  0.04351  1.0000
  Fe  Fe22      1.0  0.13944  0.55875  0.00699  1.0000
  H   H281      1.0  0.43958  0.65287  0.05548  1.0000
  H   H282      1.0  0.35416  0.69870  0.18738  1.0000
  H   H283      1.0  0.17371  0.64877  0.09214  1.0000
  H   H284      1.0  0.37063  0.68126  0.15371  1.0000
  H   H285      1.0  0.44928  0.85525  0.23564  1.0000
  C   C165      1.0  0.20919  0.51249  0.10722  1.0000
  H   H286      1.0  0.41845  0.83824  0.18996  1.0000
  H   H287      1.0  0.47149  0.90804  0.07063  1.0000
  H   H288      1.0  0.44135  0.90217  0.22799  1.0000
  C   C166      1.0  0.05089  0.54585  0.10039  1.0000
  Fe  Fe23      1.0  0.21006  0.52459  0.02725  1.0000
  H   H289      1.0  0.47852  0.64284  0.03345  1.0000
  N   N9        1.0  0.28173  0.61133  0.13954  1.0000
  C   C167      1.0  0.31786  0.62843  0.14598  1.0000
  C   C168      1.0  0.28614  0.58135  0.11766  1.0000
  C   C169      1.0  0.25766  0.64034  0.12659  1.0000
  C   C170      1.0  0.26338  0.59759  0.16650  1.0000
  H   H290      1.0  0.31225  0.57474  0.18761  1.0000
  C   C171      1.0  0.31717  0.66181  0.16621  1.0000
  C   C172      1.0  0.22257  0.62701  0.11152  1.0000
  H   H291      1.0  0.49261  0.89595  0.25637  1.0000
  H   H292      1.0  0.48644  0.84675  0.19385  1.0000
  C   C173      1.0  0.31816  0.52470  0.09994  1.0000
  C   C174      1.0  0.35543  0.67422  0.17357  1.0000
  C   C175      1.0  0.19713  0.65863  0.10483  1.0000
  H   H293      1.0  0.33089  0.63727  0.12548  1.0000
  H   H294      1.0  0.33704  0.60863  0.15546  1.0000
  H   H295      1.0  0.26249  0.56288  0.11849  1.0000
  H   H296      1.0  0.28633  0.59274  0.09542  1.0000
  H   H297      1.0  0.27283  0.65635  0.11022  1.0000
  H   H298      1.0  0.24935  0.66021  0.14336  1.0000
  H   H299      1.0  0.25668  0.62039  0.18116  1.0000
  C   C176      1.0  0.16427  0.52185  0.28509  1.0000
  H   H300      1.0  0.27053  0.58722  0.22719  1.0000
  H   H301      1.0  0.05518  0.52414  0.11665  1.0000
  H   H302      1.0  0.30318  0.68497  0.15563  1.0000
  H   H303      1.0  0.30341  0.65558  0.18683  1.0000
  H   H304      1.0  0.20745  0.60734  0.12490  1.0000
  H   H305      1.0  0.22916  0.61369  0.09073  1.0000
  C   C177      1.0  0.43146  0.87704  0.01946  1.0000
  H   H306      1.0  0.20151  0.53556  0.09434  1.0000
  C   C178      1.0  0.44703  0.87562  0.21803  1.0000
  C   C179      1.0  0.47991  0.78260  0.26410  1.0000
  C   C180      1.0  0.48963  0.95591  0.21877  1.0000
  H   H307      1.0  0.11184  0.53073  0.30315  1.0000
  C   C181      1.0  0.04114  0.56123  0.99771  1.0000
  C   C182      1.0  0.43772  0.91808  0.02451  1.0000
  C   C183      1.0  0.26625  0.56286  0.21366  1.0000
  H   H308      1.0  0.30021  0.76975  0.02444  1.0000
  H   H309      1.0  0.50464  0.98123  0.03186  1.0000
  H   H310      1.0  0.06504  0.57061  0.10779  1.0000
  C   C184      1.0  0.32113  0.55809  0.11916  1.0000
  H   H311      1.0  0.46882  0.98224  0.00694  1.0000
  H   H312      1.0  0.01175  0.51124  0.00173  1.0000
  H   H313      1.0  0.48565  0.95219  0.24226  1.0000
  H   H314      1.0  0.48963  0.95998  0.13803  1.0000
  H   H315      1.0  0.46390  0.95066  0.20725  1.0000
  H   H316      1.0  0.28166  0.54175  0.17247  1.0000
  H   H317      1.0  0.48162  0.74472  0.01987  1.0000
  H   H318      1.0  0.23678  0.55787  0.21164  1.0000
  H   H319      1.0  0.45308  0.97297  0.07177  1.0000
  C   C185      1.0  0.49884  0.99574  0.21356  1.0000
  C   C186      1.0  0.32452  0.78342  0.01560  1.0000
  H   H320      1.0  0.43962  0.86932  0.99728  1.0000
  H   H321      1.0  0.50270  0.00114  0.19018  1.0000
  H   H322      1.0  0.38777  0.83839  0.01759  1.0000
  H   H323      1.0  0.33142  0.80624  0.03009  1.0000
  C   C187      1.0  0.43263  0.66446  0.00966  1.0000
  H   H324      1.0  0.41300  0.71697  0.02197  1.0000
  S   S44       1.0  0.17198  0.51139  0.99111  1.0000
  C   C188      1.0  0.35635  0.75701  0.01391  1.0000
  C   C189      1.0  0.01019  0.53956  0.99581  1.0000
  H   H325      1.0  0.06296  0.53754  0.07947  1.0000
  C   C190      1.0  0.49265  0.91239  0.05385  1.0000
  H   H326      1.0  0.42244  0.63669  0.00571  1.0000
  H   H327      1.0  0.34424  0.50972  0.09989  1.0000
  H   H328      1.0  0.17830  0.53400  0.30385  1.0000
  C   C191      1.0  0.20501  0.51374  0.13730  1.0000
  H   H329      1.0  0.37473  0.88377  0.00759  1.0000
  H   H330      1.0  0.35052  0.64828  0.99585  1.0000
  H   H331      1.0  0.37961  0.77111  0.00384  1.0000
  C   C192      1.0  0.49623  0.91756  0.00032  1.0000
  C   C193      1.0  0.12715  0.50762  0.29404  1.0000
  H   H332      1.0  0.45010  0.67265  0.99136  1.0000
  H   H333      1.0  0.47750  0.96665  0.63262  1.0000
  S   S45       1.0  0.10115  0.59927  0.52322  1.0000
  Fe  Fe24      1.0  0.20398  0.54746  0.45964  1.0000
  H   H334      1.0  0.06029  0.51895  0.40378  1.0000
  S   S46       1.0  0.19249  0.60448  0.47475  1.0000
  C   C194      1.0  0.14629  0.57876  0.60164  1.0000
  H   H335      1.0  0.02699  0.61500  0.53770  1.0000
  H   H336      1.0  0.44484  0.68271  0.49633  1.0000
  H   H337      1.0  0.03077  0.65193  0.59720  1.0000
  C   C195      1.0  0.08462  0.53165  0.39408  1.0000
  H   H338      1.0  0.05698  0.59364  0.58306  1.0000
  H   H339      1.0  0.35434  0.59630  0.63544  1.0000
  Fe  Fe25      1.0  0.15584  0.57863  0.50758  1.0000
  Fe  Fe26      1.0  0.23781  0.59595  0.50656  1.0000
  S   S47       1.0  0.25050  0.53995  0.49019  1.0000
  S   S48       1.0  0.28845  0.63171  0.50901  1.0000
  C   C196      1.0  0.49359  0.94170  0.62946  1.0000
  H   H340      1.0  0.09380  0.54925  0.57088  1.0000
  S   S49       1.0  0.20029  0.57512  0.54089  1.0000
  H   H341      1.0  0.31594  0.59128  0.45518  1.0000
  S   S50       1.0  0.39059  0.83373  0.63264  1.0000
  Fe  Fe27      1.0  0.46782  0.78711  0.59130  1.0000
  S   S51       1.0  0.41848  0.80862  0.56903  1.0000
  H   H342      1.0  0.06157  0.56501  0.63099  1.0000
  Fe  Fe28      1.0  0.42540  0.85716  0.59774  1.0000
  S   S52       1.0  0.42363  0.91328  0.57745  1.0000
  Fe  Fe29      1.0  0.38781  0.78315  0.60540  1.0000
  S   S53       1.0  0.33409  0.75314  0.59997  1.0000
  S   S54       1.0  0.47752  0.83743  0.61724  1.0000
  S   S55       1.0  0.43694  0.75836  0.62641  1.0000
  C   C197      1.0  0.42150  0.98671  0.58644  1.0000
  C   C198      1.0  0.41224  0.95249  0.59745  1.0000
  C   C199      1.0  0.39447  0.95027  0.62402  1.0000
  H   H343      1.0  0.16967  0.56060  0.59730  1.0000
  H   H344      1.0  0.07638  0.55601  0.38156  1.0000
  C   C200      1.0  0.29668  0.59117  0.60022  1.0000
  H   H345      1.0  0.20261  0.65099  0.62050  1.0000
  H   H346      1.0  0.43515  0.98862  0.56589  1.0000
  C   C201      1.0  0.02589  0.55458  0.46981  1.0000
  C   C202      1.0  0.32139  0.72071  0.57357  1.0000
  C   C203      1.0  0.34560  0.70828  0.55264  1.0000
  C   C204      1.0  0.33499  0.68119  0.53303  1.0000
  C   C205      1.0  0.30012  0.66604  0.53416  1.0000
  C   C206      1.0  0.27586  0.67857  0.55503  1.0000
  C   C207      1.0  0.28644  0.70580  0.57454  1.0000
  H   H347      1.0  0.37258  0.71930  0.55189  1.0000
  H   H348      1.0  0.35403  0.67166  0.51704  1.0000
  H   H349      1.0  0.24892  0.66734  0.55611  1.0000
  H   H350      1.0  0.26748  0.71522  0.59064  1.0000
  C   C208      1.0  0.05979  0.58589  0.50703  1.0000
  C   C209      1.0  0.05914  0.56401  0.48250  1.0000
  H   H351      1.0  0.08424  0.55480  0.47306  1.0000
  H   H352      1.0  0.18375  0.64128  0.58559  1.0000
  N   N10       1.0  0.31875  0.59080  0.40823  1.0000
  H   H353      1.0  0.40436  0.66705  0.40153  1.0000
  H   H354      1.0  0.33152  0.63625  0.59260  1.0000
  H   H355      1.0  0.13898  0.59069  0.58034  1.0000
  H   H356      1.0  0.22663  0.53528  0.35043  1.0000
  H   H357      1.0  0.23176  0.67507  0.44408  1.0000
  H   H358      1.0  0.02571  0.53810  0.45062  1.0000
  C   C210      1.0  0.16098  0.60960  0.62098  1.0000
  H   H359      1.0  0.45621  0.69587  0.53263  1.0000
  H   H360      1.0  0.23577  0.52873  0.58880  1.0000
  N   N11       1.0  0.41729  0.78594  0.46550  1.0000
  C   C211      1.0  0.41077  0.81103  0.49062  1.0000
  C   C212      1.0  0.44184  0.75510  0.47460  1.0000
  C   C213      1.0  0.43627  0.80746  0.44218  1.0000
  C   C214      1.0  0.38230  0.77200  0.45306  1.0000
  C   C215      1.0  0.35852  0.74839  0.47311  1.0000
  C   C216      1.0  0.38942  0.84635  0.48406  1.0000
  C   C217      1.0  0.45448  0.78521  0.41767  1.0000
  C   C218      1.0  0.43725  0.74004  0.50569  1.0000
  C   C219      1.0  0.45740  0.70419  0.50964  1.0000
  C   C220      1.0  0.32170  0.74076  0.45954  1.0000
  C   C221      1.0  0.38432  0.86878  0.51138  1.0000
  C   C222      1.0  0.46543  0.80958  0.39246  1.0000
  H   H361      1.0  0.43719  0.81921  0.50005  1.0000
  H   H362      1.0  0.39620  0.79715  0.50832  1.0000
  H   H363      1.0  0.43967  0.73227  0.45909  1.0000
  H   H364      1.0  0.47059  0.76393  0.47379  1.0000
  H   H365      1.0  0.45797  0.82457  0.45172  1.0000
  H   H366      1.0  0.41709  0.82672  0.43171  1.0000
  H   H367      1.0  0.36552  0.79483  0.44481  1.0000
  H   H368      1.0  0.38769  0.75509  0.43380  1.0000
  H   H369      1.0  0.35338  0.76160  0.49413  1.0000
  H   H370      1.0  0.37175  0.72173  0.47669  1.0000
  H   H371      1.0  0.40416  0.86362  0.46840  1.0000
  H   H372      1.0  0.36219  0.84027  0.47541  1.0000
  H   H373      1.0  0.43643  0.76399  0.40910  1.0000
  H   H374      1.0  0.47947  0.77180  0.42571  1.0000
  H   H375      1.0  0.44846  0.75963  0.52135  1.0000
  H   H376      1.0  0.40883  0.73562  0.51175  1.0000
  H   H377      1.0  0.39231  0.61726  0.60107  1.0000
  C   C223      1.0  0.47776  0.93721  0.49413  1.0000
  H   H378      1.0  0.47971  0.79325  0.37592  1.0000
  H   H379      1.0  0.30606  0.72232  0.47383  1.0000
  H   H380      1.0  0.30608  0.76631  0.45689  1.0000
  H   H381      1.0  0.32491  0.72757  0.43823  1.0000
  H   H382      1.0  0.37008  0.89451  0.50616  1.0000
  H   H383      1.0  0.36794  0.85377  0.52752  1.0000
  H   H384      1.0  0.41092  0.87554  0.52102  1.0000
  H   H385      1.0  0.48626  0.70711  0.50353  1.0000
  H   H386      1.0  0.07498  0.52010  0.59698  1.0000
  H   H387      1.0  0.29095  0.63572  0.38751  1.0000
  C   C224      1.0  0.19253  0.62903  0.60636  1.0000
  H   H388      1.0  0.29226  0.64618  0.61415  1.0000
  H   H389      1.0  0.29263  0.55530  0.43869  1.0000
  C   C225      1.0  0.08506  0.58147  0.62383  1.0000
  H   H390      1.0  0.37680  0.59315  0.40270  1.0000
  H   H391      1.0  0.42636  0.62685  0.62768  1.0000
  H   H392      1.0  0.36646  0.68098  0.60919  1.0000
  S   S56       1.0  0.21242  0.54271  0.41080  1.0000
  Fe  Fe30      1.0  0.44256  0.81080  0.65078  1.0000
  Fe  Fe31      1.0  0.20954  0.52012  0.52220  1.0000
  C   C226      1.0  0.12907  0.53530  0.63899  1.0000
  H   H393      1.0  0.29280  0.64911  0.44378  1.0000
  C   C227      1.0  0.47622  0.97813  0.48928  1.0000
  H   H394      1.0  0.44127  0.82213  0.38228  1.0000
  H   H395      1.0  0.31660  0.69215  0.63821  1.0000
  H   H396      1.0  0.15393  0.52005  0.63300  1.0000
  C   C228      1.0  0.40004  0.65559  0.42344  1.0000
  H   H397      1.0  0.21510  0.60981  0.60226  1.0000
  N   N12       1.0  0.11526  0.55711  0.61372  1.0000
  C   C229      1.0  0.31774  0.57180  0.43711  1.0000
  C   C230      1.0  0.27151  0.63474  0.43177  1.0000
  H   H398      1.0  0.41323  0.66913  0.57138  1.0000
  H   H399      1.0  0.33121  0.59528  0.34723  1.0000
  C   C231      1.0  0.31090  0.57494  0.35387  1.0000
  H   H400      1.0  0.48397  0.83126  0.39977  1.0000
  C   C232      1.0  0.31426  0.62625  0.61043  1.0000
  H   H401      1.0  0.26243  0.59899  0.39692  1.0000
  H   H402      1.0  0.45057  0.92719  0.50034  1.0000
  H   H403      1.0  0.48643  0.92308  0.47416  1.0000
  C   C233      1.0  0.38570  0.98211  0.63920  1.0000
  H   H404      1.0  0.13986  0.63023  0.62539  1.0000
  C   C234      1.0  0.28596  0.61506  0.40459  1.0000
  H   H405      1.0  0.35294  0.62616  0.38288  1.0000
  H   H406      1.0  0.17101  0.59877  0.64181  1.0000
  C   C235      1.0  0.10204  0.50824  0.65259  1.0000
  C   C236      1.0  0.35041  0.54679  0.44414  1.0000
  C   C237      1.0  0.02682  0.59775  0.51893  1.0000
  H   H407      1.0  0.44911  0.63726  0.57853  1.0000
  H   H408      1.0  0.09147  0.62587  0.59183  1.0000
  H   H409      1.0  0.23816  0.53178  0.64234  1.0000
  H   H410      1.0  0.34257  0.54558  0.38509  1.0000
  H   H411      1.0  0.21908  0.64849  0.41324  1.0000
  H   H412      1.0  0.27803  0.58039  0.61691  1.0000
  H   H413      1.0  0.13763  0.55352  0.65672  1.0000
  C   C238      1.0  0.33620  0.62009  0.63854  1.0000
  C   C239      1.0  0.10083  0.53292  0.59027  1.0000
  S   S57       1.0  0.16366  0.52248  0.49027  1.0000
  H   H414      1.0  0.28093  0.59654  0.58025  1.0000
  H   H415      1.0  0.38695  0.92409  0.63260  1.0000
  C   C240      1.0  0.36147  0.64142  0.42664  1.0000
  C   C241      1.0  0.24204  0.66219  0.42407  1.0000
  C   C242      1.0  0.04134  0.63333  0.61411  1.0000
  H   H416      1.0  0.47456  0.91919  0.62530  1.0000
  C   C243      1.0  0.22076  0.50850  0.35867  1.0000
  H   H417      1.0  0.25944  0.61457  0.44664  1.0000
  H   H418      1.0  0.09345  0.59695  0.64324  1.0000
  C   C244      1.0  0.43072  0.65747  0.58851  1.0000
  C   C245      1.0  0.38213  0.66698  0.62633  1.0000
  H   H419      1.0  0.50273  0.86331  0.49963  1.0000
  H   H420      1.0  0.39979  0.68832  0.63546  1.0000
  H   H421      1.0  0.31758  0.57044  0.59526  1.0000
  C   C246      1.0  0.35322  0.61189  0.40399  1.0000
  H   H422      1.0  0.35850  0.63130  0.44902  1.0000
  H   H423      1.0  0.41994  0.63351  0.42736  1.0000
  H   H424      1.0  0.05316  0.64989  0.63165  1.0000
  H   H425      1.0  0.31624  0.61124  0.65504  1.0000
  H   H426      1.0  0.12925  0.51854  0.36672  1.0000
  H   H427      1.0  0.37585  0.56257  0.44463  1.0000
  H   H428      1.0  0.28360  0.58715  0.35142  1.0000
  H   H429      1.0  0.25294  0.68369  0.40974  1.0000
  C   C247      1.0  0.31716  0.56174  0.38533  1.0000
  N   N13       1.0  0.35726  0.65226  0.64929  1.0000
  H   H430      1.0  0.10268  0.54047  0.41184  1.0000
  C   C248      1.0  0.40769  0.63918  0.61170  1.0000
  H   H431      1.0  0.01839  0.61727  0.62273  1.0000
  H   H432      1.0  0.34313  0.66485  0.42327  1.0000
  H   H433      1.0  0.49242  0.83130  0.54578  1.0000
  H   H434      1.0  0.40482  0.67728  0.43949  1.0000
  H   H435      1.0  0.44743  0.67938  0.59796  1.0000
  C   C249      1.0  0.06999  0.60844  0.60101  1.0000
  H   H436      1.0  0.45596  0.98359  0.47221  1.0000
  H   H437      1.0  0.46643  0.99036  0.50966  1.0000
  H   H438      1.0  0.29502  0.54217  0.39031  1.0000
  C   C250      1.0  0.31349  0.54338  0.33269  1.0000
  H   H439      1.0  0.15176  0.51487  0.57047  1.0000
  H   H440      1.0  0.07301  0.51671  0.33726  1.0000
  H   H441      1.0  0.49851  0.95256  0.58368  1.0000
  H   H442      1.0  0.29393  0.52178  0.33845  1.0000
  H   H443      1.0  0.34211  0.54966  0.49073  1.0000
  H   H444      1.0  0.49683  0.93047  0.51187  1.0000
  H   H445      1.0  0.32264  0.51022  0.47364  1.0000
  H   H446      1.0  0.35318  0.52470  0.42818  1.0000
  C   C251      1.0  0.22910  0.50730  0.63193  1.0000
  C   C252      1.0  0.34608  0.52892  0.47369  1.0000
  H   H447      1.0  0.34120  0.53169  0.33271  1.0000
  H   H448      1.0  0.37070  0.51292  0.47894  1.0000
  H   H449      1.0  0.43841  0.94321  0.72290  1.0000
  C   C253      1.0  0.31817  0.74280  0.68063  1.0000
  Fe  Fe32      1.0  0.20263  0.55150  0.96455  1.0000
  H   H450      1.0  0.29877  0.73077  0.69618  1.0000
  H   H451      1.0  0.12357  0.54869  0.84681  1.0000
  S   S58       1.0  0.44977  0.81923  0.69922  1.0000
  H   H452      1.0  0.48192  0.92802  0.98083  1.0000
  H   H453      1.0  0.39638  0.88268  0.69237  1.0000
  C   C254      1.0  0.36322  0.66293  0.97735  1.0000
  C   C255      1.0  0.40764  0.75437  0.91922  1.0000
  H   H454      1.0  0.36676  0.72935  0.65806  1.0000
  C   C256      1.0  0.33547  0.66351  0.95237  1.0000
  H   H455      1.0  0.37116  0.76686  0.95355  1.0000
  C   C257      1.0  0.35884  0.62898  0.70212  1.0000
  H   H456      1.0  0.46233  0.83160  0.75930  1.0000
  H   H457      1.0  0.38542  0.93046  0.69209  1.0000
  N   N14       1.0  0.49906  0.93149  0.68530  1.0000
  C   C258      1.0  0.38142  0.74208  0.94276  1.0000
  H   H458      1.0  0.22330  0.54179  0.85482  1.0000
  H   H459      1.0  0.39706  0.61677  0.66866  1.0000
  H   H460      1.0  0.12234  0.52821  0.92323  1.0000
  C   C259      1.0  0.40068  0.71696  0.96485  1.0000
  H   H461      1.0  0.39349  0.77260  0.90380  1.0000
  H   H462      1.0  0.07090  0.62187  0.92347  1.0000
  C   C260      1.0  0.31845  0.62616  0.94835  1.0000
  H   H463      1.0  0.50212  0.95949  0.83900  1.0000
  N   N15       1.0  0.37755  0.69895  0.98756  1.0000
  H   H464      1.0  0.12070  0.65401  0.89851  1.0000
  H   H465      1.0  0.34926  0.67050  0.93187  1.0000
  H   H466      1.0  0.35823  0.72879  0.93228  1.0000
  C   C261      1.0  0.07547  0.52930  0.86986  1.0000
  H   H467      1.0  0.41837  0.73075  0.90711  1.0000
  H   H468      1.0  0.10289  0.59339  0.94217  1.0000
  H   H469      1.0  0.38350  0.90503  0.72524  1.0000
  H   H470      1.0  0.40262  0.59625  0.72021  1.0000
  C   C262      1.0  0.39843  0.90837  0.70465  1.0000
  H   H471      1.0  0.45315  0.99464  0.68404  1.0000
  H   H472      1.0  0.43068  0.76942  0.92873  1.0000
  C   C263      1.0  0.12598  0.63776  0.91826  1.0000
  H   H473      1.0  0.29940  0.62688  0.92985  1.0000
  S   S59       1.0  0.21287  0.54836  0.91593  1.0000
  H   H474      1.0  0.30298  0.61818  0.96790  1.0000
  H   H475      1.0  0.12710  0.57486  0.89189  1.0000
  C   C264      1.0  0.09755  0.60811  0.92174  1.0000
  H   H476      1.0  0.44913  0.99706  0.80903  1.0000
  H   H477      1.0  0.08267  0.53399  0.94393  1.0000
  C   C265      1.0  0.46001  0.92021  0.68247  1.0000
  H   H478      1.0  0.30335  0.75202  0.66110  1.0000
  H   H479      1.0  0.08926  0.59769  0.87642  1.0000
  H   H480      1.0  0.42131  0.73447  0.97521  1.0000
  H   H481      1.0  0.12507  0.65609  0.93718  1.0000
  C   C266      1.0  0.21262  0.51624  0.86239  1.0000
  C   C267      1.0  0.48253  0.99995  0.68602  1.0000
  C   C268      1.0  0.43796  0.91735  0.71085  1.0000
  C   C269      1.0  0.50280  0.96762  0.70008  1.0000
  H   H482      1.0  0.49429  0.96555  0.72302  1.0000
  H   H483      1.0  0.05926  0.54554  0.85418  1.0000
  H   H484      1.0  0.15353  0.62574  0.91690  1.0000
  N   N16       1.0  0.07589  0.54781  0.89884  1.0000
  H   H485      1.0  0.44850  0.89538  0.72489  1.0000
  H   H486      1.0  0.36194  0.70793  0.69268  1.0000
  C   C270      1.0  0.09813  0.58188  0.89570  1.0000
  C   C271      1.0  0.48612  0.81822  0.75087  1.0000
  C   C272      1.0  0.03776  0.55915  0.90645  1.0000
  H   H487      1.0  0.41632  0.69622  0.95265  1.0000
  C   C273      1.0  0.49525  0.74774  0.97454  1.0000
  C   C274      1.0  0.48739  0.80865  0.72155  1.0000
  H   H488      1.0  0.33952  0.60540  0.94392  1.0000
  H   H489      1.0  0.44484  0.93915  0.66839  1.0000
  C   C275      1.0  0.09239  0.52468  0.92244  1.0000
  C   C276      1.0  0.38477  0.61913  0.72657  1.0000
  C   C277      1.0  0.11294  0.52290  0.85580  1.0000
  H   H490      1.0  0.30911  0.67076  0.67167  1.0000
  C   C278      1.0  0.34749  0.71537  0.67259  1.0000
  H   H491      1.0  0.32921  0.73068  0.97852  1.0000
  H   H492      1.0  0.40168  0.64282  0.73241  1.0000
  H   H493      1.0  0.48384  0.72171  0.96933  1.0000
  H   H494      1.0  0.34114  0.65110  0.71003  1.0000
  H   H495      1.0  0.03705  0.57301  0.92770  1.0000
  H   H496      1.0  0.02784  0.57947  0.89043  1.0000
  C   C279      1.0  0.20532  0.51156  0.89196  1.0000
  S   S60       1.0  0.16839  0.59881  0.97874  1.0000
  H   H497      1.0  0.38562  0.64535  0.96959  1.0000
  H   H498      1.0  0.48955  0.94470  0.79001  1.0000
  H   H499      1.0  0.45847  0.89339  0.67153  1.0000
  H   H500      1.0  0.07874  0.52279  0.66224  1.0000
  H   H501      1.0  0.31293  0.68270  0.95620  1.0000
  C   C280      1.0  0.37995  0.64041  0.67465  1.0000
  H   H502      1.0  0.36910  0.61080  0.74590  1.0000
  H   H503      1.0  0.47778  0.00482  0.77934  1.0000
  C   C281      1.0  0.00920  0.52872  0.90912  1.0000
  C   C282      1.0  0.03901  0.59767  0.98951  1.0000
  H   H504      1.0  0.33084  0.76685  0.69074  1.0000
  H   H505      1.0  0.01264  0.51464  0.93016  1.0000
  H   H506      1.0  0.34187  0.60489  0.69785  1.0000
  H   H507      1.0  0.39948  0.66199  0.68070  1.0000
  H   H508      1.0  0.13258  0.51256  0.87184  1.0000
  H   H509      1.0  0.01098  0.50867  0.89159  1.0000
  C   C283      1.0  0.33091  0.68172  0.65763  1.0000
  H   H510      1.0  0.49393  0.00586  0.66445  1.0000
  H   H511      1.0  0.37122  0.98033  0.65939  1.0000
  H   H512      1.0  0.70063  0.19360  0.07981  1.0000
  Fe  Fe33      1.0  0.82187  0.34504  0.26036  1.0000
  S   S61       1.0  0.79845  0.39636  0.24117  1.0000
  S   S62       1.0  0.79124  0.29134  0.26729  1.0000
  Fe  Fe34      1.0  0.89947  0.37750  0.26195  1.0000
  S   S63       1.0  0.88106  0.43052  0.24318  1.0000
  S   S64       1.0  0.95631  0.37149  0.28082  1.0000
  Fe  Fe35      1.0  0.83383  0.42500  0.27359  1.0000
  S   S65       1.0  0.82018  0.47488  0.30010  1.0000
  Fe  Fe36      1.0  0.84771  0.39776  0.21222  1.0000
  S   S66       1.0  0.84815  0.40289  0.16272  1.0000
  S   S67       1.0  0.85401  0.37396  0.29428  1.0000
  S   S68       1.0  0.86922  0.34440  0.22943  1.0000
  H   H513      1.0  0.71214  0.14779  0.08972  1.0000
  H   H514      1.0  0.73557  0.14227  0.30640  1.0000
  C   C284      1.0  0.61650  0.20446  0.01749  1.0000
  H   H515      1.0  0.89372  0.44787  0.31347  1.0000
  H   H516      1.0  0.97263  0.36811  0.21892  1.0000
  C   C285      1.0  0.84035  0.46000  0.08730  1.0000
  C   C286      1.0  0.84400  0.43204  0.10798  1.0000
  C   C287      1.0  0.84264  0.43940  0.13775  1.0000
  C   C288      1.0  0.83753  0.47525  0.14656  1.0000
  H   H517      1.0  0.84146  0.45379  0.06456  1.0000
  H   H518      1.0  0.84779  0.40442  0.10088  1.0000
  H   H519      1.0  0.59840  0.30406  0.16957  1.0000
  H   H520      1.0  0.57076  0.07591  0.10350  1.0000
  H   H521      1.0  0.64322  0.20997  0.02732  1.0000
  C   C289      1.0  0.51818  0.11840  0.00046  1.0000
  H   H522      1.0  0.00345  0.44384  0.27719  1.0000
  C   C290      1.0  0.56217  0.07612  0.08057  1.0000
  H   H523      1.0  0.92015  0.47716  0.13005  1.0000
  H   H524      1.0  0.98870  0.41182  0.09033  1.0000
  H   H525      1.0  0.70006  0.18573  0.25775  1.0000
  H   H526      1.0  0.56279  0.31143  0.22909  1.0000
  H   H527      1.0  0.75640  0.07995  0.28761  1.0000
  C   C291      1.0  0.74530  0.24118  0.29166  1.0000
  C   C292      1.0  0.75794  0.27711  0.29272  1.0000
  C   C293      1.0  0.57486  0.30677  0.18430  1.0000
  C   C294      1.0  0.59677  0.26392  0.30673  1.0000
  H   H528      1.0  0.75662  0.22281  0.27592  1.0000
  H   H529      1.0  0.68721  0.17569  0.11462  1.0000
  H   H530      1.0  0.53555  0.19295  0.10757  1.0000
  C   C295      1.0  0.94872  0.47588  0.04200  1.0000
  H   H531      1.0  0.54154  0.14720  0.07310  1.0000
  H   H532      1.0  0.53235  0.07938  0.07952  1.0000
  H   H533      1.0  0.65897  0.16012  0.25226  1.0000
  N   N17       1.0  0.62114  0.26847  0.25418  1.0000
  C   C296      1.0  0.60689  0.27146  0.22374  1.0000
  C   C297      1.0  0.63893  0.23192  0.25904  1.0000
  C   C298      1.0  0.58907  0.27122  0.27430  1.0000
  C   C299      1.0  0.64689  0.29873  0.26135  1.0000
  C   C300      1.0  0.68083  0.30217  0.24201  1.0000
  C   C301      1.0  0.58730  0.30730  0.21572  1.0000
  H   H534      1.0  0.64833  0.13051  0.09028  1.0000
  C   C302      1.0  0.65853  0.21413  0.23307  1.0000
  C   C303      1.0  0.70054  0.33779  0.24753  1.0000
  C   C304      1.0  0.65573  0.15545  0.07831  1.0000
  H   H535      1.0  0.58765  0.24899  0.21947  1.0000
  H   H536      1.0  0.62874  0.26793  0.20765  1.0000
  H   H537      1.0  0.65834  0.23341  0.27726  1.0000
  H   H538      1.0  0.61864  0.21151  0.26595  1.0000
  H   H539      1.0  0.56750  0.25203  0.26749  1.0000
  H   H540      1.0  0.57688  0.29875  0.27337  1.0000
  H   H541      1.0  0.63246  0.32522  0.26155  1.0000
  C   C305      1.0  0.73803  0.11850  0.32114  1.0000
  H   H542      1.0  0.67420  0.30156  0.21878  1.0000
  H   H543      1.0  0.70000  0.27984  0.24703  1.0000
  H   H544      1.0  0.61016  0.10115  0.06405  1.0000
  H   H545      1.0  0.60554  0.33083  0.21841  1.0000
  H   H546      1.0  0.57114  0.16821  0.02195  1.0000
  H   H547      1.0  0.63851  0.20635  0.21637  1.0000
  H   H548      1.0  0.67852  0.23250  0.22306  1.0000
  H   H549      1.0  0.72636  0.33816  0.23529  1.0000
  H   H550      1.0  0.68378  0.36118  0.24043  1.0000
  H   H551      1.0  0.61510  0.28475  0.31568  1.0000
  H   H552      1.0  0.56056  0.33247  0.17909  1.0000
  H   H553      1.0  0.55596  0.28390  0.18058  1.0000
  H   H554      1.0  0.57153  0.17513  0.28739  1.0000
  C   C306      1.0  0.54902  0.17798  0.24436  1.0000
  H   H555      1.0  0.94584  0.49774  0.02582  1.0000
  H   H556      1.0  0.70037  0.10917  0.26920  1.0000
  H   H557      1.0  0.83629  0.48140  0.16931  1.0000
  C   C307      1.0  0.54943  0.16742  0.27353  1.0000
  H   H558      1.0  0.65746  0.29543  0.28366  1.0000
  S   S69       1.0  0.51911  0.18486  0.19053  1.0000
  C   C308      1.0  0.52092  0.14710  0.28483  1.0000
  C   C309      1.0  0.69915  0.08599  0.28443  1.0000
  H   H559      1.0  0.73070  0.05992  0.31669  1.0000
  H   H560      1.0  0.94237  0.46549  0.08700  1.0000
  H   H561      1.0  0.97759  0.46769  0.04295  1.0000
  C   C310      1.0  0.57117  0.14429  0.07685  1.0000
  H   H562      1.0  0.93758  0.43482  0.00987  1.0000
  C   C311      1.0  0.56648  0.20973  0.06889  1.0000
  C   C312      1.0  0.62527  0.18398  0.08140  1.0000
  H   H563      1.0  0.66137  0.14872  0.05551  1.0000
  C   C313      1.0  0.99781  0.36771  0.23077  1.0000
  C   C314      1.0  0.55176  0.21622  0.09989  1.0000
  H   H564      1.0  0.59980  0.22944  0.01822  1.0000
  C   C315      1.0  0.99724  0.36901  0.26089  1.0000
  C   C316      1.0  0.52725  0.24960  0.10094  1.0000
  H   H565      1.0  0.87096  0.12900  0.29157  1.0000
  H   H566      1.0  0.61353  0.14803  0.02838  1.0000
  C   C317      1.0  0.71793  0.22894  0.31053  1.0000
  H   H567      1.0  0.57122  0.19310  0.23553  1.0000
  H   H568      1.0  0.57452  0.14262  0.10069  1.0000
  C   C318      1.0  0.69100  0.16912  0.09146  1.0000
  H   H569      1.0  0.54267  0.20783  0.05427  1.0000
  H   H570      1.0  0.58071  0.23502  0.06262  1.0000
  H   H571      1.0  0.63644  0.21097  0.07552  1.0000
  H   H572      1.0  0.61968  0.18563  0.10489  1.0000
  C   C319      1.0  0.80440  0.11952  0.31861  1.0000
  H   H573      1.0  0.89821  0.45031  0.02910  1.0000
  H   H574      1.0  0.54242  0.27427  0.09461  1.0000
  C   C320      1.0  0.83418  0.50326  0.12588  1.0000
  H   H575      1.0  0.57405  0.22071  0.11539  1.0000
  H   H576      1.0  0.69053  0.16642  0.22305  1.0000
  H   H577      1.0  0.87304  0.08680  0.31162  1.0000
  H   H578      1.0  0.51686  0.25322  0.12322  1.0000
  H   H579      1.0  0.60916  0.23689  0.31029  1.0000
  H   H580      1.0  0.54373  0.24258  0.31778  1.0000
  H   H581      1.0  0.92583  0.49195  0.18068  1.0000
  H   H582      1.0  0.70820  0.20148  0.30925  1.0000
  H   H583      1.0  0.69624  0.06064  0.27185  1.0000
  N   N18       1.0  0.59081  0.17705  0.06500  1.0000
  C   C321      1.0  0.92731  0.44325  0.03132  1.0000
  H   H584      1.0  0.56937  0.04961  0.07085  1.0000
  C   C322      1.0  0.67820  0.17949  0.24221  1.0000
  H   H585      1.0  0.94206  0.47252  0.28353  1.0000
  H   H586      1.0  0.95448  0.42403  0.32341  1.0000
  H   H587      1.0  0.67496  0.08879  0.29846  1.0000
  C   C323      1.0  0.58083  0.10665  0.06400  1.0000
  C   C324      1.0  0.93529  0.48808  0.07214  1.0000
  H   H588      1.0  0.57152  0.10502  0.04133  1.0000
  C   C325      1.0  0.59735  0.17264  0.03307  1.0000
  H   H589      1.0  0.70697  0.34085  0.27075  1.0000
  H   H590      1.0  0.52675  0.09036  0.00079  1.0000
  C   C326      1.0  0.52007  0.16865  0.22643  1.0000
  C   C327      1.0  0.73350  0.08398  0.30264  1.0000
  H   H591      1.0  0.80029  0.13820  0.29993  1.0000
  H   H592      1.0  0.80705  0.09224  0.30893  1.0000
  C   C328      1.0  0.87288  0.11680  0.31345  1.0000
  C   C329      1.0  0.83572  0.49593  0.09612  1.0000
  C   C330      1.0  0.74304  0.30054  0.31321  1.0000
  H   H593      1.0  0.93011  0.42011  0.04653  1.0000
  H   H594      1.0  0.75248  0.32819  0.31441  1.0000
  H   H595      1.0  0.96556  0.49227  0.13735  1.0000
  S   S70       1.0  0.51907  0.13555  0.32166  1.0000
  H   H596      1.0  0.54771  0.29133  0.32148  1.0000
  C   C331      1.0  0.92948  0.48967  0.30041  1.0000
  H   H597      1.0  0.90525  0.48926  0.07151  1.0000
  C   C332      1.0  0.93703  0.50107  0.13530  1.0000
  H   H598      1.0  0.99818  0.49634  0.09796  1.0000
  H   H599      1.0  0.00333  0.48842  0.26135  1.0000
  H   H600      1.0  0.00560  0.37406  0.11107  1.0000
  H   H601      1.0  0.90745  0.50574  0.29022  1.0000
  H   H602      1.0  0.89881  0.12536  0.32331  1.0000
  Fe  Fe37      1.0  0.63672  0.10208  0.36720  1.0000
  S   S71       1.0  0.57972  0.09956  0.38299  1.0000
  S   S72       1.0  0.67554  0.05500  0.36096  1.0000
  Fe  Fe38      1.0  0.63688  0.18555  0.36256  1.0000
  S   S73       1.0  0.57905  0.18899  0.37838  1.0000
  S   S74       1.0  0.66681  0.23915  0.35409  1.0000
  Fe  Fe39      1.0  0.59381  0.14668  0.41147  1.0000
  S   S75       1.0  0.58531  0.14566  0.46037  1.0000
  Fe  Fe40      1.0  0.56938  0.14184  0.34878  1.0000
  S   S76       1.0  0.65233  0.14645  0.39782  1.0000
  H   H603      1.0  0.90923  0.45403  0.63215  1.0000
  C   C333      1.0  0.80367  0.44247  0.35253  1.0000
  C   C334      1.0  0.96244  0.39907  0.37556  1.0000
  C   C335      1.0  0.80958  0.47364  0.39871  1.0000
  H   H604      1.0  0.71491  0.17204  0.35837  1.0000
  H   H605      1.0  0.90323  0.35861  0.39354  1.0000
  H   H606      1.0  0.87710  0.41511  0.34953  1.0000
  C   C336      1.0  0.54653  0.15305  0.48234  1.0000
  C   C337      1.0  0.70252  0.25258  0.33058  1.0000
  C   C338      1.0  0.77232  0.15850  0.35243  1.0000
  H   H607      1.0  0.52235  0.14912  0.55371  1.0000
  H   H608      1.0  0.70383  0.30691  0.34737  1.0000
  H   H609      1.0  0.55742  0.07448  0.47368  1.0000
  C   C339      1.0  0.66835  0.00752  0.35804  1.0000
  C   C340      1.0  0.89999  0.39872  0.35797  1.0000
  H   H610      1.0  0.97778  0.42055  0.61531  1.0000
  H   H611      1.0  0.84445  0.11730  0.35401  1.0000
  C   C341      1.0  0.72521  0.41880  0.58481  1.0000
  C   C342      1.0  0.82616  0.50504  0.59529  1.0000
  H   H612      1.0  0.89926  0.48362  0.33963  1.0000
  H   H613      1.0  0.87741  0.46376  0.43885  1.0000
  C   C343      1.0  0.81714  0.47852  0.64335  1.0000
  H   H614      1.0  0.84668  0.41499  0.59611  1.0000
  S   S77       1.0  0.80179  0.47485  0.43637  1.0000
  C   C344      1.0  0.85431  0.34991  0.37027  1.0000
  C   C345      1.0  0.83835  0.44113  0.60419  1.0000
  C   C346      1.0  0.51297  0.16293  0.47086  1.0000
  C   C347      1.0  0.89716  0.34610  0.57706  1.0000
  N   N19       1.0  0.74342  0.44117  0.53378  1.0000
  H   H615      1.0  0.93459  0.47582  0.38639  1.0000
  C   C348      1.0  0.77843  0.42004  0.53365  1.0000
  C   C349      1.0  0.72838  0.44535  0.50373  1.0000
  C   C350      1.0  0.71648  0.42085  0.55207  1.0000
  C   C351      1.0  0.72263  0.40969  0.48675  1.0000
  C   C352      1.0  0.80741  0.43299  0.51183  1.0000
  C   C353      1.0  0.84187  0.41021  0.51406  1.0000
  C   C354      1.0  0.71049  0.41760  0.45587  1.0000
  H   H616      1.0  0.78746  0.42010  0.39364  1.0000
  H   H617      1.0  0.79130  0.42103  0.55527  1.0000
  H   H618      1.0  0.77344  0.39077  0.52968  1.0000
  C   C355      1.0  0.81781  0.47262  0.33812  1.0000
  H   H619      1.0  0.73367  0.14518  0.38721  1.0000
  H   H620      1.0  0.68885  0.43245  0.54947  1.0000
  H   H621      1.0  0.71413  0.39238  0.54451  1.0000
  C   C356      1.0  0.51949  0.15289  0.53069  1.0000
  H   H622      1.0  0.70138  0.39300  0.49715  1.0000
  H   H623      1.0  0.74771  0.39328  0.48547  1.0000
  H   H624      1.0  0.53816  0.06181  0.53226  1.0000
  H   H625      1.0  0.81465  0.46149  0.51596  1.0000
  H   H626      1.0  0.85355  0.41193  0.53604  1.0000
  H   H627      1.0  0.83612  0.38144  0.50893  1.0000
  H   H628      1.0  0.86215  0.42050  0.49841  1.0000
  H   H629      1.0  0.56536  0.03881  0.42698  1.0000
  H   H630      1.0  0.61739  0.07213  0.44764  1.0000
  C   C357      1.0  0.92535  0.43838  0.42098  1.0000
  C   C358      1.0  0.94310  0.44309  0.33957  1.0000
  H   H631      1.0  0.89079  0.45723  0.38605  1.0000
  H   H632      1.0  0.57542  0.14058  0.52150  1.0000
  H   H633      1.0  0.86904  0.39341  0.39801  1.0000
  C   C359      1.0  0.51181  0.04790  0.52945  1.0000
  C   C360      1.0  0.54957  0.14809  0.51234  1.0000
  S   S78       1.0  0.62573  0.14122  0.33069  1.0000
  C   C361      1.0  0.83797  0.47128  0.58543  1.0000
  H   H634      1.0  0.66966  0.40920  0.59864  1.0000
  H   H635      1.0  0.76822  0.19801  0.40465  1.0000
  H   H636      1.0  0.75549  0.02399  0.38225  1.0000
  C   C362      1.0  0.88291  0.37555  0.38227  1.0000
  H   H637      1.0  0.51020  0.16700  0.44788  1.0000
  H   H638      1.0  0.84226  0.33388  0.38812  1.0000
  H   H639      1.0  0.74572  0.46376  0.49060  1.0000
  H   H640      1.0  0.75183  0.22508  0.37471  1.0000
  H   H641      1.0  0.74549  0.08737  0.37009  1.0000
  H   H642      1.0  0.79491  0.41921  0.34030  1.0000
  C   C363      1.0  0.91355  0.46584  0.32414  1.0000
  C   C364      1.0  0.79935  0.44310  0.38273  1.0000
  N   N20       1.0  0.51565  0.03344  0.47493  1.0000
  C   C365      1.0  0.75051  0.47840  0.54582  1.0000
  H   H643      1.0  0.89138  0.37955  0.62915  1.0000
  C   C366      1.0  0.74563  0.20192  0.38921  1.0000
  H   H644      1.0  0.83230  0.36542  0.35956  1.0000
  H   H645      1.0  0.78169  0.04435  0.33484  1.0000
  H   H646      1.0  0.92315  0.32224  0.61370  1.0000
  C   C367      1.0  0.73931  0.16747  0.37179  1.0000
  C   C368      1.0  0.98179  0.39795  0.63095  1.0000
  N   N21       1.0  0.77232  0.12144  0.33865  1.0000
  C   C369      1.0  0.57680  0.02942  0.44777  1.0000
  H   H647      1.0  0.90844  0.38029  0.34016  1.0000
  C   C370      1.0  0.91925  0.38130  0.62037  1.0000
  H   H648      1.0  0.84351  0.15933  0.33436  1.0000
  H   H649      1.0  0.89913  0.37036  0.56293  1.0000
  C   C371      1.0  0.77338  0.09303  0.36226  1.0000
  C   C372      1.0  0.92543  0.34767  0.60103  1.0000
  H   H650      1.0  0.86950  0.34468  0.58637  1.0000
  H   H651      1.0  0.71385  0.11934  0.33542  1.0000
  H   H652      1.0  0.79655  0.16180  0.36634  1.0000
  C   C373      1.0  0.84136  0.12943  0.33223  1.0000
  H   H653      1.0  0.95447  0.43803  0.42655  1.0000
  H   H654      1.0  0.91446  0.41118  0.42575  1.0000
  H   H655      1.0  0.52623  0.09128  0.43519  1.0000
  C   C374      1.0  0.92777  0.45424  0.65089  1.0000
  C   C375      1.0  0.79159  0.05614  0.35517  1.0000
  H   H656      1.0  0.84635  0.46847  0.56325  1.0000
  H   H657      1.0  0.96780  0.37785  0.35898  1.0000
  H   H658      1.0  0.90174  0.32160  0.56371  1.0000
  C   C376      1.0  0.55484  0.04449  0.47364  1.0000
  C   C377      1.0  0.82799  0.44454  0.63327  1.0000
  H   H659      1.0  0.75182  0.40574  0.58868  1.0000
  C   C378      1.0  0.69684  0.39664  0.60096  1.0000
  H   H660      1.0  0.70151  0.45888  0.50440  1.0000
  H   H661      1.0  0.95572  0.38359  0.39532  1.0000
  H   H662      1.0  0.79770  0.43086  0.48934  1.0000
  C   C379      1.0  0.91979  0.44976  0.38901  1.0000
  C   C380      1.0  0.78494  0.02854  0.37923  1.0000
  N   N22       1.0  0.93121  0.42275  0.36628  1.0000
  H   H663      1.0  0.73151  0.43324  0.44413  1.0000
  H   H664      1.0  0.91868  0.40526  0.60576  1.0000
  H   H665      1.0  0.70614  0.39174  0.44425  1.0000
  C   C381      1.0  0.71673  0.50286  0.55025  1.0000
  H   H666      1.0  0.69640  0.48968  0.56430  1.0000
  H   H667      1.0  0.99439  0.44626  0.39033  1.0000
  H   H668      1.0  0.56837  0.26157  0.34754  1.0000
  H   H669      1.0  0.96590  0.33175  0.64827  1.0000
  H   H670      1.0  0.91619  0.49317  0.43677  1.0000
  H   H671      1.0  0.76902  0.49377  0.53147  1.0000
  H   H672      1.0  0.56916  0.03566  0.49357  1.0000
  H   H673      1.0  0.78787  0.10337  0.38158  1.0000
  H   H674      1.0  0.63106  0.03102  0.42996  1.0000
  H   H675      1.0  0.96532  0.46215  0.34484  1.0000
  C   C382      1.0  0.71539  0.28838  0.33186  1.0000
  H   H676      1.0  0.72081  0.20867  0.40161  1.0000
  H   H677      1.0  0.86653  0.33087  0.35451  1.0000
  H   H678      1.0  0.76515  0.47645  0.56668  1.0000
  C   C383      1.0  0.82864  0.50275  0.35421  1.0000
  C   C384      1.0  0.82497  0.50308  0.38431  1.0000
  H   H679      1.0  0.62948  0.03260  0.46879  1.0000
  C   C385      1.0  0.90713  0.46509  0.44131  1.0000
  H   H680      1.0  0.82126  0.05940  0.35304  1.0000
  H   H681      1.0  0.95423  0.46507  0.64379  1.0000
  H   H682      1.0  0.91413  0.45824  0.46394  1.0000
  H   H683      1.0  0.95246  0.34840  0.59074  1.0000
  N   N23       1.0  0.94626  0.38692  0.64427  1.0000
  H   H684      1.0  0.72566  0.44612  0.59467  1.0000
  C   C386      1.0  0.61605  0.04211  0.44874  1.0000
  H   H685      1.0  0.68476  0.43321  0.45575  1.0000
  H   H686      1.0  0.69607  0.36843  0.59273  1.0000
  H   H687      1.0  0.99309  0.37528  0.61802  1.0000
  H   H688      1.0  0.70377  0.39563  0.62425  1.0000
  H   H689      1.0  0.77413  0.18013  0.33563  1.0000
  H   H690      1.0  0.79666  0.03812  0.39986  1.0000
  C   C387      1.0  0.99868  0.41915  0.38067  1.0000
  S   S79       1.0  0.82843  0.40532  0.65565  1.0000
  H   H691      1.0  0.51583  0.01877  0.53420  1.0000
  C   C388      1.0  0.56186  0.26499  0.32432  1.0000
  H   H692      1.0  0.50688  0.02318  0.42947  1.0000
  Fe  Fe41      1.0  0.61148  0.10249  0.85438  1.0000
  S   S80       1.0  0.55432  0.10597  0.86946  1.0000
  S   S81       1.0  0.63614  0.05145  0.83578  1.0000
  Fe  Fe42      1.0  0.62419  0.18348  0.86301  1.0000
  S   S82       1.0  0.56714  0.19314  0.87952  1.0000
  S   S83       1.0  0.67172  0.22326  0.86219  1.0000
  Fe  Fe43      1.0  0.57432  0.14149  0.90520  1.0000
  S   S84       1.0  0.55752  0.12251  0.95041  1.0000
  Fe  Fe44      1.0  0.55096  0.15644  0.84279  1.0000
  H   H693      1.0  0.55502  0.03904  0.82772  1.0000
  S   S85       1.0  0.63249  0.13451  0.89161  1.0000
  S   S86       1.0  0.60694  0.15053  0.82485  1.0000
  Fe  Fe45      1.0  0.78828  0.34936  0.75178  1.0000
  S   S87       1.0  0.77799  0.40632  0.73578  1.0000
  S   S88       1.0  0.73984  0.31113  0.75628  1.0000
  Fe  Fe46      1.0  0.87073  0.36114  0.75098  1.0000
  S   S89       1.0  0.86600  0.41860  0.73567  1.0000
  S   S90       1.0  0.92440  0.33309  0.75958  1.0000
  Fe  Fe47      1.0  0.82076  0.42203  0.76800  1.0000
  S   S91       1.0  0.81438  0.47146  0.79649  1.0000
  Fe  Fe48      1.0  0.82417  0.39793  0.70470  1.0000
  H   H694      1.0  0.85649  0.41171  0.88545  1.0000
  S   S92       1.0  0.82832  0.36583  0.78567  1.0000
  S   S93       1.0  0.83152  0.33967  0.71845  1.0000
  H   H695      1.0  0.75428  0.12334  0.87440  1.0000
  C   C389      1.0  0.96513  0.35436  0.74928  1.0000
  C   C390      1.0  0.96496  0.38944  0.73803  1.0000
  C   C391      1.0  0.76817  0.08032  0.73547  1.0000
  H   H696      1.0  0.93983  0.40389  0.73563  1.0000
  S   S94       1.0  0.84390  0.46223  0.93106  1.0000
  C   C392      1.0  0.83905  0.43765  0.84604  1.0000
  C   C393      1.0  0.82466  0.46904  0.83356  1.0000
  H   H697      1.0  0.92213  0.38724  0.80394  1.0000
  C   C394      1.0  0.53725  0.17232  0.76503  1.0000
  C   C395      1.0  0.51326  0.15885  0.71731  1.0000
  C   C396      1.0  0.84559  0.43617  0.87587  1.0000
  C   C397      1.0  0.92562  0.29823  0.68741  1.0000
  C   C398      1.0  0.72494  0.12780  0.87079  1.0000
  H   H698      1.0  0.93637  0.45048  0.86088  1.0000
  C   C399      1.0  0.80791  0.22139  0.76616  1.0000
  H   H699      1.0  0.69236  0.16218  0.73559  1.0000
  H   H700      1.0  0.55818  0.18381  0.77835  1.0000
  H   H701      1.0  0.91191  0.30002  0.84561  1.0000
  C   C400      1.0  0.96855  0.43287  0.91195  1.0000
  C   C401      1.0  0.69011  0.24750  0.83241  1.0000
  C   C402      1.0  0.67132  0.25183  0.80648  1.0000
  C   C403      1.0  0.68674  0.27188  0.78365  1.0000
  C   C404      1.0  0.72118  0.28759  0.78629  1.0000
  C   C405      1.0  0.74017  0.28281  0.81207  1.0000
  C   C406      1.0  0.72455  0.26324  0.83509  1.0000
  H   H702      1.0  0.64475  0.24009  0.80410  1.0000
  H   H703      1.0  0.67188  0.27516  0.76372  1.0000
  H   H704      1.0  0.76713  0.29367  0.81402  1.0000
  H   H705      1.0  0.73943  0.25990  0.85499  1.0000
  C   C407      1.0  0.96213  0.43549  0.85753  1.0000
  H   H706      1.0  0.79780  0.19181  0.80496  1.0000
  H   H707      1.0  0.67815  0.12954  0.78530  1.0000
  H   H708      1.0  0.60657  0.03528  0.89211  1.0000
  H   H709      1.0  0.73062  0.09530  0.78567  1.0000
  H   H710      1.0  0.71705  0.15475  0.87938  1.0000
  H   H711      1.0  0.94160  0.39343  0.88649  1.0000
  H   H712      1.0  0.77437  0.11411  0.78537  1.0000
  H   H713      1.0  0.76627  0.14912  0.82625  1.0000
  H   H714      1.0  0.56436  0.18459  0.72497  1.0000
  H   H715      1.0  0.52160  0.06890  0.81477  1.0000
  H   H716      1.0  0.76704  0.07695  0.71171  1.0000
  C   C408      1.0  0.71698  0.47419  0.93432  1.0000
  C   C409      1.0  0.91772  0.33601  0.67537  1.0000
  S   S95       1.0  0.51816  0.16075  0.67952  1.0000
  H   H717      1.0  0.63054  0.18252  0.72892  1.0000
  C   C410      1.0  0.56876  0.06990  0.77280  1.0000
  C   C411      1.0  0.83747  0.46594  0.89348  1.0000
  H   H718      1.0  0.75893  0.13742  0.73294  1.0000
  C   C412      1.0  0.52809  0.14060  0.97705  1.0000
  H   H719      1.0  0.84476  0.41441  0.83277  1.0000
  H   H720      1.0  0.90143  0.28795  0.69900  1.0000
  C   C413      1.0  0.96596  0.41069  0.88428  1.0000
  H   H721      1.0  0.89663  0.44258  0.79956  1.0000
  C   C414      1.0  0.74641  0.11863  0.77726  1.0000
  H   H722      1.0  0.96176  0.43449  0.78406  1.0000
  H   H723      1.0  0.79524  0.24689  0.77392  1.0000
  C   C415      1.0  0.91758  0.46310  0.80432  1.0000
  H   H724      1.0  0.93013  0.48286  0.69193  1.0000
  H   H725      1.0  0.52737  0.03104  0.76557  1.0000
  C   C416      1.0  0.90512  0.32839  0.83967  1.0000
  C   C417      1.0  0.67883  0.17423  0.75448  1.0000
  H   H726      1.0  0.54999  0.09329  0.77078  1.0000
  C   C418      1.0  0.70502  0.45806  0.83795  1.0000
  H   H727      1.0  0.99870  0.30894  0.76141  1.0000
  H   H728      1.0  0.70999  0.45536  0.95218  1.0000
  H   H729      1.0  0.69747  0.50328  0.80849  1.0000
  C   C419      1.0  0.71932  0.48438  0.81521  1.0000
  H   H730      1.0  0.70987  0.10665  0.88285  1.0000
  H   H731      1.0  0.59663  0.19124  0.97451  1.0000
  H   H732      1.0  0.90839  0.35318  0.69354  1.0000
  H   H733      1.0  0.67814  0.17369  0.80033  1.0000
  H   H734      1.0  0.72890  0.46944  0.79587  1.0000
  H   H735      1.0  0.73821  0.21150  0.78564  1.0000
  H   H736      1.0  0.94890  0.41794  0.68365  1.0000
  C   C420      1.0  0.54070  0.17277  0.73485  1.0000
  H   H737      1.0  0.73044  0.18097  0.83010  1.0000
  H   H738      1.0  0.96942  0.41436  0.93086  1.0000
  H   H739      1.0  0.95480  0.34862  0.85674  1.0000
  H   H740      1.0  0.68170  0.44360  0.82842  1.0000
  N   N24       1.0  0.72428  0.40458  0.87091  1.0000
  C   C421      1.0  0.71026  0.42414  0.89718  1.0000
  C   C422      1.0  0.69475  0.38038  0.85953  1.0000
  C   C423      1.0  0.75724  0.38306  0.87960  1.0000
  C   C424      1.0  0.73476  0.43078  0.84736  1.0000
  C   C425      1.0  0.73541  0.45378  0.90975  1.0000
  C   C426      1.0  0.77455  0.35993  0.85548  1.0000
  C   C427      1.0  0.68578  0.34649  0.87802  1.0000
  C   C428      1.0  0.65302  0.32659  0.86589  1.0000
  H   H741      1.0  0.74627  0.18885  0.75295  1.0000
  C   C429      1.0  0.80370  0.33468  0.86748  1.0000
  H   H742      1.0  0.70532  0.40461  0.91504  1.0000
  H   H743      1.0  0.68335  0.43655  0.89280  1.0000
  H   H744      1.0  0.66915  0.39602  0.85714  1.0000
  H   H745      1.0  0.70117  0.37086  0.83732  1.0000
  H   H746      1.0  0.75113  0.36530  0.89842  1.0000
  H   H747      1.0  0.77897  0.40139  0.88718  1.0000
  H   H748      1.0  0.75926  0.44612  0.85355  1.0000
  H   H749      1.0  0.74278  0.41592  0.82750  1.0000
  H   H750      1.0  0.76055  0.44160  0.91858  1.0000
  H   H751      1.0  0.62343  0.18596  0.76716  1.0000
  H   H752      1.0  0.78742  0.37774  0.83922  1.0000
  H   H753      1.0  0.75423  0.34317  0.84445  1.0000
  H   H754      1.0  0.70876  0.32707  0.87814  1.0000
  H   H755      1.0  0.67953  0.35394  0.90059  1.0000
  H   H756      1.0  0.64810  0.30154  0.87862  1.0000
  H   H757      1.0  0.62846  0.34390  0.86705  1.0000
  H   H758      1.0  0.65783  0.31874  0.84312  1.0000
  H   H759      1.0  0.68624  0.12944  0.83651  1.0000
  H   H760      1.0  0.72235  0.09733  0.83185  1.0000
  H   H761      1.0  0.81667  0.31967  0.84951  1.0000
  H   H762      1.0  0.82478  0.35041  0.87891  1.0000
  H   H763      1.0  0.79160  0.31469  0.88259  1.0000
  N   N25       1.0  0.73136  0.15374  0.78882  1.0000
  C   C430      1.0  0.75042  0.18645  0.77653  1.0000
  C   C431      1.0  0.69110  0.15667  0.78339  1.0000
  C   C432      1.0  0.73730  0.15386  0.82107  1.0000
  C   C433      1.0  0.79175  0.18861  0.78170  1.0000
  C   C434      1.0  0.71580  0.12529  0.83875  1.0000
  H   H764      1.0  0.83740  0.22277  0.77044  1.0000
  H   H765      1.0  0.99532  0.38305  0.80174  1.0000
  H   H766      1.0  0.68511  0.20361  0.75444  1.0000
  H   H767      1.0  0.74304  0.47406  0.89326  1.0000
  C   C435      1.0  0.53177  0.04058  0.81262  1.0000
  H   H768      1.0  0.88974  0.32800  0.81914  1.0000
  H   H769      1.0  0.88794  0.34016  0.85691  1.0000
  H   H770      1.0  0.71864  0.10993  0.73633  1.0000
  H   H771      1.0  0.63673  0.21867  0.97493  1.0000
  N   N26       1.0  0.96199  0.41703  0.82855  1.0000
  C   C436      1.0  0.74663  0.11398  0.74416  1.0000
  C   C437      1.0  0.51665  0.17676  0.97680  1.0000
  H   H772      1.0  0.80567  0.16405  0.77355  1.0000
  H   H773      1.0  0.97522  0.46861  0.80874  1.0000
  H   H774      1.0  0.74202  0.50050  0.82401  1.0000
  H   H775      1.0  0.90465  0.40810  0.67227  1.0000
  H   H776      1.0  0.62964  0.14195  0.75062  1.0000
  H   H777      1.0  0.99694  0.43318  0.72096  1.0000
  H   H778      1.0  0.54143  0.02998  0.87281  1.0000
  H   H779      1.0  0.94459  0.45091  0.91432  1.0000
  H   H780      1.0  0.80378  0.21933  0.74252  1.0000
  H   H781      1.0  0.52409  0.19417  0.95897  1.0000
  H   H782      1.0  0.90768  0.39976  0.83898  1.0000
  C   C438      1.0  0.95598  0.44582  0.80577  1.0000
  H   H783      1.0  0.75663  0.05568  0.74572  1.0000
  H   H784      1.0  0.79695  0.08304  0.74192  1.0000
  C   C439      1.0  0.93153  0.38987  0.82665  1.0000
  H   H785      1.0  0.69522  0.47437  0.85635  1.0000
  C   C440      1.0  0.63811  0.17079  0.75015  1.0000
  H   H786      1.0  0.89515  0.33347  0.65985  1.0000
  H   H787      1.0  0.91026  0.47666  0.82478  1.0000
  H   H788      1.0  0.88493  0.47136  0.68020  1.0000
  C   C441      1.0  0.93984  0.35025  0.83619  1.0000
  H   H789      1.0  0.93229  0.27919  0.66971  1.0000
  C   C442      1.0  0.91554  0.49162  0.78040  1.0000
  C   C443      1.0  0.81700  0.49895  0.85111  1.0000
  C   C444      1.0  0.54819  0.03600  0.78216  1.0000
  H   H790      1.0  0.97076  0.35768  0.67982  1.0000
  C   C445      1.0  0.82333  0.49744  0.88096  1.0000
  H   H791      1.0  0.59016  0.07663  0.78861  1.0000
  H   H792      1.0  0.99045  0.39341  0.88300  1.0000
  C   C446      1.0  0.91202  0.48060  0.67294  1.0000
  H   H793      1.0  0.58166  0.06531  0.75151  1.0000
  H   H794      1.0  0.95668  0.33663  0.81956  1.0000
  H   H795      1.0  0.99356  0.44932  0.91196  1.0000
  H   H796      1.0  0.92153  0.47921  0.75914  1.0000
  C   C447      1.0  0.99828  0.33614  0.75264  1.0000
  H   H797      1.0  0.94851  0.29902  0.70287  1.0000
  H   H798      1.0  0.51930  0.02634  0.92245  1.0000
  H   H799      1.0  0.98353  0.45648  0.85838  1.0000
  C   C448      1.0  0.99744  0.40603  0.72980  1.0000
  C   C449      1.0  0.93185  0.41581  0.66411  1.0000
  H   H800      1.0  0.63982  0.17106  0.98331  1.0000
  C   C450      1.0  0.95206  0.35269  0.66153  1.0000
  H   H801      1.0  0.80899  0.48161  0.66560  1.0000
  H   H802      1.0  0.69211  0.48805  0.92658  1.0000
  C   C451      1.0  0.51509  0.01697  0.87648  1.0000
  C   C452      1.0  0.60983  0.01009  0.88052  1.0000
  H   H803      1.0  0.88784  0.50331  0.77959  1.0000
  C   C453      1.0  0.62424  0.01030  0.85271  1.0000
  H   H804      1.0  0.00370  0.43253  0.66565  1.0000
  C   C454      1.0  0.99767  0.39864  0.82216  1.0000
  H   H805      1.0  0.56771  0.01307  0.78238  1.0000
  H   H806      1.0  0.73565  0.49507  0.94286  1.0000
  C   C455      1.0  0.62278  0.19571  0.98568  1.0000
  H   H807      1.0  0.00459  0.37829  0.83890  1.0000
  H   H808      1.0  0.51585  0.04243  0.70497  1.0000
  C   C456      1.0  0.53669  0.92765  0.99766  1.0000
  H   H809      1.0  0.54865  0.84291  0.20768  1.0000
  H   H810      1.0  0.57402  0.88371  0.20849  1.0000
  H   H811      1.0  0.94195  0.55660  0.12130  1.0000
  Fe  Fe49      1.0  0.83417  0.53938  0.02186  1.0000
  C   C457      1.0  0.51615  0.88330  0.24553  1.0000
  S   S96       1.0  0.83594  0.59774  0.00680  1.0000
  H   H812      1.0  0.72436  0.67213  0.04733  1.0000
  C   C458      1.0  0.68120  0.70252  0.02650  1.0000
  C   C459      1.0  0.79129  0.60226  0.30291  1.0000
  H   H813      1.0  0.55323  0.88435  0.08265  1.0000
  H   H814      1.0  0.57708  0.81939  0.16342  1.0000
  H   H815      1.0  0.83325  0.56068  0.29989  1.0000
  H   H816      1.0  0.75007  0.56431  0.31658  1.0000
  H   H817      1.0  0.56829  0.77187  0.22045  1.0000
  H   H818      1.0  0.66579  0.70453  0.04695  1.0000
  C   C460      1.0  0.54504  0.77815  0.26282  1.0000
  C   C461      1.0  0.55115  0.87229  0.16721  1.0000
  C   C462      1.0  0.54349  0.77505  0.23255  1.0000
  H   H819      1.0  0.58347  0.84890  0.13290  1.0000
  H   H820      1.0  0.51963  0.93545  0.18326  1.0000
  H   H821      1.0  0.55668  0.90007  0.15924  1.0000
  H   H822      1.0  0.58062  0.71379  0.07764  1.0000
  H   H823      1.0  0.52084  0.90088  0.10871  1.0000
  H   H824      1.0  0.60819  0.85705  0.16576  1.0000
  H   H825      1.0  0.66573  0.77045  0.01046  1.0000
  H   H826      1.0  0.90268  0.53483  0.10892  1.0000
  C   C463      1.0  0.81299  0.57424  0.28587  1.0000
  H   H827      1.0  0.61232  0.80708  0.00769  1.0000
  H   H828      1.0  0.69918  0.72633  0.02441  1.0000
  C   C464      1.0  0.58195  0.84793  0.15680  1.0000
  H   H829      1.0  0.90884  0.61199  0.03351  1.0000
  H   H830      1.0  0.73528  0.64781  0.31264  1.0000
  H   H831      1.0  0.54630  0.94108  0.21438  1.0000
  H   H832      1.0  0.57071  0.89614  0.30634  1.0000
  H   H833      1.0  0.57460  0.88086  0.25521  1.0000
  H   H834      1.0  0.58360  0.75579  0.01843  1.0000
  H   H835      1.0  0.65077  0.65019  0.31140  1.0000
  N   N27       1.0  0.62783  0.72930  0.99631  1.0000
  H   H836      1.0  0.57081  0.77722  0.27380  1.0000
  C   C465      1.0  0.93246  0.59166  0.07346  1.0000
  C   C466      1.0  0.93022  0.61953  0.04912  1.0000
  H   H837      1.0  0.55450  0.92510  0.26013  1.0000
  C   C467      1.0  0.54120  0.90908  0.09240  1.0000
  C   C468      1.0  0.56136  0.70810  0.05988  1.0000
  H   H838      1.0  0.95973  0.55497  0.04412  1.0000
  C   C469      1.0  0.55008  0.89555  0.26251  1.0000
  H   H839      1.0  0.91345  0.54584  0.05041  1.0000
  C   C470      1.0  0.93918  0.55295  0.06153  1.0000
  S   S97       1.0  0.51400  0.80865  0.04562  1.0000
  C   C471      1.0  0.58163  0.70070  0.03176  1.0000
  H   H840      1.0  0.55280  0.91119  0.01311  1.0000
  H   H841      1.0  0.81075  0.62189  0.31204  1.0000
  C   C472      1.0  0.65539  0.69936  0.00030  1.0000
  H   H842      1.0  0.77356  0.61647  0.28725  1.0000
  H   H843      1.0  0.82757  0.58778  0.26792  1.0000
  H   H844      1.0  0.90631  0.59238  0.08530  1.0000
  C   C473      1.0  0.70584  0.66925  0.02867  1.0000
  H   H845      1.0  0.92352  0.64658  0.05806  1.0000
  C   C474      1.0  0.51024  0.77608  0.21782  1.0000
  S   S98       1.0  0.83395  0.53294  0.07124  1.0000
  H   H846      1.0  0.54513  0.94139  0.05410  1.0000
  H   H847      1.0  0.66880  0.83745  0.99249  1.0000
  H   H848      1.0  0.51307  0.85363  0.24926  1.0000
  N   N28       1.0  0.94978  0.52370  0.08298  1.0000
  H   H849      1.0  0.70530  0.61020  0.31424  1.0000
  H   H850      1.0  0.54155  0.83829  0.99358  1.0000
  H   H851      1.0  0.95648  0.62142  0.03762  1.0000
  H   H852      1.0  0.94247  0.53671  0.17246  1.0000
  H   H853      1.0  0.54276  0.73160  0.05731  1.0000
  C   C475      1.0  0.51967  0.93084  0.20693  1.0000
  H   H854      1.0  0.56292  0.92440  0.10341  1.0000
  H   H855      1.0  0.59903  0.67659  0.03525  1.0000
  C   C476      1.0  0.54834  0.87176  0.20062  1.0000
  H   H856      1.0  0.68969  0.64423  0.03176  1.0000
  H   H857      1.0  0.54502  0.68408  0.06594  1.0000
  C   C477      1.0  0.51113  0.79317  0.00997  1.0000
  H   H858      1.0  0.95394  0.60048  0.08840  1.0000
  H   H859      1.0  0.51311  0.95748  0.08000  1.0000
  H   H860      1.0  0.79485  0.55338  0.27659  1.0000
  H   H861      1.0  0.56088  0.69469  0.01524  1.0000
  C   C478      1.0  0.60393  0.73403  0.02239  1.0000
  H   H862      1.0  0.61997  0.74367  0.04111  1.0000
  C   C479      1.0  0.54600  0.88743  0.29468  1.0000
  H   H863      1.0  0.52608  0.86250  0.15691  1.0000
  H   H864      1.0  0.72248  0.66641  0.00884  1.0000
  H   H865      1.0  0.83052  0.53088  0.13302  1.0000
  C   C480      1.0  0.51319  0.78155  0.27883  1.0000
  C   C481      1.0  0.52369  0.93283  0.06923  1.0000
  H   H866      1.0  0.00221  0.51585  0.06333  1.0000
  H   H867      1.0  0.64219  0.67261  0.00253  1.0000
  H   H868      1.0  0.68097  0.68836  0.30678  1.0000
  H   H869      1.0  0.00013  0.56224  0.11825  1.0000
  S   S99       1.0  0.88031  0.52203  0.99351  1.0000
  C   C482      1.0  0.93234  0.53088  0.11188  1.0000
  S   S100      1.0  0.51040  0.77267  0.17957  1.0000
  H   H870      1.0  0.54158  0.95676  0.00162  1.0000
  N   N29       1.0  0.51603  0.89099  0.21351  1.0000
  C   C483      1.0  0.99036  0.52053  0.08507  1.0000
  H   H871      1.0  0.52379  0.00329  0.22538  1.0000
  H   H872      1.0  0.52244  0.90216  0.30383  1.0000
  S   S101      1.0  0.51337  0.78381  0.31712  1.0000
  H   H873      1.0  0.54248  0.85790  0.29834  1.0000
  C   C484      1.0  0.66654  0.67128  0.32280  1.0000
  C   C485      1.0  0.92469  0.51457  0.16484  1.0000
  H   H874      1.0  0.89638  0.52463  0.16383  1.0000
  C   C486      1.0  0.64842  0.76412  0.99164  1.0000
  H   H875      1.0  0.94979  0.50863  0.30932  1.0000
  Fe  Fe50      1.0  0.62476  0.83976  0.36604  1.0000
  S   S102      1.0  0.56494  0.84747  0.36827  1.0000
  S   S103      1.0  0.66336  0.88305  0.34996  1.0000
  Fe  Fe51      1.0  0.62182  0.76097  0.38728  1.0000
  S   S104      1.0  0.56080  0.76353  0.39095  1.0000
  S   S105      1.0  0.64743  0.70588  0.39943  1.0000
  Fe  Fe52      1.0  0.56098  0.79244  0.34797  1.0000
  Fe  Fe53      1.0  0.56923  0.81813  0.41060  1.0000
  C   C487      1.0  0.51275  0.83602  0.50241  1.0000
  S   S106      1.0  0.62123  0.78606  0.34267  1.0000
  S   S107      1.0  0.62986  0.81414  0.41005  1.0000
  Fe  Fe54      1.0  0.81996  0.60317  0.47373  1.0000
  S   S108      1.0  0.78879  0.55578  0.49125  1.0000
  S   S109      1.0  0.79568  0.65826  0.46058  1.0000
  H   H876      1.0  0.53209  0.92173  0.59757  1.0000
  C   C488      1.0  0.62139  0.70956  0.54757  1.0000
  S   S110      1.0  0.85256  0.56961  0.44267  1.0000
  H   H877      1.0  0.52896  0.90501  0.65079  1.0000
  H   H878      1.0  0.67726  0.63843  0.35993  1.0000
  H   H879      1.0  0.83325  0.52660  0.39621  1.0000
  C   C489      1.0  0.61420  0.68431  0.47668  1.0000
  H   H880      1.0  0.59172  0.70288  0.58763  1.0000
  C   C490      1.0  0.63674  0.98965  0.36709  1.0000
  H   H881      1.0  0.70225  0.55546  0.56772  1.0000
  C   C491      1.0  0.54390  0.78361  0.48349  1.0000
  H   H882      1.0  0.55731  0.77024  0.46574  1.0000
  C   C492      1.0  0.68902  0.69342  0.41625  1.0000
  C   C493      1.0  0.69439  0.65709  0.42466  1.0000
  C   C494      1.0  0.72687  0.64574  0.43800  1.0000
  C   C495      1.0  0.75447  0.67066  0.44318  1.0000
  C   C496      1.0  0.74908  0.70697  0.43476  1.0000
  C   C497      1.0  0.71670  0.71828  0.42126  1.0000
  H   H883      1.0  0.67316  0.63760  0.42094  1.0000
  H   H884      1.0  0.73045  0.61783  0.44454  1.0000
  H   H885      1.0  0.77022  0.72654  0.43862  1.0000
  H   H886      1.0  0.71318  0.74625  0.41477  1.0000
  H   H887      1.0  0.78269  0.65566  0.34520  1.0000
  C   C498      1.0  0.66329  0.93097  0.35386  1.0000
  H   H888      1.0  0.74584  0.55414  0.55049  1.0000
  H   H889      1.0  0.61013  0.93749  0.37228  1.0000
  H   H890      1.0  0.84012  0.52594  0.34336  1.0000
  Fe  Fe55      1.0  0.89333  0.56184  0.47832  1.0000
  C   C499      1.0  0.63429  0.95128  0.36516  1.0000
  S   S111      1.0  0.95207  0.55468  0.46390  1.0000
  Fe  Fe56      1.0  0.83396  0.54973  0.52374  1.0000
  C   C500      1.0  0.60896  0.72352  0.57694  1.0000
  S   S112      1.0  0.86340  0.59965  0.50810  1.0000
  H   H891      1.0  0.70924  0.70566  0.54623  1.0000
  C   C501      1.0  0.66490  0.79501  0.48692  1.0000
  H   H892      1.0  0.59267  0.74870  0.57442  1.0000
  H   H893      1.0  0.63700  0.68432  0.55134  1.0000
  H   H894      1.0  0.63253  0.72908  0.59104  1.0000
  H   H895      1.0  0.52262  0.97786  0.46116  1.0000
  C   C502      1.0  0.69686  0.98693  0.34685  1.0000
  H   H896      1.0  0.70389  0.50949  0.52929  1.0000
  H   H897      1.0  0.63961  0.73092  0.45884  1.0000
  H   H898      1.0  0.74022  0.64594  0.50706  1.0000
  C   C503      1.0  0.53831  0.76545  0.50985  1.0000
  H   H899      1.0  0.69369  0.53087  0.39850  1.0000
  C   C504      1.0  0.77136  0.63632  0.36126  1.0000
  C   C505      1.0  0.80268  0.62130  0.37994  1.0000
  C   C506      1.0  0.53124  0.81900  0.47983  1.0000
  C   C507      1.0  0.69427  0.94925  0.34462  1.0000
  C   C508      1.0  0.73325  0.65782  0.52831  1.0000
  C   C509      1.0  0.82930  0.65131  0.38764  1.0000
  H   H900      1.0  0.71446  0.63936  0.53982  1.0000
  S   S113      1.0  0.53654  0.84235  0.44705  1.0000
  H   H901      1.0  0.67675  0.84797  0.46890  1.0000
  H   H902      1.0  0.71870  0.60439  0.38694  1.0000
  H   H903      1.0  0.60777  0.67088  0.49736  1.0000
  H   H904      1.0  0.66590  0.74758  0.54643  1.0000
  H   H905      1.0  0.59664  0.70346  0.53514  1.0000
  H   H906      1.0  0.70715  0.67634  0.35521  1.0000
  H   H907      1.0  0.75513  0.65353  0.37608  1.0000
  N   N30       1.0  0.74755  0.60892  0.34652  1.0000
  H   H908      1.0  0.79170  0.61050  0.40051  1.0000
  S   S114      1.0  0.82190  0.54314  0.57193  1.0000
  C   C510      1.0  0.72191  0.53632  0.40534  1.0000
  H   H909      1.0  0.70019  0.81126  0.45150  1.0000
  H   H910      1.0  0.77155  0.55675  0.38828  1.0000
  N   N31       1.0  0.65973  0.72763  0.50284  1.0000
  H   H911      1.0  0.53356  0.98492  0.49757  1.0000
  H   H912      1.0  0.69810  0.74988  0.47254  1.0000
  H   H913      1.0  0.84325  0.66142  0.36802  1.0000
  H   H914      1.0  0.81511  0.67423  0.39827  1.0000
  H   H915      1.0  0.81831  0.59979  0.36894  1.0000
  H   H916      1.0  0.69248  0.68648  0.48281  1.0000
  H   H917      1.0  0.71464  0.82665  0.48668  1.0000
  H   H918      1.0  0.73720  0.71309  0.51483  1.0000
  C   C511      1.0  0.81598  0.50849  0.62438  1.0000
  H   H919      1.0  0.66633  0.67018  0.51186  1.0000
  C   C512      1.0  0.99291  0.56655  0.48159  1.0000
  C   C513      1.0  0.74387  0.55200  0.38037  1.0000
  H   H920      1.0  0.64113  0.79227  0.47258  1.0000
  H   H921      1.0  0.57073  0.65711  0.45413  1.0000
  C   C514      1.0  0.71623  0.69536  0.52453  1.0000
  H   H922      1.0  0.78783  0.56681  0.33949  1.0000
  H   H923      1.0  0.96837  0.59759  0.51556  1.0000
  C   C515      1.0  0.72618  0.58712  0.36831  1.0000
  H   H924      1.0  0.84997  0.64061  0.40283  1.0000
  H   H925      1.0  0.75851  0.66000  0.54111  1.0000
  H   H926      1.0  0.73976  0.53385  0.58572  1.0000
  C   C516      1.0  0.72687  0.53871  0.56441  1.0000
  C   C517      1.0  0.57966  0.68520  0.45862  1.0000
  C   C518      1.0  0.62999  0.72290  0.48073  1.0000
  C   C519      1.0  0.64416  0.73839  0.53164  1.0000
  C   C520      1.0  0.69084  0.82176  0.47266  1.0000
  C   C521      1.0  0.69325  0.65394  0.34391  1.0000
  H   H927      1.0  0.60727  0.74162  0.48542  1.0000
  H   H928      1.0  0.72175  0.55530  0.42385  1.0000
  C   C522      1.0  0.51951  0.78247  0.53234  1.0000
  H   H929      1.0  0.62603  0.76234  0.52909  1.0000
  H   H930      1.0  0.74521  0.53098  0.36330  1.0000
  H   H931      1.0  0.70543  0.76367  0.50869  1.0000
  H   H932      1.0  0.55769  0.69946  0.47031  1.0000
  H   H933      1.0  0.71671  0.93401  0.33581  1.0000
  C   C523      1.0  0.51388  0.99316  0.48062  1.0000
  C   C524      1.0  0.99351  0.58798  0.50640  1.0000
  H   H934      1.0  0.63417  0.66706  0.46518  1.0000
  H   H935      1.0  0.58442  0.69912  0.43771  1.0000
  H   H936      1.0  0.65564  0.80727  0.50746  1.0000
  Fe  Fe57      1.0  0.82410  0.52204  0.46214  1.0000
  C   C525      1.0  0.68386  0.75803  0.49265  1.0000
  C   C526      1.0  0.68255  0.69371  0.50470  1.0000
  H   H937      1.0  0.64732  0.68887  0.33477  1.0000
  C   C527      1.0  0.51732  0.93215  0.65599  1.0000
  H   H938      1.0  0.54764  0.73794  0.51265  1.0000
  H   H939      1.0  0.70007  0.57807  0.35878  1.0000
  H   H940      1.0  0.80683  0.53450  0.63227  1.0000
  C   C528      1.0  0.50683  0.81785  0.52856  1.0000
  H   H941      1.0  0.54072  0.95105  0.65609  1.0000
  C   C529      1.0  0.76875  0.58390  0.32706  1.0000
  H   H942      1.0  0.73431  0.51041  0.41256  1.0000
  S   S115      1.0  0.51011  0.75864  0.56438  1.0000
  S   S116      1.0  0.86639  0.51202  0.49609  1.0000
  H   H943      1.0  0.53528  0.96990  0.60492  1.0000
  C   C530      1.0  0.72092  0.62947  0.32783  1.0000
  H   H944      1.0  0.72130  0.00013  0.33973  1.0000
  C   C531      1.0  0.51648  0.94677  0.60232  1.0000
  H   H945      1.0  0.79773  0.00226  0.37356  1.0000
  H   H946      1.0  0.57698  0.99938  0.44796  1.0000
  H   H947      1.0  0.61453  0.00521  0.37587  1.0000
  Fe  Fe58      1.0  0.59504  0.84771  0.87733  1.0000
  S   S117      1.0  0.54694  0.82050  0.85738  1.0000
  S   S118      1.0  0.58879  0.90426  0.89577  1.0000
  Fe  Fe59      1.0  0.63958  0.77620  0.88090  1.0000
  S   S119      1.0  0.59455  0.74412  0.86091  1.0000
  S   S120      1.0  0.69402  0.75647  0.89912  1.0000
  Fe  Fe60      1.0  0.58782  0.79130  0.83000  1.0000
  S   S121      1.0  0.58373  0.78236  0.78136  1.0000
  Fe  Fe61      1.0  0.55747  0.77635  0.88972  1.0000
  H   H948      1.0  0.56833  0.92322  0.80272  1.0000
  S   S122      1.0  0.63586  0.82157  0.84800  1.0000
  S   S123      1.0  0.60278  0.80515  0.91137  1.0000
  Fe  Fe62      1.0  0.79693  0.58200  0.97177  1.0000
  C   C532      1.0  0.82855  0.60492  0.83312  1.0000
  S   S124      1.0  0.74252  0.60704  0.95798  1.0000
  H   H949      1.0  0.85101  0.62322  0.83919  1.0000
  H   H950      1.0  0.81669  0.52038  0.89433  1.0000
  S   S125      1.0  0.84142  0.56824  0.94037  1.0000
  H   H951      1.0  0.57864  0.73647  0.97125  1.0000
  C   C533      1.0  0.73835  0.58125  0.86288  1.0000
  H   H952      1.0  0.86493  0.57109  0.80810  1.0000
  C   C534      1.0  0.64788  0.83035  0.97634  1.0000
  C   C535      1.0  0.52758  0.80135  0.95963  1.0000
  H   H953      1.0  0.71288  0.56647  0.90364  1.0000
  C   C536      1.0  0.54603  0.79261  0.75897  1.0000
  C   C537      1.0  0.54740  0.78335  0.72959  1.0000
  H   H954      1.0  0.96457  0.55469  0.88622  1.0000
  C   C538      1.0  0.51776  0.95240  0.79543  1.0000
  H   H955      1.0  0.57116  0.76985  0.72120  1.0000
  H   H956      1.0  0.54336  0.68769  0.94488  1.0000
  C   C539      1.0  0.51183  0.76817  0.95274  1.0000
  H   H957      1.0  0.78812  0.59380  0.88409  1.0000
  C   C540      1.0  0.62878  0.97736  0.83805  1.0000
  H   H958      1.0  0.53727  0.93658  0.95104  1.0000
  C   C541      1.0  0.70597  0.71545  0.91700  1.0000
  C   C542      1.0  0.74026  0.71247  0.92996  1.0000
  C   C543      1.0  0.75174  0.67985  0.94310  1.0000
  C   C544      1.0  0.72893  0.64975  0.94354  1.0000
  C   C545      1.0  0.69441  0.65291  0.93097  1.0000
  C   C546      1.0  0.68300  0.68549  0.91772  1.0000
  H   H959      1.0  0.75828  0.73548  0.92951  1.0000
  H   H960      1.0  0.77830  0.67797  0.95274  1.0000
  H   H961      1.0  0.67660  0.62974  0.93100  1.0000
  H   H962      1.0  0.65672  0.68723  0.90760  1.0000
  C   C547      1.0  0.59936  0.97728  0.89341  1.0000
  C   C548      1.0  0.60350  0.94437  0.87873  1.0000
  C   C549      1.0  0.61842  0.94442  0.85102  1.0000
  H   H963      1.0  0.58800  0.97743  0.91490  1.0000
  H   H964      1.0  0.62195  0.91912  0.83965  1.0000
  N   N32       1.0  0.77563  0.64043  0.85677  1.0000
  C   C550      1.0  0.76452  0.60936  0.87602  1.0000
  C   C551      1.0  0.80009  0.66608  0.87300  1.0000
  C   C552      1.0  0.74159  0.66086  0.84848  1.0000
  C   C553      1.0  0.79333  0.62721  0.82946  1.0000
  H   H965      1.0  0.52920  0.90224  0.81904  1.0000
  H   H966      1.0  0.62334  0.66935  0.95388  1.0000
  C   C554      1.0  0.74678  0.69872  0.83429  1.0000
  C   C555      1.0  0.82636  0.64938  0.89560  1.0000
  C   C556      1.0  0.85237  0.67776  0.90734  1.0000
  C   C557      1.0  0.57046  0.67918  0.93715  1.0000
  C   C558      1.0  0.60524  0.72244  0.96958  1.0000
  C   C559      1.0  0.71051  0.71456  0.82454  1.0000
  H   H967      1.0  0.75146  0.62030  0.89564  1.0000
  C   C560      1.0  0.72747  0.55322  0.88554  1.0000
  H   H968      1.0  0.81606  0.68284  0.85761  1.0000
  H   H969      1.0  0.78360  0.68564  0.88570  1.0000
  H   H970      1.0  0.72420  0.66517  0.86782  1.0000
  H   H971      1.0  0.72511  0.64479  0.83313  1.0000
  C   C561      1.0  0.51800  0.90315  0.70348  1.0000
  H   H972      1.0  0.80054  0.65041  0.81531  1.0000
  H   H973      1.0  0.66133  0.82349  0.95563  1.0000
  H   H974      1.0  0.56358  0.86730  0.74158  1.0000
  H   H975      1.0  0.82595  0.58351  0.84970  1.0000
  H   H976      1.0  0.57350  0.91471  0.68752  1.0000
  H   H977      1.0  0.76461  0.69731  0.81515  1.0000
  H   H978      1.0  0.75863  0.71821  0.84977  1.0000
  H   H979      1.0  0.81077  0.63873  0.91426  1.0000
  H   H980      1.0  0.84263  0.62687  0.88675  1.0000
  H   H981      1.0  0.86970  0.68866  0.88981  1.0000
  H   H982      1.0  0.83716  0.70035  0.91754  1.0000
  H   H983      1.0  0.87011  0.66517  0.92394  1.0000
  C   C562      1.0  0.57686  0.87495  0.72100  1.0000
  C   C563      1.0  0.51795  0.97580  0.82317  1.0000
  H   H984      1.0  0.71306  0.59409  0.85508  1.0000
  H   H985      1.0  0.56394  0.93151  0.72307  1.0000
  H   H986      1.0  0.70925  0.53294  0.87576  1.0000
  H   H987      1.0  0.67259  0.69734  0.98062  1.0000
  H   H988      1.0  0.71454  0.74230  0.81581  1.0000
  H   H989      1.0  0.69828  0.69761  0.80742  1.0000
  H   H990      1.0  0.69140  0.71640  0.84297  1.0000
  H   H991      1.0  0.54708  0.89052  0.96180  1.0000
  S   S126      1.0  0.51367  0.75124  0.91734  1.0000
  S   S127      1.0  0.93229  0.61045  0.96965  1.0000
  C   C564      1.0  0.59799  0.68227  0.96146  1.0000
  H   H992      1.0  0.75169  0.53917  0.89426  1.0000
  H   H993      1.0  0.53172  0.97571  0.70090  1.0000
  H   H994      1.0  0.57501  0.85186  0.70580  1.0000
  H   H995      1.0  0.81816  0.56672  0.79827  1.0000
  C   C565      1.0  0.83927  0.58632  0.80497  1.0000
  C   C566      1.0  0.51830  0.79135  0.71094  1.0000
  H   H996      1.0  0.75146  0.56669  0.84477  1.0000
  H   H997      1.0  0.84329  0.60661  0.78754  1.0000
  H   H998      1.0  0.95099  0.52260  0.91352  1.0000
  C   C567      1.0  0.51522  0.81026  0.76950  1.0000
  H   H999      1.0  0.60587  0.88016  0.72541  1.0000
  C   C568      1.0  0.53914  0.91730  0.79983  1.0000
  H   H1000     1.0  0.61836  0.73442  0.95009  1.0000
  H   H1001     1.0  0.96749  0.56644  0.92377  1.0000
  C   C569      1.0  0.55924  0.90872  0.70798  1.0000
  H   H1002     1.0  0.51974  0.78393  0.68844  1.0000
  H   H1003     1.0  0.64018  0.97733  0.81658  1.0000
  H   H1004     1.0  0.66709  0.76118  0.97284  1.0000
  H   H1005     1.0  0.77387  0.61107  0.81655  1.0000
  H   H1006     1.0  0.56872  0.65063  0.92990  1.0000
  Fe  Fe63      1.0  0.88015  0.57899  0.97679  1.0000
  C   C570      1.0  0.55107  0.91943  0.96743  1.0000
  H   H1007     1.0  0.80536  0.52304  0.84163  1.0000
  H   H1008     1.0  0.53954  0.81784  0.94292  1.0000
  H   H1009     1.0  0.54613  0.97641  0.83173  1.0000
  H   H1010     1.0  0.63027  0.85436  0.97266  1.0000
  H   H1011     1.0  0.00382  0.64095  0.97500  1.0000
  H   H1012     1.0  0.93494  0.51388  0.78451  1.0000
  C   C571      1.0  0.97080  0.54411  0.90810  1.0000
  H   H1013     1.0  0.60317  0.79399  0.97134  1.0000
  Fe  Fe64      1.0  0.83865  0.51231  0.95908  1.0000
  H   H1014     1.0  0.58048  0.92526  0.96638  1.0000
  H   H1015     1.0  0.53599  0.89960  0.78074  1.0000
  H   H1016     1.0  0.57845  0.69625  0.91845  1.0000
  H   H1017     1.0  0.90888  0.50780  0.66294  1.0000
  H   H1018     1.0  0.52940  0.96671  0.77667  1.0000
  C   C572      1.0  0.62502  0.79864  0.98706  1.0000
  H   H1019     1.0  0.51983  0.98753  0.87965  1.0000
  C   C573      1.0  0.97435  0.59101  0.97967  1.0000
  H   H1020     1.0  0.51379  0.81762  0.79200  1.0000
  S   S128      1.0  0.79206  0.52466  0.98877  1.0000
  C   C574      1.0  0.97714  0.55426  0.98651  1.0000
  H   H1021     1.0  0.95376  0.53715  0.98475  1.0000
  H   H1022     1.0  0.58786  0.66618  0.97988  1.0000
  C   C575      1.0  0.00562  0.61252  0.98059  1.0000
  H   H1023     1.0  0.51377  0.87576  0.69392  1.0000
  C   C576      1.0  0.52800  0.81333  0.98825  1.0000
  H   H1024     1.0  0.50632  0.90175  0.72551  1.0000
