data_image0
_chemical_formula_structural       CFeHS2HC3H3CH3SH2FeC4SH2FeHC2HSNC2HCHCHCHCH4CH2FeH2CSHCH3C3H5CHC3SHSHC3H2CHC2HNHC2H3C2FeH3CH4CH5FeH4CHSHCHC2H4CH4SC2HCHCFeCH2CFeS2FeS2HC2HC6H3CH3CHCH3C2H3CH4CH8CHCFeH3SCH3C2H5NC2HSHSHC2H4NH3CH2SH2CHFeS2FeS2HNH2CHS2H3C6H3CHCH3CHCH3CH3CHNC2HC3HC2HCH3C2H13C2HFeHSFeH3C2HSCHCHCH2C2FeC2HSH4C5H2CSHSH8CHFeCH7CHSHCH2CHCNCHCSHCHCHCH2C2HFeHSHCHSC2H2C2H2CHCHFeCH2CHSCHCH2CHSCFeHFeHSC2H3SH3C2HCH3CNCHCH2SH2CHCNHCH3CH3C2HCH6CH3CSH2CH4SH3CHCH2CH2CH3SCHNC2H2CH3C2H2SCH3C2H3FeC5H9C2HCFeH2SCH2NH4SCHFeS2CHSH3CHCSCHC6H4FeHCSH4CHC2HSCFeHSHC2H2C2H6C2H5CH3FeH7C4H2C3H3NH2CHCH6CHCHCH4C2H5SH6FeS2H2C2H3C6H4CHCHC3HCHCH5C2H3FeCH3C2HCFe2CH4CH2CH2CHCH3CSH3CSHCSNSH2C2HCHC2H2SH3NHC3H7CH3SH2CNSCFeHFeH4C6H5CH5C4H6C2HCSH2SHNHC3H3CHCH2CH2CH5C2H4SCH6CH2CH3C2H3C
_chemical_formula_sum              "C288 Fe32 H512 S64 N16"
_cell_length_a       34.948
_cell_length_b       35.0079
_cell_length_c       24.88
_cell_angle_alpha    90.2216
_cell_angle_beta     90.0466
_cell_angle_gamma    90.1023

_space_group_name_H-M_alt    "P 1"
_space_group_IT_number       1

loop_
  _space_group_symop_operation_xyz
  'x, y, z'

loop_
  _atom_site_type_symbol
  _atom_site_label
  _atom_site_symmetry_multiplicity
  _atom_site_fract_x
  _atom_site_fract_y
  _atom_site_fract_z
  _atom_site_occupancy
  C   C1        1.0  0.43966  0.08984  0.16063  1.0000
  Fe  Fe1       1.0  0.45845  0.20591  0.07683  1.0000
  H   H1        1.0  0.37515  0.15386  0.38980  1.0000
  S   S1        1.0  0.39661  0.18848  0.07950  1.0000
  S   S2        1.0  0.43550  0.22543  0.38497  1.0000
  H   H2        1.0  0.33603  0.28870  0.19124  1.0000
  C   C2        1.0  0.44244  0.22468  0.22241  1.0000
  C   C3        1.0  0.42900  0.22860  0.27540  1.0000
  C   C4        1.0  0.45257  0.21920  0.31904  1.0000
  H   H3        1.0  0.42441  0.23265  0.18891  1.0000
  H   H4        1.0  0.40046  0.23939  0.28257  1.0000
  H   H5        1.0  0.29175  0.26211  0.19864  1.0000
  C   C5        1.0  0.30118  0.30172  0.01248  1.0000
  H   H6        1.0  0.33621  0.14115  0.34552  1.0000
  H   H7        1.0  0.37979  0.10295  0.28887  1.0000
  H   H8        1.0  0.37511  0.16998  0.32082  1.0000
  S   S3        1.0  0.47489  0.16313  0.01392  1.0000
  H   H9        1.0  0.37878  0.08622  0.35726  1.0000
  H   H10       1.0  0.44039  0.14154  0.31342  1.0000
  Fe  Fe2       1.0  0.47727  0.21935  0.45368  1.0000
  C   C6        1.0  0.28635  0.31507  0.15326  1.0000
  C   C7        1.0  0.47964  0.21167  0.21302  1.0000
  C   C8        1.0  0.44834  0.10444  0.21736  1.0000
  C   C9        1.0  0.30902  0.28002  0.17098  1.0000
  S   S4        1.0  0.39897  0.08392  0.00766  1.0000
  H   H11       1.0  0.46785  0.04939  0.24391  1.0000
  H   H12       1.0  0.43849  0.12153  0.37829  1.0000
  Fe  Fe3       1.0  0.41308  0.14772  0.01227  1.0000
  H   H13       1.0  0.26047  0.30474  0.13184  1.0000
  C   C10       1.0  0.44736  0.07131  0.25884  1.0000
  C   C11       1.0  0.47206  0.05484  0.02843  1.0000
  H   H14       1.0  0.44111  0.11391  0.13170  1.0000
  S   S5        1.0  0.44946  0.25214  0.01606  1.0000
  N   N1        1.0  0.45676  0.08205  0.31622  1.0000
  C   C12       1.0  0.36759  0.14590  0.34781  1.0000
  C   C13       1.0  0.43258  0.11507  0.33525  1.0000
  H   H15       1.0  0.45106  0.05645  0.39510  1.0000
  C   C14       1.0  0.43366  0.04702  0.01629  1.0000
  H   H16       1.0  0.41901  0.03810  0.34651  1.0000
  C   C15       1.0  0.38864  0.10962  0.33067  1.0000
  H   H17       1.0  0.31653  0.26253  0.13511  1.0000
  C   C16       1.0  0.48918  0.20478  0.30946  1.0000
  H   H18       1.0  0.46095  0.06803  0.14807  1.0000
  C   C17       1.0  0.44898  0.04815  0.35190  1.0000
  H   H19       1.0  0.42683  0.12670  0.22702  1.0000
  H   H20       1.0  0.41881  0.05725  0.25628  1.0000
  H   H21       1.0  0.45034  0.30687  0.34791  1.0000
  H   H22       1.0  0.13893  0.29751  0.18213  1.0000
  C   C18       1.0  0.42243  0.00869  0.01000  1.0000
  H   H23       1.0  0.41051  0.07721  0.15850  1.0000
  H   H24       1.0  0.45897  0.32399  0.41518  1.0000
  Fe  Fe4       1.0  0.38767  0.23270  0.01415  1.0000
  H   H25       1.0  0.47694  0.11819  0.21612  1.0000
  H   H26       1.0  0.20850  0.30391  0.19530  1.0000
  C   C19       1.0  0.27049  0.27604  0.01134  1.0000
  S   S6        1.0  0.34984  0.28673  0.01394  1.0000
  H   H27       1.0  0.48137  0.08397  0.03381  1.0000
  C   C20       1.0  0.47002  0.32418  0.37333  1.0000
  H   H28       1.0  0.27602  0.24563  0.01109  1.0000
  H   H29       1.0  0.46955  0.00050  0.30161  1.0000
  H   H30       1.0  0.20896  0.26959  0.01044  1.0000
  C   C21       1.0  0.23248  0.28974  0.01099  1.0000
  C   C22       1.0  0.47458  0.01258  0.34232  1.0000
  C   C23       1.0  0.15513  0.31990  0.16028  1.0000
  H   H31       1.0  0.16271  0.30852  0.11992  1.0000
  H   H32       1.0  0.26330  0.32318  0.23411  1.0000
  H   H33       1.0  0.45209  0.10262  0.50262  1.0000
  H   H34       1.0  0.36912  0.16018  0.54515  1.0000
  H   H35       1.0  0.16382  0.31783  0.83095  1.0000
  C   C24       1.0  0.49312  0.12006  0.66484  1.0000
  H   H36       1.0  0.36293  0.08212  0.67734  1.0000
  C   C25       1.0  0.40123  0.03734  0.70323  1.0000
  C   C26       1.0  0.46029  0.09027  0.66701  1.0000
  C   C27       1.0  0.41874  0.12462  0.73061  1.0000
  S   S7        1.0  0.39810  0.19013  0.94677  1.0000
  H   H37       1.0  0.47556  0.04481  0.79718  1.0000
  S   S8        1.0  0.44460  0.24365  0.64677  1.0000
  H   H38       1.0  0.46783  0.07007  0.69974  1.0000
  C   C28       1.0  0.44816  0.23493  0.80900  1.0000
  C   C29       1.0  0.43613  0.24226  0.75609  1.0000
  C   C30       1.0  0.46015  0.23384  0.71249  1.0000
  H   H39       1.0  0.42968  0.24161  0.84259  1.0000
  H   H40       1.0  0.40820  0.25453  0.74897  1.0000
  C   C31       1.0  0.45912  0.07396  0.51461  1.0000
  H   H41       1.0  0.37119  0.17416  0.66732  1.0000
  C   C32       1.0  0.37945  0.12465  0.75977  1.0000
  C   C33       1.0  0.39270  0.07318  0.66884  1.0000
  H   H42       1.0  0.41729  0.12142  0.59181  1.0000
  N   N2        1.0  0.42046  0.10598  0.67562  1.0000
  H   H43       1.0  0.39221  0.06344  0.62604  1.0000
  C   C34       1.0  0.35879  0.29256  0.85907  1.0000
  C   C35       1.0  0.43824  0.00854  0.53320  1.0000
  H   H44       1.0  0.40372  0.14302  0.83669  1.0000
  H   H45       1.0  0.49033  0.14134  0.69759  1.0000
  H   H46       1.0  0.43385  0.15887  0.63451  1.0000
  C   C36       1.0  0.38011  0.15092  0.80898  1.0000
  C   C37       1.0  0.36706  0.01006  0.70446  1.0000
  Fe  Fe5       1.0  0.48197  0.22671  0.57651  1.0000
  H   H47       1.0  0.40873  0.04533  0.74507  1.0000
  H   H48       1.0  0.42888  0.15479  0.72819  1.0000
  H   H49       1.0  0.34955  0.13342  0.63396  1.0000
  C   C38       1.0  0.36706  0.17828  0.58181  1.0000
  H   H50       1.0  0.37230  0.09550  0.77396  1.0000
  H   H51       1.0  0.35034  0.26955  0.83055  1.0000
  H   H52       1.0  0.35586  0.13418  0.73344  1.0000
  H   H53       1.0  0.49276  0.13513  0.62563  1.0000
  C   C39       1.0  0.41298  0.13492  0.63201  1.0000
  H   H54       1.0  0.38855  0.20160  0.57948  1.0000
  H   H55       1.0  0.48690  0.00391  0.90584  1.0000
  H   H56       1.0  0.42571  0.02146  0.68556  1.0000
  H   H57       1.0  0.34168  0.02427  0.72239  1.0000
  H   H58       1.0  0.35265  0.14850  0.83118  1.0000
  Fe  Fe6       1.0  0.45978  0.20746  0.95302  1.0000
  H   H59       1.0  0.38385  0.18112  0.79654  1.0000
  H   H60       1.0  0.43907  0.11072  0.75891  1.0000
  H   H61       1.0  0.46155  0.07326  0.62910  1.0000
  H   H62       1.0  0.29891  0.31285  0.79561  1.0000
  C   C40       1.0  0.37323  0.15441  0.63240  1.0000
  H   H63       1.0  0.33821  0.19149  0.58293  1.0000
  S   S9        1.0  0.46150  0.18051  0.52115  1.0000
  H   H64       1.0  0.45665  0.09871  0.85471  1.0000
  C   C41       1.0  0.32438  0.31751  0.87360  1.0000
  H   H65       1.0  0.37029  0.27895  0.89598  1.0000
  C   C42       1.0  0.46658  0.03833  0.83900  1.0000
  C   C43       1.0  0.48452  0.21978  0.81837  1.0000
  H   H66       1.0  0.40049  0.05451  0.51132  1.0000
  H   H67       1.0  0.43558  0.03200  0.83867  1.0000
  H   H68       1.0  0.23535  0.31561  0.82487  1.0000
  H   H69       1.0  0.39289  0.00211  0.00070  1.0000
  C   C44       1.0  0.42984  0.04644  0.51913  1.0000
  H   H70       1.0  0.35998  0.00018  0.66307  1.0000
  H   H71       1.0  0.17582  0.31374  0.90148  1.0000
  H   H72       1.0  0.30298  0.29869  0.89310  1.0000
  H   H73       1.0  0.38196  0.31003  0.84093  1.0000
  S   S10       1.0  0.49142  0.26780  0.50915  1.0000
  C   C45       1.0  0.47640  0.99845  0.54265  1.0000
  C   C46       1.0  0.47274  0.07457  0.87245  1.0000
  H   H74       1.0  0.46222  0.07036  0.91407  1.0000
  C   C47       1.0  0.49065  0.00463  0.86127  1.0000
  H   H75       1.0  0.24758  0.32753  0.89154  1.0000
  C   C48       1.0  0.49606  0.21783  0.72191  1.0000
  Fe  Fe7       1.0  0.15253  0.40564  0.02075  1.0000
  C   C49       1.0  0.25332  0.44031  0.14113  1.0000
  H   H76       1.0  0.11572  0.62926  0.28611  1.0000
  H   H77       1.0  0.20359  0.53919  0.34222  1.0000
  C   C50       1.0  0.29329  0.34117  0.01279  1.0000
  Fe  Fe8       1.0  0.16966  0.52005  0.46536  1.0000
  S   S11       1.0  0.16704  0.47589  0.39831  1.0000
  S   S12       1.0  0.15331  0.58207  0.46166  1.0000
  Fe  Fe9       1.0  0.15412  0.47941  0.08516  1.0000
  S   S13       1.0  0.12298  0.42403  0.09728  1.0000
  S   S14       1.0  0.18335  0.51429  0.15030  1.0000
  H   H78       1.0  0.20963  0.55326  0.24467  1.0000
  C   C51       1.0  0.21398  0.36249  0.16297  1.0000
  C   C52       1.0  0.04133  0.47388  0.38971  1.0000
  H   H79       1.0  0.14591  0.45171  0.20670  1.0000
  C   C53       1.0  0.17141  0.48745  0.32969  1.0000
  C   C54       1.0  0.15550  0.46267  0.29115  1.0000
  C   C55       1.0  0.15842  0.47086  0.23602  1.0000
  C   C56       1.0  0.17801  0.50350  0.21906  1.0000
  C   C57       1.0  0.19432  0.52803  0.25759  1.0000
  C   C58       1.0  0.19088  0.52017  0.31279  1.0000
  H   H80       1.0  0.14068  0.43714  0.30405  1.0000
  H   H81       1.0  0.06900  0.52667  0.41422  1.0000
  H   H82       1.0  0.07689  0.45989  0.45919  1.0000
  C   C59       1.0  0.25532  0.35483  0.01265  1.0000
  H   H83       1.0  0.05437  0.59415  0.30639  1.0000
  H   H84       1.0  0.00376  0.59342  0.39269  1.0000
  H   H85       1.0  0.03524  0.48919  0.27705  1.0000
  C   C60       1.0  0.22467  0.32918  0.01195  1.0000
  H   H86       1.0  0.30453  0.33092  0.12441  1.0000
  C   C61       1.0  0.27203  0.40085  0.15141  1.0000
  H   H87       1.0  0.02526  0.52735  0.04933  1.0000
  H   H88       1.0  0.24764  0.46293  0.30386  1.0000
  H   H89       1.0  0.04669  0.42154  0.43572  1.0000
  C   C62       1.0  0.27592  0.46302  0.09947  1.0000
  C   C63       1.0  0.06497  0.44581  0.42286  1.0000
  H   H90       1.0  0.09385  0.50101  0.36467  1.0000
  H   H91       1.0  0.03182  0.45856  0.35304  1.0000
  H   H92       1.0  0.08905  0.43437  0.39852  1.0000
  C   C64       1.0  0.26227  0.43715  0.31943  1.0000
  H   H93       1.0  0.30198  0.40571  0.16508  1.0000
  H   H94       1.0  0.03609  0.48936  0.17488  1.0000
  H   H95       1.0  0.22700  0.37522  0.26971  1.0000
  H   H96       1.0  0.21909  0.35318  0.12081  1.0000
  C   C65       1.0  0.27615  0.34105  0.20187  1.0000
  H   H97       1.0  0.29408  0.43036  0.24679  1.0000
  H   H98       1.0  0.11731  0.55849  0.28066  1.0000
  H   H99       1.0  0.25239  0.45773  0.17846  1.0000
  H   H100      1.0  0.01552  0.48159  0.41337  1.0000
  H   H101      1.0  0.27681  0.44742  0.06055  1.0000
  H   H102      1.0  0.26176  0.49101  0.09280  1.0000
  H   H103      1.0  0.28720  0.44664  0.34379  1.0000
  H   H104      1.0  0.12518  0.62699  0.35773  1.0000
  C   C66       1.0  0.27581  0.41224  0.27266  1.0000
  H   H105      1.0  0.18231  0.33957  0.23245  1.0000
  C   C67       1.0  0.04464  0.53863  0.22804  1.0000
  Fe  Fe10      1.0  0.07732  0.44950  0.04411  1.0000
  H   H106      1.0  0.24231  0.42120  0.34595  1.0000
  H   H107      1.0  0.04813  0.53329  0.14136  1.0000
  H   H108      1.0  0.22004  0.41811  0.23423  1.0000
  S   S15       1.0  0.01330  0.44482  0.06105  1.0000
  C   C68       1.0  0.24135  0.39508  0.24136  1.0000
  H   H109      1.0  0.27501  0.38687  0.11150  1.0000
  H   H110      1.0  0.12713  0.55583  0.35164  1.0000
  H   H111      1.0  0.00234  0.42206  0.23328  1.0000
  C   C69       1.0  0.06463  0.51039  0.37609  1.0000
  C   C70       1.0  0.11181  0.57208  0.32019  1.0000
  H   H112      1.0  0.30401  0.35090  0.21864  1.0000
  H   H113      1.0  0.08335  0.50414  0.27550  1.0000
  H   H114      1.0  0.16030  0.61004  0.31035  1.0000
  H   H115      1.0  0.13636  0.34523  0.15543  1.0000
  H   H116      1.0  0.06673  0.58643  0.37444  1.0000
  N   N3        1.0  0.04817  0.53540  0.33247  1.0000
  C   C71       1.0  0.05357  0.51512  0.27927  1.0000
  C   C72       1.0  0.06861  0.57338  0.33360  1.0000
  H   H117      1.0  0.22373  0.43703  0.12571  1.0000
  S   S16       1.0  0.17631  0.34497  0.01281  1.0000
  H   H118      1.0  0.06192  0.56518  0.22633  1.0000
  S   S17       1.0  0.10662  0.50599  0.03772  1.0000
  H   H119      1.0  0.30557  0.46834  0.11377  1.0000
  C   C73       1.0  0.05393  0.51562  0.17735  1.0000
  C   C74       1.0  0.12913  0.61216  0.31857  1.0000
  H   H120      1.0  0.19408  0.38714  0.15949  1.0000
  H   H121      1.0  0.31680  0.36132  0.01367  1.0000
  H   H122      1.0  0.29371  0.38905  0.28966  1.0000
  H   H123      1.0  0.08468  0.50752  0.17660  1.0000
  N   N4        1.0  0.25091  0.37482  0.18948  1.0000
  H   H124      1.0  0.47029  0.35410  0.35869  1.0000
  H   H125      1.0  0.25770  0.64041  0.36726  1.0000
  H   H126      1.0  0.24973  0.38518  0.01335  1.0000
  C   C75       1.0  0.00604  0.54229  0.34112  1.0000
  H   H127      1.0  0.01391  0.54641  0.22631  1.0000
  H   H128      1.0  0.01059  0.54995  0.42919  1.0000
  S   S18       1.0  0.18643  0.45990  0.01155  1.0000
  H   H129      1.0  0.99924  0.39975  0.16811  1.0000
  H   H130      1.0  0.21321  0.66105  0.34508  1.0000
  C   C76       1.0  0.19129  0.33035  0.19169  1.0000
  H   H131      1.0  0.05577  0.53075  0.63634  1.0000
  Fe  Fe11      1.0  0.17724  0.52155  0.58915  1.0000
  S   S19       1.0  0.19125  0.48107  0.65779  1.0000
  S   S20       1.0  0.16108  0.58358  0.59428  1.0000
  Fe  Fe12      1.0  0.13547  0.48116  0.96487  1.0000
  S   S21       1.0  0.10351  0.42561  0.96845  1.0000
  S   S22       1.0  0.13378  0.52080  0.89321  1.0000
  H   H132      1.0  0.18482  0.43531  0.75310  1.0000
  N   N5        1.0  0.27412  0.36371  0.83172  1.0000
  H   H133      1.0  0.16330  0.45021  0.84624  1.0000
  H   H134      1.0  0.30761  0.46138  0.92402  1.0000
  C   C77       1.0  0.05335  0.55838  0.71474  1.0000
  H   H135      1.0  0.06443  0.55421  0.75611  1.0000
  S   S23       1.0  0.12956  0.50614  0.53283  1.0000
  S   S24       1.0  0.21881  0.52994  0.52161  1.0000
  H   H136      1.0  0.13980  0.56547  0.79822  1.0000
  H   H137      1.0  0.33122  0.35202  0.80207  1.0000
  H   H138      1.0  0.09562  0.42049  0.81297  1.0000
  C   C78       1.0  0.17529  0.49217  0.72326  1.0000
  C   C79       1.0  0.16235  0.52877  0.73618  1.0000
  C   C80       1.0  0.14967  0.53699  0.78848  1.0000
  C   C81       1.0  0.15023  0.50883  0.82845  1.0000
  C   C82       1.0  0.16313  0.47211  0.81569  1.0000
  C   C83       1.0  0.17548  0.46381  0.76309  1.0000
  H   H139      1.0  0.16252  0.55088  0.70602  1.0000
  H   H140      1.0  0.23610  0.35929  0.64792  1.0000
  H   H141      1.0  0.11334  0.47123  0.63553  1.0000
  C   C84       1.0  0.27622  0.45687  0.92073  1.0000
  H   H142      1.0  0.28259  0.38162  0.91423  1.0000
  C   C85       1.0  0.20260  0.36203  0.86068  1.0000
  H   H143      1.0  0.31748  0.39951  0.86919  1.0000
  H   H144      1.0  0.06081  0.60161  0.65277  1.0000
  H   H145      1.0  0.01044  0.48266  0.94415  1.0000
  C   C86       1.0  0.07221  0.59459  0.69316  1.0000
  H   H146      1.0  0.29133  0.39896  0.76488  1.0000
  C   C87       1.0  0.25104  0.65779  0.66698  1.0000
  H   H147      1.0  0.13436  0.40908  0.60299  1.0000
  H   H148      1.0  0.26994  0.39547  0.66820  1.0000
  H   H149      1.0  0.06608  0.61895  0.72052  1.0000
  C   C88       1.0  0.10319  0.41498  0.60604  1.0000
  H   H150      1.0  0.33428  0.33893  0.90352  1.0000
  H   H151      1.0  0.10371  0.59101  0.69064  1.0000
  H   H152      1.0  0.09286  0.42438  0.56597  1.0000
  C   C89       1.0  0.01406  0.55159  0.54044  1.0000
  H   H153      1.0  0.08830  0.38818  0.61755  1.0000
  N   N6        1.0  0.04304  0.48621  0.69394  1.0000
  C   C90       1.0  0.26659  0.43299  0.87098  1.0000
  C   C91       1.0  0.30735  0.33677  0.82269  1.0000
  H   H154      1.0  0.19504  0.38049  0.82628  1.0000
  C   C92       1.0  0.28630  0.39322  0.87303  1.0000
  C   C93       1.0  0.04315  0.43633  0.77115  1.0000
  C   C94       1.0  0.05357  0.45656  0.65222  1.0000
  H   H155      1.0  0.04770  0.41283  0.74197  1.0000
  C   C95       1.0  0.06267  0.52318  0.67873  1.0000
  C   C96       1.0  0.05676  0.47534  0.74933  1.0000
  H   H156      1.0  0.05273  0.39948  0.84006  1.0000
  C   C97       1.0  0.09650  0.44616  0.64814  1.0000
  H   H157      1.0  0.26205  0.48519  0.91783  1.0000
  H   H158      1.0  0.01232  0.43793  0.78154  1.0000
  H   H159      1.0  0.03827  0.42926  0.65892  1.0000
  C   C98       1.0  0.06501  0.42586  0.82233  1.0000
  C   C99       1.0  0.24071  0.34046  0.85190  1.0000
  H   H160      1.0  0.02212  0.56374  0.71691  1.0000
  H   H161      1.0  0.20462  0.37972  0.89776  1.0000
  H   H162      1.0  0.22648  0.34025  0.74265  1.0000
  H   H163      1.0  0.25038  0.62622  0.66215  1.0000
  H   H164      1.0  0.04414  0.46630  0.61183  1.0000
  H   H165      1.0  0.01603  0.50677  0.88100  1.0000
  H   H166      1.0  0.09425  0.52013  0.68014  1.0000
  H   H167      1.0  0.08860  0.47632  0.75116  1.0000
  H   H168      1.0  0.04732  0.49674  0.77963  1.0000
  H   H169      1.0  0.04848  0.50298  0.52029  1.0000
  H   H170      1.0  0.23510  0.43088  0.86831  1.0000
  H   H171      1.0  0.06327  0.44917  0.85267  1.0000
  H   H172      1.0  0.10781  0.43564  0.68702  1.0000
  C   C100      1.0  0.26563  0.38278  0.77862  1.0000
  C   C101      1.0  0.00023  0.49330  0.69335  1.0000
  H   H173      1.0  0.27676  0.44908  0.83527  1.0000
  Fe  Fe13      1.0  0.11549  0.56819  0.53287  1.0000
  H   H174      1.0  0.24292  0.40461  0.78267  1.0000
  S   S25       1.0  0.05239  0.58515  0.53915  1.0000
  Fe  Fe14      1.0  0.20048  0.59188  0.52304  1.0000
  H   H175      1.0  0.22030  0.39913  0.68786  1.0000
  H   H176      1.0  0.26571  0.44252  0.95759  1.0000
  H   H177      1.0  0.30910  0.65967  0.63989  1.0000
  C   C102      1.0  0.24433  0.37900  0.68106  1.0000
  C   C103      1.0  0.25288  0.35611  0.73191  1.0000
  H   H178      1.0  0.14313  0.35019  0.87949  1.0000
  S   S26       1.0  0.25430  0.62994  0.51916  1.0000
  C   C104      1.0  0.99646  0.48846  0.90492  1.0000
  H   H179      1.0  0.27563  0.33537  0.72136  1.0000
  C   C105      1.0  0.02002  0.51296  0.52893  1.0000
  H   H180      1.0  0.30348  0.65828  0.71148  1.0000
  C   C106      1.0  0.16941  0.33412  0.86854  1.0000
  H   H181      1.0  0.47566  0.33254  0.59625  1.0000
  H   H182      1.0  0.28559  0.77542  0.40997  1.0000
  C   C107      1.0  0.44900  0.97867  0.01592  1.0000
  C   C108      1.0  0.48736  0.98647  0.02821  1.0000
  Fe  Fe15      1.0  0.44184  0.84678  0.46699  1.0000
  C   C109      1.0  0.47930  0.83030  0.23558  1.0000
  C   C110      1.0  0.35742  0.74487  0.39121  1.0000
  H   H183      1.0  0.30778  0.87732  0.36867  1.0000
  S   S27       1.0  0.42639  0.80652  0.16014  1.0000
  H   H184      1.0  0.33696  0.81893  0.32993  1.0000
  H   H185      1.0  0.31685  0.68138  0.36585  1.0000
  H   H186      1.0  0.32137  0.71821  0.19084  1.0000
  H   H187      1.0  0.35095  0.76077  0.19253  1.0000
  C   C111      1.0  0.29973  0.70768  0.37267  1.0000
  C   C112      1.0  0.46555  0.83345  0.33151  1.0000
  C   C113      1.0  0.44134  0.82013  0.22510  1.0000
  C   C114      1.0  0.41510  0.81867  0.26766  1.0000
  C   C115      1.0  0.42709  0.82572  0.32077  1.0000
  H   H188      1.0  0.38546  0.81238  0.25918  1.0000
  H   H189      1.0  0.40691  0.82482  0.35353  1.0000
  C   C116      1.0  0.29146  0.85006  0.36860  1.0000
  S   S28       1.0  0.46978  0.78250  0.02014  1.0000
  H   H190      1.0  0.27230  0.84964  0.33296  1.0000
  S   S29       1.0  0.44482  0.87111  0.03484  1.0000
  H   H191      1.0  0.23199  0.67321  0.41031  1.0000
  H   H192      1.0  0.34968  0.75131  0.43358  1.0000
  H   H193      1.0  0.30239  0.76335  0.16874  1.0000
  H   H194      1.0  0.45340  0.69758  0.05974  1.0000
  H   H195      1.0  0.43732  0.74062  0.39580  1.0000
  H   H196      1.0  0.29367  0.70871  0.41658  1.0000
  H   H197      1.0  0.43506  0.97264  0.38082  1.0000
  H   H198      1.0  0.44752  0.67537  0.12448  1.0000
  C   C117      1.0  0.38337  0.70895  0.39112  1.0000
  H   H199      1.0  0.27399  0.84891  0.40590  1.0000
  Fe  Fe16      1.0  0.46285  0.82348  0.08888  1.0000
  C   C118      1.0  0.31931  0.81652  0.36671  1.0000
  H   H200      1.0  0.36976  0.68563  0.41454  1.0000
  H   H201      1.0  0.44021  0.69133  0.41612  1.0000
  H   H202      1.0  0.38868  0.69868  0.34954  1.0000
  H   H203      1.0  0.41809  0.72578  0.46005  1.0000
  H   H204      1.0  0.37587  0.76905  0.37848  1.0000
  H   H205      1.0  0.43962  0.94954  0.01105  1.0000
  H   H206      1.0  0.44155  0.72650  0.11732  1.0000
  C   C119      1.0  0.42209  0.71734  0.41736  1.0000
  H   H207      1.0  0.30682  0.78981  0.25973  1.0000
  S   S30       1.0  0.48268  0.83703  0.39785  1.0000
  H   H208      1.0  0.33848  0.81942  0.40211  1.0000
  C   C120      1.0  0.45819  0.70126  0.10360  1.0000
  H   H209      1.0  0.33918  0.70993  0.28660  1.0000
  H   H210      1.0  0.36261  0.75426  0.29227  1.0000
  C   C121      1.0  0.32150  0.74948  0.19853  1.0000
  H   H211      1.0  0.27275  0.77951  0.34195  1.0000
  C   C122      1.0  0.29797  0.77767  0.36881  1.0000
  N   N7        1.0  0.32194  0.74284  0.35642  1.0000
  C   C123      1.0  0.30745  0.75827  0.25543  1.0000
  H   H212      1.0  0.27771  0.74773  0.25896  1.0000
  C   C124      1.0  0.33428  0.74031  0.29819  1.0000
  S   S31       1.0  0.38536  0.87714  0.46358  1.0000
  H   H213      1.0  0.24217  0.72541  0.34509  1.0000
  C   C125      1.0  0.26142  0.70035  0.34310  1.0000
  H   H214      1.0  0.26699  0.69286  0.30045  1.0000
  C   C126      1.0  0.49147  0.83646  0.28874  1.0000
  H   H215      1.0  0.48350  0.95569  0.37474  1.0000
  C   C127      1.0  0.46564  0.98125  0.38313  1.0000
  H   H216      1.0  0.47209  0.99131  0.42454  1.0000
  H   H217      1.0  0.49005  0.73649  0.18883  1.0000
  C   C128      1.0  0.23991  0.66669  0.36803  1.0000
  C   C129      1.0  0.46617  0.92977  0.74858  1.0000
  H   H218      1.0  0.35929  0.78924  0.68701  1.0000
  Fe  Fe17      1.0  0.43882  0.83928  0.58872  1.0000
  H   H219      1.0  0.40225  0.75018  0.85422  1.0000
  S   S32       1.0  0.38242  0.86949  0.59460  1.0000
  H   H220      1.0  0.33725  0.69604  0.76107  1.0000
  C   C130      1.0  0.45823  0.82361  0.72422  1.0000
  H   H221      1.0  0.38084  0.77208  0.76491  1.0000
  S   S33       1.0  0.40000  0.97550  0.54095  1.0000
  C   C131      1.0  0.40950  0.84198  0.78872  1.0000
  C   C132      1.0  0.42194  0.83835  0.73527  1.0000
  H   H222      1.0  0.38106  0.85260  0.79708  1.0000
  H   H223      1.0  0.40326  0.84640  0.70272  1.0000
  C   C133      1.0  0.43179  0.71100  0.62201  1.0000
  C   C134      1.0  0.41333  0.96154  0.87008  1.0000
  H   H224      1.0  0.31341  0.73925  0.77384  1.0000
  H   H225      1.0  0.49169  0.91104  0.74970  1.0000
  C   C135      1.0  0.40113  0.73610  0.64780  1.0000
  H   H226      1.0  0.37257  0.68584  0.68062  1.0000
  C   C136      1.0  0.43346  0.83126  0.83131  1.0000
  H   H227      1.0  0.48335  0.96940  0.55355  1.0000
  Fe  Fe18      1.0  0.36560  0.83278  0.52358  1.0000
  C   C137      1.0  0.25294  0.74707  0.52032  1.0000
  H   H228      1.0  0.27185  0.72565  0.70338  1.0000
  H   H229      1.0  0.35645  0.94902  0.90038  1.0000
  C   C138      1.0  0.30006  0.79899  0.70416  1.0000
  H   H230      1.0  0.29913  0.84266  0.64178  1.0000
  S   S34       1.0  0.41597  0.83366  0.89740  1.0000
  C   C139      1.0  0.38454  0.93454  0.89632  1.0000
  H   H231      1.0  0.32860  0.77788  0.63283  1.0000
  C   C140      1.0  0.29238  0.67131  0.67414  1.0000
  H   H232      1.0  0.47969  0.95281  0.66912  1.0000
  H   H233      1.0  0.41368  0.74957  0.68402  1.0000
  C   C141      1.0  0.47326  0.96813  0.77859  1.0000
  H   H234      1.0  0.39437  0.92596  0.93701  1.0000
  S   S35       1.0  0.42079  0.80011  0.52139  1.0000
  C   C142      1.0  0.33190  0.77480  0.67723  1.0000
  Fe  Fe19      1.0  0.40760  0.91079  0.53466  1.0000
  H   H235      1.0  0.42906  0.95123  0.68471  1.0000
  Fe  Fe20      1.0  0.45826  0.83200  0.96605  1.0000
  H   H236      1.0  0.42107  0.69826  0.58389  1.0000
  S   S36       1.0  0.46510  0.88295  0.53428  1.0000
  C   C143      1.0  0.26750  0.67905  0.52205  1.0000
  C   C144      1.0  0.29476  0.71572  0.67562  1.0000
  H   H237      1.0  0.27122  0.78833  0.69297  1.0000
  H   H238      1.0  0.39993  0.72422  0.76317  1.0000
  H   H239      1.0  0.45426  0.90811  0.66843  1.0000
  S   S37       1.0  0.30592  0.80545  0.52017  1.0000
  H   H240      1.0  0.38059  0.90853  0.87123  1.0000
  H   H241      1.0  0.44055  0.68792  0.64992  1.0000
  H   H242      1.0  0.45736  0.72873  0.61277  1.0000
  C   C145      1.0  0.47018  0.81756  0.82037  1.0000
  C   C146      1.0  0.48240  0.81349  0.76687  1.0000
  H   H243      1.0  0.45166  0.91368  0.85523  1.0000
  C   C147      1.0  0.36422  0.71286  0.66023  1.0000
  H   H244      1.0  0.39454  0.75925  0.61887  1.0000
  H   H245      1.0  0.35186  0.76033  0.85341  1.0000
  H   H246      1.0  0.33013  0.85352  0.69828  1.0000
  C   C148      1.0  0.37548  0.74216  0.77631  1.0000
  N   N8        1.0  0.48374  0.96526  0.83742  1.0000
  C   C149      1.0  0.45384  0.94387  0.86914  1.0000
  H   H247      1.0  0.28616  0.72581  0.63489  1.0000
  C   C150      1.0  0.30235  0.84063  0.68615  1.0000
  H   H248      1.0  0.27899  0.85730  0.70524  1.0000
  H   H249      1.0  0.23192  0.76968  0.51807  1.0000
  S   S38       1.0  0.47374  0.81619  0.65775  1.0000
  H   H250      1.0  0.36848  0.71124  0.85184  1.0000
  H   H251      1.0  0.30302  0.79873  0.74855  1.0000
  C   C151      1.0  0.33794  0.72693  0.75126  1.0000
  H   H252      1.0  0.35348  0.70411  0.61998  1.0000
  C   C152      1.0  0.37423  0.74074  0.83767  1.0000
  N   N9        1.0  0.33294  0.73289  0.69159  1.0000
  H   H253      1.0  0.40265  0.96781  0.82916  1.0000
  C   C153      1.0  0.45674  0.93616  0.68923  1.0000
  H   H254      1.0  0.44699  0.98522  0.77284  1.0000
  H   H255      1.0  0.44166  0.91444  0.76670  1.0000
  H   H256      1.0  0.41366  0.98818  0.89439  1.0000
  C   C154      1.0  0.29207  0.75653  0.52284  1.0000
  H   H257      1.0  0.46251  0.94168  0.91200  1.0000
  H   H258      1.0  0.37410  0.98468  0.72919  1.0000
  H   H259      1.0  0.48872  0.80907  0.85303  1.0000
  C   C155      1.0  0.31885  0.72698  0.52590  1.0000
  C   C156      1.0  0.30663  0.68854  0.52505  1.0000
  H   H260      1.0  0.21049  0.70183  0.51786  1.0000
  C   C157      1.0  0.24066  0.70861  0.52018  1.0000
  H   H261      1.0  0.34903  0.73374  0.52813  1.0000
  H   H262      1.0  0.32766  0.66591  0.52649  1.0000
  H   H263      1.0  0.23805  0.67064  0.63056  1.0000
  H   H264      1.0  0.23356  0.66560  0.70262  1.0000
  H   H265      1.0  0.49622  0.98379  0.75663  1.0000
  H   H266      1.0  0.62011  0.22055  0.41790  1.0000
  C   C158      1.0  0.62191  0.25247  0.34288  1.0000
  H   H267      1.0  0.61191  0.19185  0.35810  1.0000
  H   H268      1.0  0.63307  0.24735  0.30183  1.0000
  H   H269      1.0  0.56067  0.13874  0.34935  1.0000
  C   C159      1.0  0.57904  0.26343  0.34215  1.0000
  S   S39       1.0  0.53790  0.19933  0.44747  1.0000
  H   H270      1.0  0.63881  0.27537  0.36284  1.0000
  H   H271      1.0  0.60657  0.28421  0.24145  1.0000
  C   C160      1.0  0.52545  0.30340  0.31386  1.0000
  H   H272      1.0  0.50914  0.27974  0.29447  1.0000
  H   H273      1.0  0.65938  0.20853  0.37437  1.0000
  H   H274      1.0  0.64695  0.31721  0.29775  1.0000
  H   H275      1.0  0.53143  0.19076  0.24941  1.0000
  S   S40       1.0  0.49891  0.20999  0.14787  1.0000
  H   H276      1.0  0.56812  0.27717  0.13899  1.0000
  H   H277      1.0  0.56227  0.23782  0.32980  1.0000
  H   H278      1.0  0.57419  0.08883  0.35320  1.0000
  C   C161      1.0  0.62853  0.21606  0.37528  1.0000
  H   H279      1.0  0.56874  0.11664  0.41370  1.0000
  C   C162      1.0  0.57554  0.28705  0.24964  1.0000
  H   H280      1.0  0.50883  0.27873  0.39110  1.0000
  H   H281      1.0  0.52922  0.32593  0.39703  1.0000
  C   C163      1.0  0.55725  0.11191  0.37256  1.0000
  H   H282      1.0  0.56345  0.25827  0.24018  1.0000
  H   H283      1.0  0.52818  0.03138  0.04361  1.0000
  C   C164      1.0  0.49825  0.09393  0.31878  1.0000
  H   H284      1.0  0.50700  0.19633  0.34267  1.0000
  H   H285      1.0  0.51326  0.07449  0.40083  1.0000
  H   H286      1.0  0.50260  0.12111  0.29662  1.0000
  S   S41       1.0  0.59243  0.29608  0.48850  1.0000
  C   C165      1.0  0.51506  0.10060  0.37586  1.0000
  H   H287      1.0  0.57170  0.26873  0.38488  1.0000
  N   N10       1.0  0.56806  0.29716  0.30779  1.0000
  C   C166      1.0  0.51036  0.30738  0.37222  1.0000
  C   C167      1.0  0.49867  0.02481  0.03412  1.0000
  H   H288      1.0  0.51667  0.07277  0.29758  1.0000
  H   H289      1.0  0.49977  0.12393  0.39707  1.0000
  C   C168      1.0  0.50281  0.20136  0.25662  1.0000
  H   H290      1.0  0.50541  0.01955  0.34627  1.0000
  H   H291      1.0  0.52680  0.31064  0.20514  1.0000
  H   H292      1.0  0.60578  0.31198  0.15073  1.0000
  C   C169      1.0  0.55832  0.31479  0.20762  1.0000
  C   C170      1.0  0.57437  0.30708  0.15152  1.0000
  H   H293      1.0  0.56071  0.32658  0.12212  1.0000
  H   H294      1.0  0.70882  0.30728  0.60185  1.0000
  S   S42       1.0  0.54306  0.20690  0.57880  1.0000
  C   C171      1.0  0.53223  0.10102  0.67055  1.0000
  H   H295      1.0  0.53498  0.01815  0.54693  1.0000
  H   H296      1.0  0.53563  0.08882  0.71142  1.0000
  H   H297      1.0  0.54228  0.28917  0.74674  1.0000
  C   C172      1.0  0.65748  0.30188  0.55383  1.0000
  C   C173      1.0  0.52544  0.31593  0.64262  1.0000
  H   H298      1.0  0.65133  0.27318  0.56710  1.0000
  H   H299      1.0  0.53648  0.19925  0.78188  1.0000
  H   H300      1.0  0.53570  0.07793  0.64019  1.0000
  Fe  Fe21      1.0  0.52264  0.16255  0.51861  1.0000
  C   C174      1.0  0.63360  0.31928  0.51601  1.0000
  C   C175      1.0  0.49717  0.06422  0.52545  1.0000
  C   C176      1.0  0.50565  0.02618  0.53890  1.0000
  C   C177      1.0  0.61662  0.23909  0.71074  1.0000
  C   C178      1.0  0.50843  0.21125  0.77472  1.0000
  H   H301      1.0  0.60297  0.26545  0.63415  1.0000
  H   H302      1.0  0.63612  0.18025  0.71099  1.0000
  H   H303      1.0  0.52089  0.01368  0.85461  1.0000
  H   H304      1.0  0.55514  0.12252  0.66407  1.0000
  H   H305      1.0  0.62977  0.19997  0.64474  1.0000
  H   H306      1.0  0.64655  0.24943  0.71407  1.0000
  H   H307      1.0  0.56299  0.25314  0.67440  1.0000
  H   H308      1.0  0.58855  0.18652  0.68465  1.0000
  H   H309      1.0  0.51417  0.21024  0.68853  1.0000
  C   C179      1.0  0.61776  0.19906  0.68607  1.0000
  C   C180      1.0  0.59178  0.26634  0.67608  1.0000
  H   H310      1.0  0.60465  0.23619  0.75181  1.0000
  C   C181      1.0  0.69031  0.32121  0.57313  1.0000
  Fe  Fe22      1.0  0.55201  0.24601  0.50763  1.0000
  H   H311      1.0  0.52491  0.28716  0.62391  1.0000
  H   H312      1.0  0.50840  0.31510  0.68017  1.0000
  S   S43       1.0  0.53461  0.09875  0.52384  1.0000
  C   C182      1.0  0.56874  0.30692  0.74897  1.0000
  H   H313      1.0  0.54978  0.32478  0.85455  1.0000
  H   H314      1.0  0.58665  0.29274  0.77997  1.0000
  N   N11       1.0  0.58906  0.30718  0.69545  1.0000
  H   H315      1.0  0.64134  0.31557  0.74144  1.0000
  H   H316      1.0  0.64891  0.30849  0.67177  1.0000
  H   H317      1.0  0.50353  0.08247  0.87387  1.0000
  H   H318      1.0  0.50663  0.32612  0.81442  1.0000
  S   S44       1.0  0.50162  0.21232  0.88390  1.0000
  C   C183      1.0  0.62943  0.32266  0.70114  1.0000
  H   H319      1.0  0.58279  0.32791  0.61420  1.0000
  Fe  Fe23      1.0  0.76907  0.53906  0.11570  1.0000
  S   S45       1.0  0.79922  0.59518  0.12500  1.0000
  S   S46       1.0  0.76439  0.49511  0.18161  1.0000
  C   C184      1.0  0.56898  0.64936  0.17458  1.0000
  H   H320      1.0  0.57065  0.35876  0.31997  1.0000
  S   S47       1.0  0.75708  0.54769  0.42511  1.0000
  H   H321      1.0  0.94608  0.57762  0.44252  1.0000
  H   H322      1.0  0.93320  0.42155  0.15664  1.0000
  H   H323      1.0  0.62409  0.63109  0.14193  1.0000
  C   C185      1.0  0.92916  0.54569  0.05049  1.0000
  H   H324      1.0  0.84446  0.49784  0.26620  1.0000
  C   C186      1.0  0.84030  0.60450  0.34440  1.0000
  S   S48       1.0  0.80553  0.51980  0.04668  1.0000
  C   C187      1.0  0.58866  0.33294  0.32637  1.0000
  H   H325      1.0  0.83884  0.51680  0.36777  1.0000
  C   C188      1.0  0.76043  0.50952  0.24917  1.0000
  C   C189      1.0  0.76719  0.48280  0.29001  1.0000
  C   C190      1.0  0.76570  0.49384  0.34435  1.0000
  C   C191      1.0  0.75678  0.53155  0.35800  1.0000
  C   C192      1.0  0.74833  0.55774  0.31719  1.0000
  C   C193      1.0  0.75077  0.54702  0.26283  1.0000
  H   H326      1.0  0.77405  0.45357  0.27961  1.0000
  H   H327      1.0  0.77156  0.47329  0.37563  1.0000
  H   H328      1.0  0.73980  0.58634  0.32802  1.0000
  H   H329      1.0  0.74448  0.56745  0.23156  1.0000
  Fe  Fe24      1.0  0.75496  0.61783  0.06675  1.0000
  H   H330      1.0  0.93552  0.52334  0.24315  1.0000
  C   C194      1.0  0.83938  0.63852  0.30608  1.0000
  S   S49       1.0  0.80535  0.45209  0.48865  1.0000
  H   H331      1.0  0.92433  0.59422  0.23344  1.0000
  H   H332      1.0  0.88555  0.50242  0.05427  1.0000
  H   H333      1.0  0.56398  0.34502  0.21856  1.0000
  H   H334      1.0  0.97942  0.58132  0.04606  1.0000
  C   C195      1.0  0.59320  0.62429  0.13744  1.0000
  H   H335      1.0  0.93094  0.51255  0.17407  1.0000
  C   C196      1.0  0.94198  0.47752  0.05641  1.0000
  C   C197      1.0  0.95101  0.43617  0.18742  1.0000
  H   H336      1.0  0.85975  0.45228  0.28680  1.0000
  S   S50       1.0  0.89732  0.58501  0.04773  1.0000
  C   C198      1.0  0.87066  0.48094  0.27493  1.0000
  Fe  Fe25      1.0  0.83290  0.57717  0.05238  1.0000
  H   H337      1.0  0.87224  0.40292  0.19322  1.0000
  S   S51       1.0  0.72230  0.56237  0.06290  1.0000
  H   H338      1.0  0.51658  0.32970  0.29218  1.0000
  C   C199      1.0  0.90914  0.58649  0.19571  1.0000
  C   C200      1.0  0.99563  0.56275  0.39459  1.0000
  H   H339      1.0  0.79537  0.61858  0.25201  1.0000
  H   H340      1.0  0.86946  0.60113  0.36141  1.0000
  C   C201      1.0  0.92663  0.44869  0.23654  1.0000
  C   C202      1.0  0.87076  0.46540  0.17885  1.0000
  H   H341      1.0  0.77783  0.63847  0.31229  1.0000
  H   H342      1.0  0.86962  0.54483  0.16568  1.0000
  H   H343      1.0  0.53859  0.64160  0.16795  1.0000
  H   H344      1.0  0.62320  0.35202  0.25760  1.0000
  H   H345      1.0  0.93142  0.44851  0.05891  1.0000
  H   H346      1.0  0.99429  0.56052  0.30860  1.0000
  C   C203      1.0  0.95278  0.56074  0.40585  1.0000
  C   C204      1.0  0.83155  0.41458  0.13110  1.0000
  H   H347      1.0  0.94408  0.53068  0.41319  1.0000
  H   H348      1.0  0.72086  0.64475  0.27928  1.0000
  H   H349      1.0  0.81700  0.38657  0.13586  1.0000
  H   H350      1.0  0.85292  0.46813  0.38172  1.0000
  H   H351      1.0  0.66240  0.64371  0.03129  1.0000
  C   C205      1.0  0.68455  0.66165  0.21463  1.0000
  H   H352      1.0  0.62499  0.36996  0.46852  1.0000
  H   H353      1.0  0.82920  0.42626  0.21569  1.0000
  H   H354      1.0  0.58878  0.59372  0.14754  1.0000
  Fe  Fe26      1.0  0.77784  0.51009  0.49329  1.0000
  H   H355      1.0  0.88732  0.46616  0.14084  1.0000
  H   H356      1.0  0.81996  0.60881  0.37823  1.0000
  H   H357      1.0  0.89826  0.52852  0.31830  1.0000
  H   H358      1.0  0.83243  0.57784  0.32269  1.0000
  H   H359      1.0  0.91455  0.42251  0.25539  1.0000
  H   H360      1.0  0.88917  0.60991  0.18506  1.0000
  H   H361      1.0  0.85274  0.41217  0.09800  1.0000
  C   C206      1.0  0.88670  0.54934  0.20283  1.0000
  C   C207      1.0  0.96879  0.55236  0.04907  1.0000
  C   C208      1.0  0.98163  0.48416  0.05537  1.0000
  C   C209      1.0  0.89021  0.49834  0.32547  1.0000
  H   H362      1.0  0.87891  0.50743  0.41071  1.0000
  H   H363      1.0  0.93625  0.57276  0.37182  1.0000
  C   C210      1.0  0.85136  0.42569  0.18372  1.0000
  C   C211      1.0  0.86353  0.49755  0.37412  1.0000
  C   C212      1.0  0.91419  0.51519  0.21191  1.0000
  H   H364      1.0  0.93029  0.58360  0.16260  1.0000
  H   H365      1.0  0.84704  0.48608  0.17284  1.0000
  H   H366      1.0  0.94720  0.46021  0.26664  1.0000
  N   N12       1.0  0.89552  0.47755  0.22555  1.0000
  H   H367      1.0  0.86677  0.55346  0.23696  1.0000
  H   H368      1.0  0.91620  0.48210  0.33659  1.0000
  C   C213      1.0  0.91589  0.50808  0.05377  1.0000
  H   H369      1.0  0.57657  0.64222  0.21672  1.0000
  C   C214      1.0  0.99489  0.52176  0.05106  1.0000
  H   H370      1.0  0.69012  0.63570  0.18998  1.0000
  H   H371      1.0  0.58474  0.62868  0.09485  1.0000
  H   H372      1.0  0.80965  0.43616  0.12007  1.0000
  H   H373      1.0  0.98975  0.51500  0.33829  1.0000
  H   H374      1.0  0.86108  0.63311  0.27440  1.0000
  H   H375      1.0  0.96525  0.46098  0.16848  1.0000
  C   C215      1.0  0.79924  0.64311  0.28026  1.0000
  H   H376      1.0  0.65589  0.36472  0.37121  1.0000
  C   C216      1.0  0.98247  0.40836  0.20412  1.0000
  H   H377      1.0  0.96991  0.38225  0.22226  1.0000
  C   C217      1.0  0.64868  0.37404  0.32975  1.0000
  H   H378      1.0  0.75801  0.65377  0.18934  1.0000
  H   H379      1.0  0.65819  0.65680  0.23856  1.0000
  H   H380      1.0  0.63081  0.40022  0.33186  1.0000
  H   H381      1.0  0.67575  0.38116  0.30862  1.0000
  C   C218      1.0  0.62770  0.34219  0.29947  1.0000
  C   C219      1.0  0.64310  0.35617  0.49785  1.0000
  H   H382      1.0  0.82831  0.65933  0.18691  1.0000
  H   H383      1.0  0.59321  0.33196  0.37077  1.0000
  H   H384      1.0  0.68269  0.40388  0.50292  1.0000
  H   H385      1.0  0.69640  0.57376  0.70301  1.0000
  H   H386      1.0  0.71015  0.65033  0.94997  1.0000
  S   S52       1.0  0.74298  0.51445  0.92154  1.0000
  H   H387      1.0  0.91341  0.44483  0.67337  1.0000
  H   H388      1.0  0.91386  0.58989  0.78042  1.0000
  H   H389      1.0  0.92523  0.47543  0.72938  1.0000
  H   H390      1.0  0.88215  0.51866  0.94334  1.0000
  H   H391      1.0  0.97752  0.45071  0.63647  1.0000
  H   H392      1.0  0.74207  0.47173  0.82343  1.0000
  Fe  Fe27      1.0  0.78892  0.51625  0.61483  1.0000
  S   S53       1.0  0.81710  0.45877  0.61929  1.0000
  S   S54       1.0  0.78476  0.55993  0.68242  1.0000
  H   H393      1.0  0.75859  0.48858  0.72934  1.0000
  H   H394      1.0  0.78928  0.60168  0.78130  1.0000
  C   C220      1.0  0.97658  0.56403  0.55140  1.0000
  C   C221      1.0  0.63569  0.36601  0.69125  1.0000
  H   H395      1.0  0.83718  0.42355  0.92119  1.0000
  H   H396      1.0  0.52675  0.36976  0.84096  1.0000
  H   H397      1.0  0.81346  0.46824  0.93401  1.0000
  C   C222      1.0  0.75709  0.52691  0.85597  1.0000
  C   C223      1.0  0.77092  0.56341  0.84409  1.0000
  C   C224      1.0  0.77940  0.57316  0.79062  1.0000
  C   C225      1.0  0.77503  0.54621  0.74904  1.0000
  C   C226      1.0  0.76217  0.50945  0.76118  1.0000
  C   C227      1.0  0.75286  0.49999  0.81444  1.0000
  H   H398      1.0  0.77407  0.58434  0.87581  1.0000
  H   H399      1.0  0.93095  0.59079  0.86726  1.0000
  H   H400      1.0  0.92400  0.49429  0.66145  1.0000
  H   H401      1.0  0.99078  0.50527  0.73266  1.0000
  C   C228      1.0  0.66478  0.58423  0.90089  1.0000
  H   H402      1.0  0.85124  0.46932  0.84911  1.0000
  C   C229      1.0  0.64506  0.62354  0.89599  1.0000
  H   H403      1.0  0.95855  0.53494  0.83672  1.0000
  C   C230      1.0  0.94544  0.53821  0.55022  1.0000
  C   C231      1.0  0.55791  0.34623  0.77294  1.0000
  C   C232      1.0  0.67623  0.37828  0.70680  1.0000
  H   H404      1.0  0.54085  0.36348  0.74443  1.0000
  C   C233      1.0  0.93157  0.46922  0.68657  1.0000
  H   H405      1.0  0.86397  0.61031  0.84049  1.0000
  C   C234      1.0  0.87991  0.64218  0.91053  1.0000
  H   H406      1.0  0.62682  0.61828  0.79652  1.0000
  H   H407      1.0  0.84385  0.52917  0.89964  1.0000
  H   H408      1.0  0.56567  0.35998  0.66355  1.0000
  H   H409      1.0  0.72055  0.63299  0.85598  1.0000
  H   H410      1.0  0.65907  0.56673  0.86452  1.0000
  C   C235      1.0  0.95815  0.50846  0.91414  1.0000
  C   C236      1.0  0.88248  0.53843  0.80842  1.0000
  H   H411      1.0  0.85872  0.58584  0.72109  1.0000
  H   H412      1.0  0.69607  0.58711  0.90682  1.0000
  H   H413      1.0  0.69574  0.58684  0.80003  1.0000
  Fe  Fe28      1.0  0.76205  0.54821  0.99428  1.0000
  C   C237      1.0  0.87133  0.60405  0.88294  1.0000
  H   H414      1.0  0.66272  0.53362  0.95104  1.0000
  H   H415      1.0  0.61746  0.55756  0.94422  1.0000
  H   H416      1.0  0.89372  0.45698  0.88626  1.0000
  C   C238      1.0  0.70280  0.65873  0.86300  1.0000
  C   C239      1.0  0.64877  0.56205  0.94873  1.0000
  H   H417      1.0  0.94043  0.48953  0.93965  1.0000
  C   C240      1.0  0.84183  0.45413  0.93137  1.0000
  Fe  Fe29      1.0  0.84961  0.47690  0.54542  1.0000
  Fe  Fe30      1.0  0.77013  0.43883  0.56255  1.0000
  C   C241      1.0  0.65408  0.63484  0.79802  1.0000
  H   H418      1.0  0.64833  0.57088  0.72867  1.0000
  H   H419      1.0  0.88607  0.63783  0.95389  1.0000
  H   H420      1.0  0.93550  0.49000  0.83678  1.0000
  H   H421      1.0  0.61441  0.61724  0.88787  1.0000
  C   C242      1.0  0.90581  0.56102  0.76591  1.0000
  H   H422      1.0  0.63197  0.37238  0.64777  1.0000
  H   H423      1.0  0.85293  0.55003  0.81014  1.0000
  C   C243      1.0  0.67586  0.37554  0.51729  1.0000
  H   H424      1.0  0.87180  0.53829  0.69911  1.0000
  H   H425      1.0  0.84583  0.59160  0.90261  1.0000
  C   C244      1.0  0.93806  0.51714  0.86000  1.0000
  H   H426      1.0  0.87881  0.50914  0.79176  1.0000
  C   C245      1.0  0.90605  0.57655  0.88661  1.0000
  H   H427      1.0  0.90160  0.57861  0.68243  1.0000
  H   H428      1.0  0.71127  0.62767  0.76264  1.0000
  H   H429      1.0  0.85623  0.45587  0.97115  1.0000
  C   C246      1.0  0.88305  0.56610  0.71405  1.0000
  S   S55       1.0  0.79194  0.60497  0.99459  1.0000
  H   H430      1.0  0.91674  0.54821  0.55837  1.0000
  H   H431      1.0  0.96399  0.53526  0.93655  1.0000
  H   H432      1.0  0.91396  0.57487  0.92991  1.0000
  C   C247      1.0  0.87276  0.51590  0.90068  1.0000
  S   S56       1.0  0.91369  0.46571  0.53435  1.0000
  H   H433      1.0  0.93241  0.54541  0.75557  1.0000
  C   C248      1.0  0.86639  0.47292  0.88805  1.0000
  S   S57       1.0  0.82438  0.53544  0.54455  1.0000
  N   N13       1.0  0.89985  0.53695  0.86389  1.0000
  S   S58       1.0  0.73987  0.49569  0.56362  1.0000
  H   H434      1.0  0.65025  0.65872  0.76893  1.0000
  H   H435      1.0  0.68066  0.40878  0.69628  1.0000
  C   C249      1.0  0.68603  0.60967  0.77271  1.0000
  C   C250      1.0  0.97374  0.45897  0.67934  1.0000
  H   H436      1.0  0.61534  0.38386  0.71425  1.0000
  C   C251      1.0  0.69981  0.35814  0.55504  1.0000
  H   H437      1.0  0.66361  0.61243  0.69087  1.0000
  C   C252      1.0  0.67255  0.59063  0.72066  1.0000
  C   C253      1.0  0.53383  0.34131  0.82379  1.0000
  H   H438      1.0  0.58413  0.36214  0.78448  1.0000
  H   H439      1.0  0.97993  0.43372  0.70447  1.0000
  S   S59       1.0  0.74169  0.38094  0.58114  1.0000
  H   H440      1.0  0.97152  0.59388  0.56025  1.0000
  H   H441      1.0  0.64550  0.63745  0.93617  1.0000
  H   H442      1.0  0.69779  0.36109  0.68459  1.0000
  N   N14       1.0  0.66080  0.65039  0.85426  1.0000
  H   H443      1.0  0.68089  0.37485  0.75067  1.0000
  C   C254      1.0  0.50521  0.34302  0.60390  1.0000
  C   C255      1.0  0.56718  0.32919  0.65331  1.0000
  C   C256      1.0  0.95152  0.49964  0.53781  1.0000
  H   H444      1.0  0.99287  0.51540  0.66276  1.0000
  H   H445      1.0  0.90481  0.65641  0.89135  1.0000
  H   H446      1.0  0.52073  0.34424  0.56495  1.0000
  H   H447      1.0  0.99410  0.45747  0.51807  1.0000
  H   H448      1.0  0.65447  0.57760  0.98688  1.0000
  H   H449      1.0  0.85467  0.66125  0.90713  1.0000
  H   H450      1.0  0.99209  0.46073  0.88395  1.0000
  C   C257      1.0  0.98903  0.48722  0.52756  1.0000
  H   H451      1.0  0.50341  0.37221  0.62136  1.0000
  H   H452      1.0  0.77503  0.66059  0.90719  1.0000
  H   H453      1.0  0.52111  0.84336  0.29684  1.0000
  S   S60       1.0  0.52480  0.84046  0.09119  1.0000
  H   H454      1.0  0.60374  0.77253  0.23649  1.0000
  H   H455      1.0  0.52242  0.70885  0.35517  1.0000
  C   C258      1.0  0.68483  0.69626  0.06309  1.0000
  N   N15       1.0  0.54976  0.71988  0.19115  1.0000
  S   S61       1.0  0.73003  0.67738  0.08276  1.0000
  C   C259      1.0  0.64160  0.75137  0.05693  1.0000
  Fe  Fe31      1.0  0.50685  0.88602  0.03149  1.0000
  H   H456      1.0  0.88053  0.73456  0.16813  1.0000
  Fe  Fe32      1.0  0.53167  0.80109  0.01958  1.0000
  H   H457      1.0  0.54375  0.77444  0.27894  1.0000
  H   H458      1.0  0.69803  0.75280  0.09250  1.0000
  H   H459      1.0  0.58347  0.83461  0.19715  1.0000
  H   H460      1.0  0.63421  0.82649  0.19102  1.0000
  C   C260      1.0  0.61410  0.72904  0.03060  1.0000
  C   C261      1.0  0.82433  0.68569  0.21147  1.0000
  C   C262      1.0  0.53534  0.73701  0.34557  1.0000
  C   C263      1.0  0.81992  0.71940  0.17158  1.0000
  C   C264      1.0  0.60558  0.81656  0.17745  1.0000
  C   C265      1.0  0.85696  0.72627  0.14042  1.0000
  H   H461      1.0  0.60377  0.82032  0.13322  1.0000
  H   H462      1.0  0.63617  0.78138  0.06385  1.0000
  H   H463      1.0  0.51600  0.68187  0.09803  1.0000
  H   H464      1.0  0.85194  0.69037  0.23287  1.0000
  H   H465      1.0  0.85264  0.74977  0.11115  1.0000
  C   C266      1.0  0.67675  0.73505  0.07300  1.0000
  H   H466      1.0  0.86530  0.70013  0.11777  1.0000
  H   H467      1.0  0.81224  0.74621  0.19290  1.0000
  H   H468      1.0  0.79742  0.71289  0.14133  1.0000
  H   H469      1.0  0.82045  0.72660  0.29448  1.0000
  H   H470      1.0  0.60660  0.69763  0.17694  1.0000
  C   C267      1.0  0.65694  0.67373  0.03803  1.0000
  C   C268      1.0  0.56025  0.75980  0.17381  1.0000
  C   C269      1.0  0.62199  0.69011  0.02147  1.0000
  C   C270      1.0  0.60007  0.77462  0.19238  1.0000
  H   H471      1.0  0.62333  0.75817  0.17277  1.0000
  H   H472      1.0  0.53824  0.78052  0.18746  1.0000
  H   H473      1.0  0.55999  0.76191  0.12919  1.0000
  H   H474      1.0  0.58383  0.71510  0.26379  1.0000
  H   H475      1.0  0.49934  0.83294  0.20291  1.0000
  H   H476      1.0  0.51994  0.75933  0.36894  1.0000
  C   C271      1.0  0.57664  0.69231  0.16393  1.0000
  C   C272      1.0  0.55326  0.71527  0.25122  1.0000
  H   H477      1.0  0.57694  0.69726  0.11979  1.0000
  C   C273      1.0  0.53178  0.74551  0.28559  1.0000
  S   S62       1.0  0.56961  0.74777  0.00781  1.0000
  H   H478      1.0  0.79612  0.69092  0.37061  1.0000
  H   H479      1.0  0.56584  0.73730  0.35818  1.0000
  S   S63       1.0  0.52211  0.94951  0.03566  1.0000
  H   H480      1.0  0.77435  0.73797  0.27028  1.0000
  N   N16       1.0  0.79218  0.68030  0.25144  1.0000
  H   H481      1.0  0.74960  0.70357  0.19705  1.0000
  C   C274      1.0  0.50863  0.71242  0.17540  1.0000
  C   C275      1.0  0.75534  0.67695  0.21991  1.0000
  C   C276      1.0  0.79120  0.71445  0.28886  1.0000
  H   H482      1.0  0.79658  0.76210  0.37862  1.0000
  H   H483      1.0  0.71079  0.69545  0.27604  1.0000
  H   H484      1.0  0.75918  0.74007  0.41761  1.0000
  C   C277      1.0  0.71825  0.66965  0.25226  1.0000
  H   H485      1.0  0.54199  0.68687  0.26356  1.0000
  C   C278      1.0  0.76937  0.74571  0.37609  1.0000
  H   H486      1.0  0.74746  0.76319  0.35518  1.0000
  H   H487      1.0  0.50084  0.74613  0.27566  1.0000
  C   C279      1.0  0.77550  0.70785  0.34658  1.0000
  H   H488      1.0  0.74805  0.69214  0.34677  1.0000
  H   H489      1.0  0.67968  0.68627  0.18740  1.0000
  C   C280      1.0  0.50086  0.70714  0.11448  1.0000
  H   H490      1.0  0.51039  0.73261  0.09198  1.0000
  H   H491      1.0  0.49712  0.68686  0.19642  1.0000
  H   H492      1.0  0.84803  0.66458  0.32852  1.0000
  H   H493      1.0  0.57445  0.89125  0.87879  1.0000
  H   H494      1.0  0.59191  0.74503  0.81632  1.0000
  C   C281      1.0  0.57882  0.72688  0.84790  1.0000
  C   C282      1.0  0.54028  0.94185  0.89690  1.0000
  H   H495      1.0  0.71277  0.68000  0.83280  1.0000
  H   H496      1.0  0.54751  0.72528  0.84040  1.0000
  H   H497      1.0  0.76507  0.69233  0.96278  1.0000
  H   H498      1.0  0.64164  0.69955  0.90084  1.0000
  S   S64       1.0  0.52006  0.84835  0.95971  1.0000
  C   C283      1.0  0.63956  0.68789  0.85932  1.0000
  H   H499      1.0  0.54206  0.95474  0.81186  1.0000
  H   H500      1.0  0.59894  0.93628  0.86805  1.0000
  H   H501      1.0  0.52187  0.92654  0.92578  1.0000
  H   H502      1.0  0.51610  0.91261  0.82938  1.0000
  H   H503      1.0  0.58337  0.74054  0.88780  1.0000
  H   H504      1.0  0.54609  0.97077  0.91338  1.0000
  C   C284      1.0  0.57850  0.92078  0.89432  1.0000
  H   H505      1.0  0.65283  0.70976  0.83263  1.0000
  H   H506      1.0  0.69806  0.69868  0.93258  1.0000
  C   C285      1.0  0.52075  0.94304  0.84084  1.0000
  H   H507      1.0  0.59000  0.67428  0.80658  1.0000
  H   H508      1.0  0.59093  0.91908  0.93537  1.0000
  H   H509      1.0  0.58054  0.66966  0.87745  1.0000
  C   C286      1.0  0.59597  0.68671  0.84679  1.0000
  C   C287      1.0  0.71447  0.67322  0.91978  1.0000
  H   H510      1.0  0.60074  0.67247  0.00171  1.0000
  H   H511      1.0  0.76180  0.70970  0.89482  1.0000
  H   H512      1.0  0.51053  0.80209  0.75847  1.0000
  C   C288      1.0  0.75671  0.68458  0.92101  1.0000
