data_image0
_chemical_formula_structural       SH2C4HFeSFeS2FeSFeS3FeS2FeSC2SFeSCSC6H4C6H4C6H5CHCH2CH3CHCH2CHSC3SH2SH10SCHCNH6C3FeH2C2H4CH3SH3C2H2CHCH3FeH2CSHC2H2CH2C3H3NC11H19C3H3CFeH6CH4NHCH3CHCHC2H4CH12C3HCH10C3H6CH4CHSHSCHFeSFeS2FeSFeS3FeSHFeSH2SFeSHSC6H4C6H5C4HSH6SCH5CFeHCHCHCHCHCHC2H4CH3CH2C4H8C2H2CHNHCHCH2C3H2CHCH2CH9CH4CH2CH4NH8CH2CSH2FeC5H2CH6C2H2C2H2CHCHCHCHC2H2NCH2CH8C2HCHCH3CH4CH4C6FeH4CHC2H2CHCH2NSCH5NH5CH7SC2H2CHCSH3CH3CHFeS2HCSFeSFeHS2FeSFeS2FeSFeS3HSH2SNFeSHSHFeSH2C9H5CFeCHCH2C7H4C6H5C2H3CNCHCH2C6H15C3H3CH2CH5CHCH4NH4CH4CHCH2CH2CHFeHCSC3H3SHCH7CH3CHC2H2CH2CHCH2NC8HCH17FeHNCH13CSCHCHC3H4CHC2HCH2C2SHFeS2H2SFeHFeHS2FeSFeS2FeSFeS3CSFeHSFe2SHSH2CH3C8H4C3H6C6H4C6H4CHC2H5SH4NC4FeHC6H8SHC2H4CSCH9C4HCH6SFeH3NHCHNH6CHC3HCHC2H7CH5CH3CH6CSCH2C2HCHCH3CHCH2CH3CH2CH7CH2CNCH2CH2CHC4H4C2H4CH2CHCSH3FeSHS3FeS2FeS2FeSFeS4C6H4C6H5C4H5C5H3CH2CSH5C8H5CHCFeH5CNC3NH7CHC2H4CH2FeH3C2SH2CSCH2CH4CHCHNC10H10CH14CH2NHCH6SCH4CHCH2CHCHC2H5CH3CHCH2NCHC4H2C2NH13CH4C2H2NCHCHSH3CH3CH3C2H2CH4C2HC2H5C2HC2HC2HC2H2CH2SCH4C2HCH4CH2S3HC2FeSC2S2FeS2FeS2FeSFeS3C7H4C6H4C6H4C6HCH3CH3NHCHC7H3CHCHC2HCH4CN2H6CH2CH4CHC2HC2HCH2CH7CH3CH2FeHC2H3CH7CH4C2S3CHCHNH2CH3CH5C3H5CH4CHCH4CHC2H5CHSNH4CH2SH5C3HCH4CH5FeHCHCFeH4C2H3CH2CH3CFeSH2CHNCH2C2H4C2HFeCHFeS2FeHFeS3HSHCSC2FeH2SH2C2H4C6H4C3HC3HNH2CH3NH2CH2CH4CH9C2H3C2H3CHCH2CH5SH3CH2C4HSH3CH3CH2CH4CSH3CH2FeHC2SHCHC3HC2H2FeHC2H11CH5CS2CHFeS2FeHFeS3HSH2SCHFeSCS2CHC2HSHC6H4CHCNCFeHCH10CH2SCH4CH3CH2CH2CNHCH2CHC2H5CFeH5CFeH2CHCH8C5H5CH3CH6CH9C4HC2SHCH2C2H3CSHSCFeSCSHSCSCHCSHC7H7C2HFeH2CNH7CHCH3CH6FeH7FeH3C3HCHSHNC2HCH2CHCHCHC2H2C2H3FeCHCHSHFeH8CH4C2H2CH3CHFeH2CH7FeHC2HCH2NCH2SHSHFeSCSHSFeSH2FeSH2C6H4CH6NCH3C2H2CNH3C2H3C3HC2H4FeSH3SC2H5CHSNHC2H2CH2C2H3CH2C2H11C2H3C2H2CH2CHC2H2CH3CH4CHC3HFeH4CFeH2C8H7NH6CHFeHCH2CH2CH2CH6CSCHCH2CFeS2FeS2FeSFeS3CSCSFeSH4C2SH3C3H3CHCH2CSCHSCHC3H2CH3C6H4C6H3CHC2H3FeH2CH2CH7CH2C4H2CH3CH3SC2H3CNH3C2H3CH3NHCH3CHCHC2HCH2C3H10C3H5CH2C2H2C2H3CHCH3S2HFeH2C2HCH2CHCH5CHC3HC3HNH5NHSHCSH6CH2NCHCH8CH2C2H3C2H3CHCH2C2HCH5C3NH5SH3C3HCH2CH3CHCFeH5CH4NH7C2H4C2SC2HSCNHCFeS2FeS2FeSFeS3HSHSFeSH2CH3SHNC4HSH2C4H7C3H5NC6H4C6H6CSCHCHCHCHCH2CH2CH3NH3C2HCH3CH4CH2C2H3CH2CHC2HFeCH6CSHCH4CNHCHC2HC4H3CH2CH2CH4NH2CH3C3H2CH6CFeH4C2H3CH7CHC4SCH11CHCHCH2C2H10CHCHCHCH3C2NH6C2HC2H2CH6CH2C2HNC3HCH4CHCH4CH6C3H2CH3CH2CFeH2CH2CH4CHCH2SFeS2FeHFeS3FeS2CHFeSFeS3Fe2S2FeHFeHS2HCH2C2H2CHC7H6CH4C6H4C6H4CHSH2C2SHCHC2NCSH2CH3CH4CH5SHNC2HC3HC2H6C2H2CH18CHCH4FeH2CH3NC6H2C3H13SH11CHC2HNH3FeH3C5H3CH4C9HC2H3C4H3C2H7CH4SFeS2FeSFeS3FeS2H2FeSFeSHSFe2S2FeCFeS3CH4C4H2C6H4CH6C6H4C6H13CSH2CHCHCH2CHSHC3H2CH10NC2H2SC2HCHCNHCH5CNC11H17CH5CH3CHCH5CHSCHCHCHCHCNHC2H7FeHCH5C2SH3CH2C3H2C2H3C2H2CHCH5CHCHCH9CH6FeS2FeSFeS3FeS2CHSFeHFeHS2CFeC2HCHC2HCH2C6H4C6H5C2SH2CH2CHCH2CH3CFeH2NC11H22CH6CH2CH4C2SH2C2SH5C3H5CSH3C2SH4CNH3CH2C3H3SCH3CH2CSCH7C3H4CHCHC2H2C2H5CSFeS2FeSFeS3FeS2H2SFeHFeCS2HFeHC3HC3HCHC6H4C6H5CSHCH3C2HSCHC2H4CH2C3NCHC2HC2HCHCH3SH10C2H3CH2CH3CHCHC3H6NCHCH2CH2NH2CH2CH3C2H3C2H3NH2CSCH13C4HCHCNC2HCHCHC4H5C3HCH10CH4FeH2CHCHC2H2C2NH2SH2C2H2CH2CHC2HCSH6CH4CH3CSHCH7C
_chemical_formula_sum              "S288 H2304 C1296 Fe144 N72"
_cell_length_a       56.8928
_cell_length_b       56.7156
_cell_length_c       48.2677
_cell_angle_alpha    89.696
_cell_angle_beta     90.1337
_cell_angle_gamma    119.853

_space_group_name_H-M_alt    "P 1"
_space_group_IT_number       1

loop_
  _space_group_symop_operation_xyz
  'x, y, z'

loop_
  _atom_site_type_symbol
  _atom_site_label
  _atom_site_symmetry_multiplicity
  _atom_site_fract_x
  _atom_site_fract_y
  _atom_site_fract_z
  _atom_site_occupancy
  S   S1        1.0  0.24282  0.12980  0.41030  1.0000
  H   H1        1.0  0.13943  0.36099  0.21273  1.0000
  H   H2        1.0  0.26210  0.47971  0.21899  1.0000
  C   C1        1.0  0.02191  0.43786  0.28893  1.0000
  C   C2        1.0  0.23285  0.29525  0.43255  1.0000
  C   C3        1.0  0.18861  0.21190  0.99461  1.0000
  C   C4        1.0  0.23686  0.31130  0.45915  1.0000
  H   H3        1.0  0.15706  0.16041  0.47709  1.0000
  Fe  Fe1       1.0  0.23753  0.42617  0.28623  1.0000
  S   S2        1.0  0.22640  0.38340  0.27519  1.0000
  Fe  Fe2       1.0  0.17903  0.41524  0.27796  1.0000
  S   S3        1.0  0.16465  0.37187  0.26564  1.0000
  S   S4        1.0  0.14567  0.42675  0.27587  1.0000
  Fe  Fe3       1.0  0.18949  0.37145  0.30171  1.0000
  S   S5        1.0  0.16788  0.33410  0.32927  1.0000
  Fe  Fe4       1.0  0.20231  0.38715  0.23985  1.0000
  S   S6        1.0  0.20968  0.37833  0.19493  1.0000
  S   S7        1.0  0.20210  0.41392  0.31534  1.0000
  S   S8        1.0  0.21511  0.43075  0.24975  1.0000
  Fe  Fe5       1.0  0.15381  0.25081  0.01453  1.0000
  S   S9        1.0  0.17382  0.29552  0.02490  1.0000
  S   S10       1.0  0.17258  0.22321  0.01849  1.0000
  Fe  Fe6       1.0  0.09696  0.24510  0.00864  1.0000
  S   S11       1.0  0.11286  0.28936  0.01829  1.0000
  C   C5        1.0  0.02339  0.20473  0.98801  1.0000
  C   C6        1.0  0.19932  0.19350  0.39109  1.0000
  S   S12       1.0  0.18172  0.33525  0.46003  1.0000
  Fe  Fe7       1.0  0.13800  0.28538  0.05253  1.0000
  S   S13       1.0  0.13558  0.29818  0.09755  1.0000
  C   C7        1.0  0.02983  0.22631  0.40073  1.0000
  S   S14       1.0  0.11976  0.24052  0.04453  1.0000
  C   C8        1.0  0.18885  0.35543  0.16831  1.0000
  C   C9        1.0  0.19958  0.35816  0.14141  1.0000
  C   C10       1.0  0.18391  0.34068  0.11964  1.0000
  C   C11       1.0  0.15705  0.32028  0.12435  1.0000
  C   C12       1.0  0.14635  0.31761  0.15125  1.0000
  C   C13       1.0  0.16216  0.33477  0.17311  1.0000
  H   H4        1.0  0.22021  0.37390  0.13733  1.0000
  H   H5        1.0  0.19252  0.34315  0.09915  1.0000
  H   H6        1.0  0.12572  0.30183  0.15531  1.0000
  H   H7        1.0  0.15377  0.33171  0.19372  1.0000
  C   C14       1.0  0.17120  0.33543  0.36569  1.0000
  C   C15       1.0  0.15364  0.31241  0.38143  1.0000
  C   C16       1.0  0.15663  0.31205  0.41034  1.0000
  C   C17       1.0  0.17717  0.33480  0.42377  1.0000
  C   C18       1.0  0.19454  0.35794  0.40805  1.0000
  C   C19       1.0  0.19153  0.35832  0.37912  1.0000
  H   H8        1.0  0.13786  0.29465  0.37114  1.0000
  H   H9        1.0  0.14304  0.29422  0.42223  1.0000
  H   H10       1.0  0.21049  0.37562  0.41831  1.0000
  H   H11       1.0  0.20529  0.37609  0.36718  1.0000
  C   C20       1.0  0.13507  0.49110  0.32435  1.0000
  C   C21       1.0  0.11371  0.47092  0.30893  1.0000
  C   C22       1.0  0.11729  0.45135  0.29441  1.0000
  C   C23       1.0  0.14213  0.45152  0.29522  1.0000
  C   C24       1.0  0.16340  0.47154  0.31082  1.0000
  C   C25       1.0  0.24959  0.22732  0.05419  1.0000
  H   H12       1.0  0.22412  0.13171  0.07917  1.0000
  H   H13       1.0  0.10070  0.43604  0.28237  1.0000
  H   H14       1.0  0.18276  0.47227  0.31133  1.0000
  H   H15       1.0  0.22944  0.08140  0.16516  1.0000
  H   H16       1.0  0.05700  0.23946  0.43647  1.0000
  C   C26       1.0  0.14589  0.22688  0.41397  1.0000
  H   H17       1.0  0.19858  0.22074  0.07022  1.0000
  C   C27       1.0  0.22445  0.19998  0.46295  1.0000
  H   H18       1.0  0.13180  0.16997  0.99871  1.0000
  H   H19       1.0  0.11921  0.43032  0.20922  1.0000
  C   C28       1.0  0.22888  0.31904  0.34503  1.0000
  H   H20       1.0  0.22897  0.47840  0.36666  1.0000
  H   H21       1.0  0.26001  0.24803  0.04486  1.0000
  H   H22       1.0  0.10419  0.19401  0.99927  1.0000
  C   C29       1.0  0.13620  0.37227  0.10059  1.0000
  H   H23       1.0  0.18583  0.18083  0.02255  1.0000
  C   C30       1.0  0.20450  0.22744  0.47831  1.0000
  H   H24       1.0  0.17403  0.20820  0.37460  1.0000
  H   H25       1.0  0.09268  0.33231  0.42516  1.0000
  C   C31       1.0  0.21207  0.27679  0.37525  1.0000
  H   H26       1.0  0.11416  0.23745  0.40909  1.0000
  S   S15       1.0  0.12451  0.25782  0.47320  1.0000
  C   C32       1.0  0.13180  0.44069  0.19076  1.0000
  C   C33       1.0  0.22976  0.02925  0.46779  1.0000
  C   C34       1.0  0.11668  0.21930  0.40744  1.0000
  S   S16       1.0  0.05369  0.49431  0.36149  1.0000
  H   H27       1.0  0.14713  0.20799  0.41294  1.0000
  H   H28       1.0  0.25071  0.12465  0.07010  1.0000
  S   S17       1.0  0.25312  0.19879  0.44994  1.0000
  H   H29       1.0  0.03109  0.23207  0.37855  1.0000
  H   H30       1.0  0.23036  0.17816  0.06497  1.0000
  H   H31       1.0  0.24890  0.04690  0.46238  1.0000
  H   H32       1.0  0.10183  0.32375  0.23765  1.0000
  H   H33       1.0  0.19684  0.15689  0.46160  1.0000
  H   H34       1.0  0.18216  0.44600  0.15467  1.0000
  H   H35       1.0  0.11699  0.35396  0.45099  1.0000
  H   H36       1.0  0.10970  0.36343  0.15128  1.0000
  H   H37       1.0  0.12598  0.47526  0.19725  1.0000
  H   H38       1.0  0.15357  0.36889  0.10441  1.0000
  S   S18       1.0  0.25637  0.13378  0.47766  1.0000
  C   C35       1.0  0.21508  0.02258  0.99198  1.0000
  H   H39       1.0  0.23675  0.11633  0.16257  1.0000
  C   C36       1.0  0.17903  0.20406  0.48085  1.0000
  N   N1        1.0  0.19568  0.26021  0.39976  1.0000
  H   H40       1.0  0.03557  0.43134  0.27958  1.0000
  H   H41       1.0  0.19185  0.22649  0.42433  1.0000
  H   H42       1.0  0.22144  0.43400  0.18711  1.0000
  H   H43       1.0  0.09660  0.37642  0.19488  1.0000
  H   H44       1.0  0.25343  0.12001  0.21073  1.0000
  H   H45       1.0  0.04116  0.27867  0.03738  1.0000
  C   C37       1.0  0.18708  0.43121  0.16423  1.0000
  C   C38       1.0  0.17661  0.17866  0.47507  1.0000
  C   C39       1.0  0.12814  0.42003  0.16780  1.0000
  Fe  Fe8       1.0  0.14773  0.29694  0.99014  1.0000
  H   H46       1.0  0.10648  0.40953  0.16119  1.0000
  H   H47       1.0  0.22378  0.25628  0.06635  1.0000
  C   C40       1.0  0.20229  0.27745  0.42549  1.0000
  C   C41       1.0  0.12197  0.46237  0.39493  1.0000
  H   H48       1.0  0.13597  0.47274  0.16248  1.0000
  H   H49       1.0  0.15553  0.41147  0.11969  1.0000
  H   H50       1.0  0.07870  0.33492  0.22630  1.0000
  H   H51       1.0  0.23393  0.28351  0.37819  1.0000
  C   C42       1.0  0.13613  0.39222  0.12175  1.0000
  H   H52       1.0  0.22421  0.24654  0.40946  1.0000
  H   H53       1.0  0.15016  0.23436  0.43555  1.0000
  H   H54       1.0  0.24650  0.24362  0.46684  1.0000
  S   S19       1.0  0.20566  0.05909  0.45020  1.0000
  H   H55       1.0  0.01411  0.25037  0.41828  1.0000
  H   H56       1.0  0.11957  0.39634  0.11601  1.0000
  H   H57       1.0  0.24659  0.10991  0.25899  1.0000
  C   C43       1.0  0.09508  0.16896  0.03542  1.0000
  C   C44       1.0  0.19276  0.19030  0.00244  1.0000
  H   H58       1.0  0.09452  0.47052  0.30805  1.0000
  H   H59       1.0  0.18929  0.41881  0.14779  1.0000
  C   C45       1.0  0.20907  0.30182  0.36783  1.0000
  H   H60       1.0  0.25512  0.19768  0.01377  1.0000
  C   C46       1.0  0.24481  0.10237  0.15881  1.0000
  H   H61       1.0  0.15331  0.45264  0.19730  1.0000
  H   H62       1.0  0.10280  0.20379  0.42256  1.0000
  H   H63       1.0  0.13956  0.43223  0.14954  1.0000
  Fe  Fe9       1.0  0.24219  0.10173  0.44428  1.0000
  H   H64       1.0  0.16794  0.42345  0.20490  1.0000
  H   H65       1.0  0.25403  0.08924  0.21214  1.0000
  C   C47       1.0  0.02529  0.25740  0.04198  1.0000
  S   S20       1.0  0.05359  0.20909  0.00402  1.0000
  H   H66       1.0  0.19346  0.29109  0.42434  1.0000
  C   C48       1.0  0.11814  0.38257  0.19935  1.0000
  C   C49       1.0  0.21476  0.44770  0.17802  1.0000
  H   H67       1.0  0.11099  0.21073  0.38625  1.0000
  H   H68       1.0  0.07334  0.24279  0.40357  1.0000
  C   C50       1.0  0.13124  0.38013  0.15151  1.0000
  H   H69       1.0  0.23239  0.04123  0.99902  1.0000
  H   H70       1.0  0.01579  0.43763  0.14118  1.0000
  C   C51       1.0  0.20571  0.02972  0.46331  1.0000
  C   C52       1.0  0.12329  0.46085  0.18039  1.0000
  C   C53       1.0  0.16520  0.41221  0.18522  1.0000
  H   H71       1.0  0.08567  0.14721  0.04145  1.0000
  H   H72       1.0  0.11611  0.18024  0.04359  1.0000
  H   H73       1.0  0.08317  0.17749  0.04498  1.0000
  N   N2        1.0  0.13955  0.40515  0.38067  1.0000
  C   C54       1.0  0.16904  0.42115  0.38896  1.0000
  C   C55       1.0  0.12406  0.38490  0.40332  1.0000
  C   C56       1.0  0.13771  0.39116  0.35354  1.0000
  C   C57       1.0  0.12761  0.42347  0.37673  1.0000
  C   C58       1.0  0.12828  0.43994  0.40261  1.0000
  C   C59       1.0  0.18678  0.44756  0.37212  1.0000
  C   C60       1.0  0.10872  0.37022  0.34363  1.0000
  C   C61       1.0  0.13192  0.36268  0.40841  1.0000
  C   C62       1.0  0.11439  0.34297  0.43123  1.0000
  C   C63       1.0  0.21684  0.45948  0.37888  1.0000
  C   C64       1.0  0.10971  0.35641  0.31692  1.0000
  H   H74       1.0  0.17865  0.40823  0.38714  1.0000
  H   H75       1.0  0.17123  0.42682  0.41125  1.0000
  H   H76       1.0  0.12718  0.39553  0.42346  1.0000
  H   H77       1.0  0.10184  0.37487  0.39951  1.0000
  H   H78       1.0  0.14986  0.38065  0.35431  1.0000
  H   H79       1.0  0.14698  0.40642  0.33656  1.0000
  H   H80       1.0  0.13747  0.43768  0.35901  1.0000
  H   H81       1.0  0.10593  0.41147  0.37069  1.0000
  H   H82       1.0  0.14826  0.44967  0.41305  1.0000
  H   H83       1.0  0.11275  0.42627  0.41781  1.0000
  H   H84       1.0  0.18416  0.44372  0.34958  1.0000
  H   H85       1.0  0.18124  0.46329  0.37696  1.0000
  H   H86       1.0  0.09668  0.38032  0.33928  1.0000
  H   H87       1.0  0.09781  0.35392  0.35919  1.0000
  H   H88       1.0  0.12932  0.35060  0.38950  1.0000
  H   H89       1.0  0.15334  0.37208  0.41517  1.0000
  H   H90       1.0  0.20849  0.16394  0.99076  1.0000
  H   H91       1.0  0.12060  0.32748  0.43482  1.0000
  H   H92       1.0  0.11709  0.35239  0.10173  1.0000
  C   C65       1.0  0.19532  0.21701  0.38158  1.0000
  C   C66       1.0  0.11101  0.15970  0.98974  1.0000
  C   C67       1.0  0.22700  0.22539  0.46922  1.0000
  H   H93       1.0  0.11954  0.37169  0.30017  1.0000
  H   H94       1.0  0.12114  0.34544  0.32016  1.0000
  H   H95       1.0  0.08882  0.34151  0.31022  1.0000
  C   C68       1.0  0.21690  0.23793  0.07963  1.0000
  Fe  Fe10      1.0  0.25983  0.16240  0.44329  1.0000
  H   H96       1.0  0.22377  0.44490  0.37343  1.0000
  H   H97       1.0  0.23000  0.46086  0.16236  1.0000
  H   H98       1.0  0.14356  0.36995  0.15417  1.0000
  H   H99       1.0  0.22053  0.20113  0.39808  1.0000
  H   H100      1.0  0.25541  0.18951  0.09135  1.0000
  H   H101      1.0  0.19249  0.26442  0.44395  1.0000
  C   C69       1.0  0.15986  0.49116  0.32526  1.0000
  H   H102      1.0  0.10600  0.35558  0.24988  1.0000
  H   H103      1.0  0.12366  0.39495  0.21862  1.0000
  H   H104      1.0  0.23076  0.21172  0.09550  1.0000
  H   H105      1.0  0.25014  0.32729  0.35208  1.0000
  N   N3        1.0  0.13616  0.39915  0.17552  1.0000
  H   H106      1.0  0.12006  0.47216  0.41399  1.0000
  C   C70       1.0  0.20222  0.23789  0.40522  1.0000
  H   H107      1.0  0.10162  0.45003  0.17415  1.0000
  H   H108      1.0  0.18529  0.18217  0.40840  1.0000
  H   H109      1.0  0.21395  0.46087  0.19451  1.0000
  C   C71       1.0  0.25576  0.09421  0.29567  1.0000
  H   H110      1.0  0.06243  0.26657  0.41275  1.0000
  C   C72       1.0  0.10013  0.34181  0.23175  1.0000
  H   H111      1.0  0.17052  0.39642  0.19075  1.0000
  C   C73       1.0  0.11870  0.35624  0.20708  1.0000
  C   C74       1.0  0.16599  0.24865  0.39332  1.0000
  H   H112      1.0  0.02993  0.24358  0.02996  1.0000
  H   H113      1.0  0.11173  0.34154  0.18972  1.0000
  H   H114      1.0  0.13823  0.38066  0.07933  1.0000
  H   H115      1.0  0.24246  0.28258  0.43568  1.0000
  C   C75       1.0  0.09506  0.17202  0.00394  1.0000
  H   H116      1.0  0.22060  0.46447  0.40126  1.0000
  H   H117      1.0  0.20605  0.26408  0.35626  1.0000
  H   H118      1.0  0.24388  0.31027  0.41587  1.0000
  H   H119      1.0  0.18833  0.29495  0.35995  1.0000
  H   H120      1.0  0.16094  0.26524  0.39271  1.0000
  H   H121      1.0  0.16112  0.23975  0.37216  1.0000
  H   H122      1.0  0.22839  0.32512  0.45682  1.0000
  H   H123      1.0  0.07359  0.16167  0.99721  1.0000
  H   H124      1.0  0.22575  0.33640  0.33983  1.0000
  H   H125      1.0  0.21280  0.31522  0.38589  1.0000
  H   H126      1.0  0.19505  0.17918  0.37370  1.0000
  H   H127      1.0  0.21118  0.24214  0.10024  1.0000
  C   C76       1.0  0.24645  0.14046  0.07817  1.0000
  C   C77       1.0  0.23921  0.23059  0.08289  1.0000
  C   C78       1.0  0.19917  0.17657  0.46633  1.0000
  H   H128      1.0  0.25517  0.14609  0.09933  1.0000
  C   C79       1.0  0.05727  0.24497  0.41427  1.0000
  H   H129      1.0  0.02612  0.25347  0.06443  1.0000
  H   H130      1.0  0.24183  0.09761  0.30900  1.0000
  H   H131      1.0  0.24491  0.07278  0.28855  1.0000
  H   H132      1.0  0.02638  0.20526  0.40223  1.0000
  H   H133      1.0  0.10270  0.45407  0.38310  1.0000
  H   H134      1.0  0.13869  0.47821  0.38226  1.0000
  H   H135      1.0  0.22541  0.30681  0.32599  1.0000
  H   H136      1.0  0.23168  0.21499  0.04082  1.0000
  H   H137      1.0  0.25119  0.15824  0.03778  1.0000
  H   H138      1.0  0.20886  0.22678  0.36354  1.0000
  C   C80       1.0  0.25262  0.18742  0.06846  1.0000
  C   C81       1.0  0.02593  0.50804  0.46459  1.0000
  C   C82       1.0  0.20565  0.18071  0.98449  1.0000
  H   H139      1.0  0.01984  0.43289  0.31140  1.0000
  H   H140      1.0  0.17655  0.50666  0.33706  1.0000
  H   H141      1.0  0.24863  0.10237  0.13624  1.0000
  H   H142      1.0  0.10130  0.13820  0.99690  1.0000
  H   H143      1.0  0.03126  0.46028  0.28672  1.0000
  H   H144      1.0  0.22684  0.29732  0.47687  1.0000
  C   C83       1.0  0.25925  0.16525  0.05898  1.0000
  H   H145      1.0  0.25883  0.32383  0.46378  1.0000
  H   H146      1.0  0.25601  0.24722  0.09470  1.0000
  H   H147      1.0  0.01718  0.43729  0.19173  1.0000
  H   H148      1.0  0.16662  0.13069  0.95297  1.0000
  C   C84       1.0  0.08832  0.42213  0.89178  1.0000
  H   H149      1.0  0.07955  0.44315  0.71709  1.0000
  S   S21       1.0  0.21295  0.05238  0.94652  1.0000
  H   H150      1.0  0.11056  0.39404  0.91411  1.0000
  S   S22       1.0  0.22925  0.18011  0.93419  1.0000
  C   C85       1.0  0.01300  0.50239  0.51394  1.0000
  H   H151      1.0  0.18355  0.22421  0.61982  1.0000
  Fe  Fe11      1.0  0.23086  0.42170  0.78303  1.0000
  S   S23       1.0  0.21914  0.37953  0.76827  1.0000
  Fe  Fe12      1.0  0.17130  0.40926  0.78595  1.0000
  S   S24       1.0  0.15592  0.36628  0.77140  1.0000
  S   S25       1.0  0.13726  0.41783  0.79878  1.0000
  Fe  Fe13      1.0  0.18631  0.36576  0.80091  1.0000
  S   S26       1.0  0.17347  0.32909  0.82931  1.0000
  Fe  Fe14      1.0  0.18935  0.38307  0.73958  1.0000
  S   S27       1.0  0.18050  0.37318  0.69267  1.0000
  S   S28       1.0  0.19967  0.40738  0.81727  1.0000
  S   S29       1.0  0.20315  0.42654  0.75250  1.0000
  Fe  Fe15      1.0  0.14460  0.24176  0.50222  1.0000
  S   S30       1.0  0.17852  0.28261  0.51478  1.0000
  H   H152      1.0  0.23728  0.38851  0.90634  1.0000
  Fe  Fe16      1.0  0.10106  0.25841  0.51053  1.0000
  S   S31       1.0  0.13266  0.30080  0.52325  1.0000
  H   H153      1.0  0.06222  0.49522  0.78336  1.0000
  H   H154      1.0  0.09887  0.25704  0.63709  1.0000
  S   S32       1.0  0.16559  0.33333  0.96063  1.0000
  Fe  Fe17      1.0  0.15138  0.28162  0.54951  1.0000
  S   S33       1.0  0.16481  0.28852  0.59553  1.0000
  H   H155      1.0  0.11631  0.30681  0.68194  1.0000
  S   S34       1.0  0.11845  0.23917  0.53856  1.0000
  C   C86       1.0  0.17610  0.34912  0.66617  1.0000
  C   C87       1.0  0.17320  0.35509  0.63837  1.0000
  C   C88       1.0  0.16985  0.33702  0.61660  1.0000
  C   C89       1.0  0.16883  0.31227  0.62223  1.0000
  C   C90       1.0  0.17159  0.30620  0.65002  1.0000
  C   C91       1.0  0.17523  0.32442  0.67179  1.0000
  H   H156      1.0  0.17411  0.37419  0.63358  1.0000
  H   H157      1.0  0.16881  0.34264  0.59541  1.0000
  H   H158      1.0  0.17108  0.28730  0.65480  1.0000
  H   H159      1.0  0.17743  0.31938  0.69293  1.0000
  C   C92       1.0  0.17231  0.33058  0.86590  1.0000
  C   C93       1.0  0.15982  0.30628  0.88134  1.0000
  C   C94       1.0  0.15801  0.30671  0.91043  1.0000
  C   C95       1.0  0.16863  0.33152  0.92432  1.0000
  C   C96       1.0  0.18153  0.35581  0.90893  1.0000
  C   C97       1.0  0.18352  0.35537  0.87988  1.0000
  H   H160      1.0  0.15126  0.28700  0.87070  1.0000
  H   H161      1.0  0.14804  0.28788  0.92205  1.0000
  H   H162      1.0  0.18979  0.37506  0.91956  1.0000
  H   H163      1.0  0.19367  0.37418  0.86831  1.0000
  H   H164      1.0  0.22712  0.26094  0.53081  1.0000
  C   C98       1.0  0.11313  0.47178  0.82172  1.0000
  C   C99       1.0  0.11386  0.44780  0.81572  1.0000
  C   C100      1.0  0.13788  0.44883  0.80661  1.0000
  C   C101      1.0  0.16116  0.47424  0.80333  1.0000
  H   H165      1.0  0.08395  0.15863  0.90606  1.0000
  S   S35       1.0  0.13012  0.25301  0.97814  1.0000
  H   H166      1.0  0.09557  0.42835  0.81777  1.0000
  H   H167      1.0  0.17975  0.47547  0.79618  1.0000
  H   H168      1.0  0.01714  0.43549  0.78786  1.0000
  H   H169      1.0  0.01311  0.45051  0.86139  1.0000
  H   H170      1.0  0.04118  0.24451  0.96951  1.0000
  H   H171      1.0  0.25395  0.07899  0.59674  1.0000
  S   S36       1.0  0.24642  0.12243  0.91247  1.0000
  C   C102      1.0  0.20979  0.21376  0.95024  1.0000
  H   H172      1.0  0.16473  0.40268  0.91408  1.0000
  H   H173      1.0  0.21038  0.14496  0.87315  1.0000
  H   H174      1.0  0.13756  0.20457  0.96570  1.0000
  H   H175      1.0  0.21764  0.21400  0.60326  1.0000
  H   H176      1.0  0.21619  0.22284  0.92991  1.0000
  C   C103      1.0  0.08993  0.32843  0.90948  1.0000
  Fe  Fe18      1.0  0.24806  0.15321  0.94310  1.0000
  H   H177      1.0  0.07362  0.29217  0.93536  1.0000
  C   C104      1.0  0.25022  0.17953  0.86530  1.0000
  H   H178      1.0  0.25323  0.26815  0.55537  1.0000
  C   C105      1.0  0.13215  0.15231  0.94933  1.0000
  H   H179      1.0  0.24553  0.41161  0.85490  1.0000
  C   C106      1.0  0.12527  0.12319  0.95795  1.0000
  H   H180      1.0  0.13387  0.35289  0.83402  1.0000
  C   C107      1.0  0.02273  0.45946  0.68268  1.0000
  H   H181      1.0  0.25566  0.35390  0.79428  1.0000
  C   C108      1.0  0.04183  0.45482  0.70130  1.0000
  H   H182      1.0  0.12614  0.32167  0.57404  1.0000
  C   C109      1.0  0.05242  0.11723  0.90808  1.0000
  C   C110      1.0  0.08283  0.30685  0.58137  1.0000
  H   H183      1.0  0.11545  0.42822  0.71765  1.0000
  H   H184      1.0  0.12715  0.18676  0.90463  1.0000
  H   H185      1.0  0.07846  0.31652  0.89117  1.0000
  H   H186      1.0  0.05035  0.11561  0.88518  1.0000
  C   C111      1.0  0.02665  0.20090  0.48671  1.0000
  H   H187      1.0  0.13693  0.36397  0.55018  1.0000
  H   H188      1.0  0.09456  0.47063  0.82878  1.0000
  H   H189      1.0  0.07055  0.15088  0.95377  1.0000
  C   C112      1.0  0.14431  0.22900  0.91435  1.0000
  H   H190      1.0  0.08952  0.39986  0.85666  1.0000
  H   H191      1.0  0.22854  0.34130  0.81914  1.0000
  C   C113      1.0  0.14548  0.39355  0.87279  1.0000
  C   C114      1.0  0.02714  0.22320  0.49953  1.0000
  C   C115      1.0  0.04705  0.27055  0.60864  1.0000
  C   C116      1.0  0.11539  0.46062  0.74184  1.0000
  H   H192      1.0  0.10786  0.33633  0.53377  1.0000
  H   H193      1.0  0.25955  0.22734  0.56994  1.0000
  H   H194      1.0  0.12523  0.22981  0.91287  1.0000
  H   H195      1.0  0.25334  0.01450  0.53835  1.0000
  H   H196      1.0  0.07986  0.21670  0.58865  1.0000
  H   H197      1.0  0.10148  0.32854  0.68236  1.0000
  H   H198      1.0  0.08240  0.26028  0.57700  1.0000
  H   H199      1.0  0.08049  0.37036  0.89712  1.0000
  C   C117      1.0  0.19121  0.43348  0.88553  1.0000
  C   C118      1.0  0.19721  0.22361  0.96837  1.0000
  H   H200      1.0  0.25797  0.39174  0.82078  1.0000
  H   H201      1.0  0.06416  0.23553  0.62594  1.0000
  C   C119      1.0  0.11232  0.34041  0.84025  1.0000
  H   H202      1.0  0.07400  0.26954  0.66141  1.0000
  N   N4        1.0  0.07743  0.28724  0.60510  1.0000
  H   H203      1.0  0.15361  0.42592  0.90303  1.0000
  C   C120      1.0  0.08102  0.13957  0.91574  1.0000
  H   H204      1.0  0.06714  0.40702  0.89752  1.0000
  C   C121      1.0  0.12289  0.19064  0.94998  1.0000
  H   H205      1.0  0.01918  0.46398  0.80621  1.0000
  H   H206      1.0  0.24206  0.17968  0.55390  1.0000
  C   C122      1.0  0.18447  0.22570  0.56175  1.0000
  C   C123      1.0  0.23879  0.08098  0.52929  1.0000
  C   C124      1.0  0.21939  0.21410  0.55127  1.0000
  H   H207      1.0  0.21650  0.15550  0.83732  1.0000
  H   H208      1.0  0.15821  0.20108  0.92350  1.0000
  C   C125      1.0  0.16393  0.19557  0.56894  1.0000
  H   H209      1.0  0.20830  0.08727  0.50871  1.0000
  C   C126      1.0  0.22920  0.28576  0.56589  1.0000
  H   H210      1.0  0.14536  0.11654  0.92275  1.0000
  H   H211      1.0  0.10617  0.47397  0.70295  1.0000
  C   C127      1.0  0.13503  0.19054  0.57128  1.0000
  H   H212      1.0  0.10354  0.35888  0.55693  1.0000
  H   H213      1.0  0.18110  0.22882  0.53963  1.0000
  H   H214      1.0  0.17857  0.23885  0.57322  1.0000
  H   H215      1.0  0.20325  0.44773  0.90233  1.0000
  H   H216      1.0  0.12606  0.12144  0.98080  1.0000
  H   H217      1.0  0.21155  0.21119  0.52969  1.0000
  H   H218      1.0  0.20816  0.19366  0.56120  1.0000
  H   H219      1.0  0.23742  0.28994  0.58728  1.0000
  H   H220      1.0  0.20158  0.42224  0.87899  1.0000
  C   C128      1.0  0.04910  0.47520  0.77359  1.0000
  H   H221      1.0  0.05005  0.44434  0.68857  1.0000
  H   H222      1.0  0.16396  0.18212  0.55226  1.0000
  H   H223      1.0  0.16926  0.18928  0.58868  1.0000
  H   H224      1.0  0.03704  0.12200  0.91633  1.0000
  C   C129      1.0  0.11261  0.33009  0.57772  1.0000
  H   H225      1.0  0.20802  0.28159  0.56618  1.0000
  H   H226      1.0  0.13069  0.34504  0.89332  1.0000
  C   C130      1.0  0.09693  0.30708  0.68314  1.0000
  H   H227      1.0  0.24362  0.32855  0.55839  1.0000
  H   H228      1.0  0.14392  0.44579  0.74061  1.0000
  H   H229      1.0  0.09784  0.34276  0.79902  1.0000
  H   H230      1.0  0.03761  0.23804  0.57817  1.0000
  N   N5        1.0  0.21390  0.23418  0.56643  1.0000
  H   H231      1.0  0.12116  0.16907  0.57738  1.0000
  H   H232      1.0  0.13375  0.20400  0.58712  1.0000
  H   H233      1.0  0.12820  0.19414  0.55093  1.0000
  H   H234      1.0  0.23825  0.26405  0.64648  1.0000
  H   H235      1.0  0.19850  0.05210  0.51362  1.0000
  H   H236      1.0  0.19860  0.07213  0.54267  1.0000
  H   H237      1.0  0.08799  0.43810  0.87862  1.0000
  H   H238      1.0  0.15265  0.16655  0.95768  1.0000
  C   C131      1.0  0.20197  0.02261  0.96742  1.0000
  H   H239      1.0  0.03530  0.47694  0.75856  1.0000
  H   H240      1.0  0.01845  0.47259  0.97258  1.0000
  C   C132      1.0  0.24933  0.01442  0.56077  1.0000
  S   S37       1.0  0.05761  0.25103  0.51261  1.0000
  H   H241      1.0  0.10520  0.31995  0.94767  1.0000
  H   H242      1.0  0.13474  0.15359  0.92652  1.0000
  Fe  Fe19      1.0  0.15711  0.29866  0.48781  1.0000
  C   C133      1.0  0.21422  0.19236  0.95822  1.0000
  C   C134      1.0  0.09286  0.22721  0.60681  1.0000
  C   C135      1.0  0.03134  0.45583  0.79650  1.0000
  C   C136      1.0  0.13839  0.20036  0.92198  1.0000
  C   C137      1.0  0.22581  0.15265  0.85636  1.0000
  H   H243      1.0  0.25045  0.35221  0.96424  1.0000
  H   H244      1.0  0.20509  0.25045  0.66163  1.0000
  C   C138      1.0  0.09538  0.46416  0.72263  1.0000
  H   H245      1.0  0.23893  0.30921  0.52739  1.0000
  H   H246      1.0  0.09538  0.13395  0.90662  1.0000
  H   H247      1.0  0.24664  0.02357  0.93176  1.0000
  H   H248      1.0  0.11253  0.31003  0.63135  1.0000
  H   H249      1.0  0.08975  0.32294  0.63060  1.0000
  H   H250      1.0  0.25646  0.22480  0.82155  1.0000
  C   C139      1.0  0.20468  0.24128  0.61800  1.0000
  C   C140      1.0  0.16269  0.41364  0.89597  1.0000
  H   H251      1.0  0.07527  0.12254  0.95720  1.0000
  H   H252      1.0  0.12213  0.42473  0.86982  1.0000
  C   C141      1.0  0.09370  0.30912  0.92882  1.0000
  C   C142      1.0  0.11528  0.34836  0.55312  1.0000
  H   H253      1.0  0.19038  0.44552  0.86768  1.0000
  H   H254      1.0  0.15781  0.24386  0.93004  1.0000
  C   C143      1.0  0.16030  0.49824  0.80887  1.0000
  H   H255      1.0  0.07792  0.49369  0.69446  1.0000
  C   C144      1.0  0.24946  0.22120  0.54944  1.0000
  H   H256      1.0  0.24946  0.35244  0.91361  1.0000
  C   C145      1.0  0.11768  0.35305  0.90110  1.0000
  H   H257      1.0  0.02946  0.44107  0.71833  1.0000
  C   C146      1.0  0.07809  0.29065  0.65940  1.0000
  H   H258      1.0  0.12748  0.36368  0.92068  1.0000
  C   C147      1.0  0.08965  0.26980  0.59768  1.0000
  C   C148      1.0  0.13014  0.44845  0.72619  1.0000
  H   H259      1.0  0.11036  0.32390  0.85416  1.0000
  H   H260      1.0  0.15676  0.38336  0.86590  1.0000
  N   N6        1.0  0.11679  0.37264  0.88042  1.0000
  C   C149      1.0  0.25085  0.35112  0.81677  1.0000
  H   H261      1.0  0.24215  0.19036  0.51844  1.0000
  H   H262      1.0  0.15475  0.23506  0.89398  1.0000
  C   C150      1.0  0.24595  0.31189  0.54921  1.0000
  H   H263      1.0  0.14581  0.40571  0.85448  1.0000
  H   H264      1.0  0.23195  0.13717  0.85248  1.0000
  H   H265      1.0  0.14253  0.46217  0.70908  1.0000
  H   H266      1.0  0.10008  0.43195  0.91083  1.0000
  H   H267      1.0  0.24284  0.24849  0.60011  1.0000
  H   H268      1.0  0.05347  0.44272  0.75521  1.0000
  H   H269      1.0  0.08720  0.29811  0.70334  1.0000
  H   H270      1.0  0.08048  0.46505  0.77651  1.0000
  C   C151      1.0  0.10212  0.35823  0.85433  1.0000
  C   C152      1.0  0.20924  0.07254  0.52327  1.0000
  H   H271      1.0  0.07433  0.31334  0.81922  1.0000
  C   C153      1.0  0.10206  0.38579  0.89329  1.0000
  H   H272      1.0  0.05857  0.29038  0.66229  1.0000
  C   C154      1.0  0.09603  0.32704  0.81409  1.0000
  H   H273      1.0  0.11446  0.23769  0.60052  1.0000
  H   H274      1.0  0.10407  0.44643  0.75902  1.0000
  H   H275      1.0  0.10478  0.30033  0.91807  1.0000
  C   C155      1.0  0.14578  0.11611  0.94575  1.0000
  H   H276      1.0  0.04406  0.45378  0.81277  1.0000
  H   H277      1.0  0.19420  0.24024  0.96204  1.0000
  H   H278      1.0  0.07744  0.33534  0.92067  1.0000
  H   H279      1.0  0.12017  0.34334  0.59621  1.0000
  C   C156      1.0  0.10151  0.40855  0.87580  1.0000
  H   H280      1.0  0.08974  0.21167  0.62268  1.0000
  H   H281      1.0  0.07019  0.31672  0.58361  1.0000
  H   H282      1.0  0.10408  0.31486  0.80419  1.0000
  H   H283      1.0  0.07998  0.34541  0.85818  1.0000
  C   C157      1.0  0.23142  0.26184  0.55345  1.0000
  C   C158      1.0  0.25837  0.37578  0.86258  1.0000
  C   C159      1.0  0.08545  0.24747  0.61894  1.0000
  C   C160      1.0  0.06670  0.46467  0.75995  1.0000
  C   C161      1.0  0.02279  0.22519  0.97223  1.0000
  C   C162      1.0  0.09056  0.30370  0.63092  1.0000
  Fe  Fe20      1.0  0.24477  0.09777  0.95039  1.0000
  H   H284      1.0  0.23588  0.36557  0.86459  1.0000
  H   H285      1.0  0.11190  0.28258  0.59506  1.0000
  H   H286      1.0  0.07689  0.29583  0.56125  1.0000
  H   H287      1.0  0.10390  0.37329  0.83838  1.0000
  C   C163      1.0  0.24062  0.05891  0.54679  1.0000
  H   H288      1.0  0.10598  0.19524  0.94974  1.0000
  C   C164      1.0  0.13633  0.49721  0.81808  1.0000
  C   C165      1.0  0.03101  0.25289  0.58341  1.0000
  H   H289      1.0  0.22773  0.36351  0.95218  1.0000
  H   H290      1.0  0.23452  0.04181  0.53215  1.0000
  C   C166      1.0  0.21743  0.24621  0.64681  1.0000
  H   H291      1.0  0.24998  0.25517  0.85361  1.0000
  C   C167      1.0  0.22081  0.23427  0.59674  1.0000
  H   H292      1.0  0.24928  0.08356  0.50915  1.0000
  H   H293      1.0  0.20348  0.25952  0.61210  1.0000
  N   N7        1.0  0.11246  0.16132  0.95843  1.0000
  S   S38       1.0  0.14960  0.20539  0.49080  1.0000
  C   C168      1.0  0.08421  0.14307  0.94751  1.0000
  H   H294      1.0  0.24296  0.19409  0.86919  1.0000
  H   H295      1.0  0.24617  0.43423  0.89694  1.0000
  H   H296      1.0  0.22438  0.05101  0.56286  1.0000
  H   H297      1.0  0.24643  0.45693  0.85169  1.0000
  H   H298      1.0  0.03880  0.28422  0.61360  1.0000
  N   N8        1.0  0.08284  0.47990  0.73472  1.0000
  H   H299      1.0  0.21821  0.22802  0.65419  1.0000
  H   H300      1.0  0.04525  0.20027  0.48451  1.0000
  H   H301      1.0  0.03367  0.26564  0.56489  1.0000
  H   H302      1.0  0.10487  0.10786  0.95048  1.0000
  H   H303      1.0  0.20676  0.24706  0.48301  1.0000
  C   C169      1.0  0.25181  0.19700  0.53912  1.0000
  H   H304      1.0  0.05588  0.49411  0.71987  1.0000
  H   H305      1.0  0.01281  0.45435  0.89837  1.0000
  H   H306      1.0  0.14077  0.09538  0.95253  1.0000
  H   H307      1.0  0.25774  0.17559  0.88500  1.0000
  H   H308      1.0  0.04139  0.25655  0.62660  1.0000
  H   H309      1.0  0.24808  0.10104  0.53948  1.0000
  H   H310      1.0  0.04839  0.09727  0.91649  1.0000
  S   S39       1.0  0.06041  0.50725  0.84942  1.0000
  C   C170      1.0  0.25917  0.39498  0.90789  1.0000
  C   C171      1.0  0.24936  0.36889  0.95322  1.0000
  H   H311      1.0  0.25411  0.26687  0.81823  1.0000
  H   H312      1.0  0.26088  0.38786  0.96536  1.0000
  C   C172      1.0  0.06519  0.48210  0.71257  1.0000
  H   H313      1.0  0.25785  0.33753  0.82555  1.0000
  C   C173      1.0  0.01721  0.49063  0.97687  1.0000
  S   S40       1.0  0.24348  0.12763  0.98067  1.0000
  H   H314      1.0  0.13099  0.48016  0.75086  1.0000
  H   H315      1.0  0.03407  0.47424  0.66586  1.0000
  H   H316      1.0  0.26126  0.48029  0.88012  1.0000
  C   C174      1.0  0.26120  0.37237  0.92409  1.0000
  H   H317      1.0  0.25936  0.04031  0.59588  1.0000
  H   H318      1.0  0.26062  0.23804  0.53438  1.0000
  H   H319      1.0  0.11315  0.50751  0.76396  1.0000
  C   C175      1.0  0.10579  0.50784  0.74259  1.0000
  H   H320      1.0  0.01808  0.50908  0.53515  1.0000
  Fe  Fe21      1.0  0.13524  0.84720  0.05050  1.0000
  S   S41       1.0  0.11170  0.86889  0.04236  1.0000
  S   S42       1.0  0.13026  0.82431  0.09188  1.0000
  H   H321      1.0  0.11946  0.78997  0.13989  1.0000
  C   C176      1.0  0.01719  0.83307  0.47146  1.0000
  S   S43       1.0  0.17036  0.83245  0.46792  1.0000
  Fe  Fe22      1.0  0.14678  0.89758  0.01466  1.0000
  S   S44       1.0  0.17217  0.94402  0.01983  1.0000
  Fe  Fe23      1.0  0.09471  0.84266  0.00416  1.0000
  H   H322      1.0  0.10249  0.86969  0.43406  1.0000
  S   S45       1.0  0.17107  0.87708  0.02520  1.0000
  S   S46       1.0  0.11692  0.81999  0.01356  1.0000
  Fe  Fe24      1.0  0.24372  0.82859  0.28967  1.0000
  S   S47       1.0  0.21735  0.84659  0.27940  1.0000
  Fe  Fe25      1.0  0.19503  0.77055  0.28334  1.0000
  S   S48       1.0  0.16575  0.78526  0.27244  1.0000
  S   S49       1.0  0.18686  0.72653  0.28134  1.0000
  Fe  Fe26      1.0  0.19889  0.81634  0.24478  1.0000
  S   S50       1.0  0.19973  0.83536  0.20193  1.0000
  Fe  Fe27      1.0  0.18647  0.81484  0.30764  1.0000
  S   S51       1.0  0.16462  0.82975  0.33608  1.0000
  S   S52       1.0  0.22710  0.79999  0.25351  1.0000
  S   S53       1.0  0.21376  0.79838  0.32022  1.0000
  H   H323      1.0  0.07107  0.82676  0.10175  1.0000
  S   S54       1.0  0.08338  0.54324  0.31323  1.0000
  H   H324      1.0  0.25443  0.96007  0.38639  1.0000
  H   H325      1.0  0.23341  0.88956  0.32575  1.0000
  S   S55       1.0  0.10090  0.55562  0.37841  1.0000
  N   N9        1.0  0.03374  0.79090  0.08935  1.0000
  Fe  Fe28      1.0  0.08520  0.57252  0.34559  1.0000
  S   S56       1.0  0.09681  0.61739  0.34057  1.0000
  H   H326      1.0  0.16215  0.00638  0.46624  1.0000
  S   S57       1.0  0.04216  0.54572  0.35993  1.0000
  H   H327      1.0  0.13081  0.57537  0.26397  1.0000
  Fe  Fe29      1.0  0.15055  0.85149  0.98778  1.0000
  S   S58       1.0  0.13197  0.51651  0.34301  1.0000
  H   H328      1.0  0.05169  0.56394  0.27748  1.0000
  H   H329      1.0  0.01881  0.75270  0.11164  1.0000
  C   C177      1.0  0.19992  0.63551  0.43210  1.0000
  C   C178      1.0  0.05104  0.75869  0.07137  1.0000
  C   C179      1.0  0.06014  0.60491  0.26549  1.0000
  C   C180      1.0  0.16080  0.69618  0.29695  1.0000
  C   C181      1.0  0.14105  0.69610  0.31422  1.0000
  C   C182      1.0  0.12140  0.67170  0.32691  1.0000
  C   C183      1.0  0.12121  0.64707  0.32263  1.0000
  C   C184      1.0  0.14063  0.64703  0.30495  1.0000
  C   C185      1.0  0.16026  0.67142  0.29219  1.0000
  H   H330      1.0  0.14110  0.71491  0.31806  1.0000
  H   H331      1.0  0.10647  0.67203  0.34052  1.0000
  H   H332      1.0  0.14076  0.62832  0.30143  1.0000
  H   H333      1.0  0.17538  0.67120  0.27881  1.0000
  H   H334      1.0  0.24913  0.90649  0.39963  1.0000
  C   C186      1.0  0.07122  0.78691  0.43478  1.0000
  Fe  Fe30      1.0  0.05757  0.52699  0.39108  1.0000
  C   C187      1.0  0.05106  0.60251  0.21565  1.0000
  H   H335      1.0  0.10893  0.82122  0.33418  1.0000
  C   C188      1.0  0.09321  0.87302  0.41534  1.0000
  H   H336      1.0  0.19062  0.60692  0.39976  1.0000
  H   H337      1.0  0.10179  0.82795  0.42286  1.0000
  C   C189      1.0  0.18091  0.00632  0.46976  1.0000
  C   C190      1.0  0.16946  0.83277  0.43123  1.0000
  C   C191      1.0  0.18032  0.81920  0.41631  1.0000
  C   C192      1.0  0.17936  0.81841  0.38714  1.0000
  C   C193      1.0  0.16729  0.83102  0.37265  1.0000
  C   C194      1.0  0.15677  0.84494  0.38754  1.0000
  C   C195      1.0  0.15800  0.84598  0.41668  1.0000
  H   H338      1.0  0.18927  0.80898  0.42739  1.0000
  H   H339      1.0  0.18754  0.80766  0.37591  1.0000
  H   H340      1.0  0.14776  0.85505  0.37641  1.0000
  H   H341      1.0  0.14997  0.85684  0.42788  1.0000
  C   C196      1.0  0.15028  0.82773  0.12206  1.0000
  C   C197      1.0  0.17629  0.84994  0.12617  1.0000
  C   C198      1.0  0.19096  0.85180  0.15061  1.0000
  C   C199      1.0  0.17995  0.83164  0.17148  1.0000
  C   C200      1.0  0.15396  0.80938  0.16733  1.0000
  C   C201      1.0  0.13937  0.80742  0.14280  1.0000
  H   H342      1.0  0.18509  0.86576  0.11058  1.0000
  H   H343      1.0  0.21101  0.86912  0.15343  1.0000
  H   H344      1.0  0.14515  0.79360  0.18296  1.0000
  H   H345      1.0  0.09776  0.55221  0.25030  1.0000
  H   H346      1.0  0.17930  0.62321  0.44100  1.0000
  C   C202      1.0  0.07110  0.75799  0.05088  1.0000
  C   C203      1.0  0.07955  0.79860  0.36677  1.0000
  H   H347      1.0  0.16775  0.57144  0.31468  1.0000
  H   H348      1.0  0.05366  0.84899  0.08048  1.0000
  H   H349      1.0  0.12535  0.69332  0.24982  1.0000
  C   C204      1.0  0.11605  0.61983  0.42085  1.0000
  N   N10       1.0  0.07287  0.60940  0.23714  1.0000
  C   C205      1.0  0.08491  0.59131  0.23262  1.0000
  H   H350      1.0  0.04891  0.77832  0.14249  1.0000
  C   C206      1.0  0.09515  0.63864  0.23487  1.0000
  H   H351      1.0  0.07465  0.63187  0.18244  1.0000
  H   H352      1.0  0.03634  0.58028  0.21585  1.0000
  C   C207      1.0  0.10674  0.59426  0.25377  1.0000
  C   C208      1.0  0.09063  0.89818  0.42072  1.0000
  C   C209      1.0  0.02515  0.57326  0.30036  1.0000
  C   C210      1.0  0.07789  0.82368  0.37640  1.0000
  C   C211      1.0  0.11538  0.57310  0.24847  1.0000
  C   C212      1.0  0.11030  0.68894  0.23307  1.0000
  H   H353      1.0  0.11169  0.79408  0.44452  1.0000
  H   H354      1.0  0.06868  0.56965  0.23210  1.0000
  H   H355      1.0  0.22077  0.63840  0.39347  1.0000
  H   H356      1.0  0.05160  0.84564  0.42686  1.0000
  H   H357      1.0  0.10709  0.64202  0.21554  1.0000
  H   H358      1.0  0.10996  0.64369  0.25205  1.0000
  H   H359      1.0  0.07593  0.61395  0.28191  1.0000
  H   H360      1.0  0.04307  0.81772  0.12440  1.0000
  H   H361      1.0  0.09482  0.59533  0.21198  1.0000
  H   H362      1.0  0.24071  0.92820  0.35533  1.0000
  H   H363      1.0  0.12515  0.61457  0.25180  1.0000
  H   H364      1.0  0.09926  0.59166  0.27536  1.0000
  H   H365      1.0  0.04857  0.61590  0.26716  1.0000
  H   H366      1.0  0.02268  0.57905  0.16675  1.0000
  H   H367      1.0  0.19016  0.72085  0.35143  1.0000
  C   C213      1.0  0.18641  0.63062  0.35296  1.0000
  C   C214      1.0  0.23754  0.94724  0.00907  1.0000
  C   C215      1.0  0.19748  0.66910  0.38327  1.0000
  H   H368      1.0  0.14564  0.65679  0.40148  1.0000
  H   H369      1.0  0.19638  0.68226  0.34065  1.0000
  H   H370      1.0  0.03308  0.77877  0.40090  1.0000
  C   C216      1.0  0.03675  0.60137  0.16561  1.0000
  H   H371      1.0  0.07643  0.89442  0.43814  1.0000
  H   H372      1.0  0.01949  0.85285  0.46710  1.0000
  C   C217      1.0  0.04107  0.83462  0.06403  1.0000
  H   H373      1.0  0.09244  0.78485  0.33099  1.0000
  H   H374      1.0  0.25066  0.84118  0.17957  1.0000
  H   H375      1.0  0.09918  0.84061  0.37679  1.0000
  H   H376      1.0  0.23966  0.63990  0.44039  1.0000
  H   H377      1.0  0.05118  0.77700  0.44531  1.0000
  C   C218      1.0  0.19659  0.71181  0.36823  1.0000
  H   H378      1.0  0.15822  0.64582  0.42978  1.0000
  C   C219      1.0  0.18765  0.68228  0.36123  1.0000
  H   H379      1.0  0.19292  0.59556  0.35577  1.0000
  H   H380      1.0  0.21900  0.72397  0.37010  1.0000
  H   H381      1.0  0.12434  0.57585  0.22746  1.0000
  H   H382      1.0  0.03960  0.58409  0.31744  1.0000
  N   N11       1.0  0.18401  0.63847  0.38229  1.0000
  H   H383      1.0  0.10971  0.63075  0.43537  1.0000
  H   H384      1.0  0.11440  0.60173  0.43171  1.0000
  H   H385      1.0  0.07817  0.79049  0.12006  1.0000
  H   H386      1.0  0.05206  0.52261  0.21161  1.0000
  C   C220      1.0  0.15431  0.62432  0.39015  1.0000
  H   H387      1.0  0.16530  0.67092  0.35936  1.0000
  H   H388      1.0  0.06571  0.76022  0.02926  1.0000
  H   H389      1.0  0.07413  0.80233  0.32249  1.0000
  H   H390      1.0  0.22005  0.93102  0.02057  1.0000
  C   C221      1.0  0.24524  0.91411  0.45534  1.0000
  H   H391      1.0  0.24886  0.89904  0.44445  1.0000
  C   C222      1.0  0.19942  0.62935  0.40084  1.0000
  H   H392      1.0  0.07719  0.82546  0.44696  1.0000
  H   H393      1.0  0.20774  0.64270  0.34549  1.0000
  C   C223      1.0  0.20569  0.99836  0.00756  1.0000
  H   H394      1.0  0.01372  0.85117  0.06479  1.0000
  H   H395      1.0  0.14798  0.60369  0.39854  1.0000
  C   C224      1.0  0.07967  0.81677  0.42725  1.0000
  H   H396      1.0  0.15797  0.58660  0.35923  1.0000
  Fe  Fe31      1.0  0.09605  0.52410  0.34697  1.0000
  H   H397      1.0  0.09453  0.79638  0.37969  1.0000
  C   C225      1.0  0.23627  0.88890  0.34845  1.0000
  S   S59       1.0  0.05087  0.80951  0.99464  1.0000
  C   C226      1.0  0.06079  0.60972  0.18516  1.0000
  C   C227      1.0  0.03316  0.51592  0.22252  1.0000
  C   C228      1.0  0.17268  0.59286  0.31747  1.0000
  H   H398      1.0  0.07658  0.65935  0.25665  1.0000
  H   H399      1.0  0.25797  0.89584  0.35247  1.0000
  H   H400      1.0  0.22381  0.86749  0.35552  1.0000
  S   S60       1.0  0.05066  0.52701  0.43840  1.0000
  H   H401      1.0  0.07132  0.65727  0.21972  1.0000
  C   C229      1.0  0.25200  0.95320  0.40832  1.0000
  H   H402      1.0  0.05966  0.77969  0.36789  1.0000
  H   H403      1.0  0.04412  0.60663  0.14393  1.0000
  H   H404      1.0  0.20742  0.65735  0.43596  1.0000
  H   H405      1.0  0.03873  0.78200  0.04675  1.0000
  H   H406      1.0  0.05686  0.85368  0.39096  1.0000
  H   H407      1.0  0.17419  0.63568  0.33868  1.0000
  H   H408      1.0  0.10192  0.61291  0.40292  1.0000
  C   C230      1.0  0.08932  0.80204  0.33677  1.0000
  H   H409      1.0  0.08324  0.90383  0.40190  1.0000
  H   H410      1.0  0.24929  0.97163  0.44776  1.0000
  H   H411      1.0  0.21810  0.63192  0.47034  1.0000
  C   C231      1.0  0.09155  0.78570  0.45461  1.0000
  H   H412      1.0  0.09091  0.80713  0.16777  1.0000
  C   C232      1.0  0.08605  0.66025  0.23631  1.0000
  C   C233      1.0  0.04869  0.78464  0.06727  1.0000
  H   H413      1.0  0.06952  0.80228  0.06429  1.0000
  H   H414      1.0  0.05771  0.75705  0.09243  1.0000
  C   C234      1.0  0.06503  0.84790  0.40912  1.0000
  H   H415      1.0  0.07140  0.59884  0.17830  1.0000
  H   H416      1.0  0.24109  0.98440  0.41690  1.0000
  C   C235      1.0  0.18321  0.97376  0.99883  1.0000
  H   H417      1.0  0.14138  0.62064  0.37152  1.0000
  C   C236      1.0  0.14515  0.63878  0.41121  1.0000
  H   H418      1.0  0.12029  0.69135  0.21267  1.0000
  H   H419      1.0  0.21143  0.60578  0.44542  1.0000
  N   N12       1.0  0.22634  0.92614  0.41189  1.0000
  C   C237      1.0  0.22178  0.91648  0.44166  1.0000
  C   C238      1.0  0.20202  0.92739  0.40103  1.0000
  C   C239      1.0  0.22939  0.90532  0.39510  1.0000
  C   C240      1.0  0.01630  0.80158  0.38237  1.0000
  C   C241      1.0  0.02590  0.84713  0.04958  1.0000
  C   C242      1.0  0.22760  0.90721  0.36308  1.0000
  C   C243      1.0  0.18784  0.93769  0.42116  1.0000
  C   C244      1.0  0.16920  0.94545  0.40573  1.0000
  H   H420      1.0  0.02342  0.80152  0.36101  1.0000
  C   C245      1.0  0.17714  0.60012  0.34820  1.0000
  H   H421      1.0  0.21786  0.92986  0.45520  1.0000
  H   H422      1.0  0.20753  0.93994  0.38177  1.0000
  H   H423      1.0  0.18572  0.90668  0.39491  1.0000
  H   H424      1.0  0.21360  0.88430  0.40111  1.0000
  H   H425      1.0  0.06954  0.77461  0.41642  1.0000
  H   H426      1.0  0.18709  0.71295  0.38788  1.0000
  H   H427      1.0  0.19517  0.67616  0.40391  1.0000
  H   H428      1.0  0.15541  0.59478  0.30945  1.0000
  H   H429      1.0  0.10740  0.87779  0.39776  1.0000
  H   H430      1.0  0.21980  0.67837  0.38035  1.0000
  H   H431      1.0  0.20641  0.90046  0.35668  1.0000
  H   H432      1.0  0.17527  0.92126  0.43597  1.0000
  H   H433      1.0  0.20202  0.95534  0.43360  1.0000
  H   H434      1.0  0.15348  0.92781  0.39400  1.0000
  H   H435      1.0  0.15902  0.95210  0.42089  1.0000
  H   H436      1.0  0.18108  0.96262  0.39124  1.0000
  H   H437      1.0  0.19120  0.60624  0.30530  1.0000
  Fe  Fe32      1.0  0.04137  0.51548  0.32941  1.0000
  H   H438      1.0  0.20299  0.89622  0.44328  1.0000
  N   N13       1.0  0.06444  0.82132  0.40397  1.0000
  C   C246      1.0  0.21844  0.62778  0.44792  1.0000
  H   H439      1.0  0.03883  0.61231  0.22068  1.0000
  H   H440      1.0  0.11068  0.91552  0.42651  1.0000
  H   H441      1.0  0.07078  0.82354  0.16593  1.0000
  H   H442      1.0  0.05455  0.83293  0.04867  1.0000
  H   H443      1.0  0.25711  0.74717  0.26126  1.0000
  H   H444      1.0  0.25629  0.95279  0.02098  1.0000
  H   H445      1.0  0.06803  0.82940  0.35982  1.0000
  H   H446      1.0  0.09196  0.77461  0.05549  1.0000
  H   H447      1.0  0.21590  0.99869  0.02662  1.0000
  H   H448      1.0  0.07084  0.73834  0.05280  1.0000
  H   H449      1.0  0.10341  0.70411  0.23439  1.0000
  H   H450      1.0  0.09364  0.79743  0.47368  1.0000
  H   H451      1.0  0.10014  0.83470  0.14371  1.0000
  C   C247      1.0  0.03510  0.79903  0.40406  1.0000
  S   S61       1.0  0.14451  0.88463  0.47693  1.0000
  C   C248      1.0  0.05313  0.80909  0.11141  1.0000
  H   H452      1.0  0.03112  0.74023  0.06778  1.0000
  C   C249      1.0  0.08272  0.81674  0.15353  1.0000
  H   H453      1.0  0.02503  0.56393  0.25751  1.0000
  C   C250      1.0  0.04039  0.57490  0.27376  1.0000
  C   C251      1.0  0.06500  0.79628  0.13145  1.0000
  C   C252      1.0  0.02109  0.80621  0.07615  1.0000
  H   H454      1.0  0.23503  0.96541  0.00757  1.0000
  H   H455      1.0  0.02618  0.79789  0.42487  1.0000
  H   H456      1.0  0.04068  0.86665  0.03960  1.0000
  H   H457      1.0  0.08449  0.76427  0.46058  1.0000
  C   C253      1.0  0.22902  0.00598  0.47938  1.0000
  H   H458      1.0  0.02554  0.61212  0.17092  1.0000
  C   C254      1.0  0.01935  0.80628  0.98420  1.0000
  C   C255      1.0  0.01342  0.53667  0.98827  1.0000
  H   H459      1.0  0.26239  0.77639  0.28065  1.0000
  C   C256      1.0  0.25447  0.97722  0.42569  1.0000
  H   H460      1.0  0.04959  0.51396  0.26234  1.0000
  H   H461      1.0  0.01527  0.82040  0.38550  1.0000
  C   C257      1.0  0.18015  0.98299  0.48127  1.0000
  C   C258      1.0  0.03187  0.51121  0.25127  1.0000
  S   S62       1.0  0.01307  0.51870  0.17177  1.0000
  H   H462      1.0  0.24335  0.92011  0.98274  1.0000
  Fe  Fe33      1.0  0.14420  0.86491  0.55499  1.0000
  S   S63       1.0  0.13352  0.89659  0.54063  1.0000
  S   S64       1.0  0.13888  0.85215  0.60113  1.0000
  H   H463      1.0  0.13110  0.84239  0.65979  1.0000
  H   H464      1.0  0.20678  0.72394  0.85202  1.0000
  S   S65       1.0  0.17487  0.84124  0.95779  1.0000
  Fe  Fe34      1.0  0.16927  0.91199  0.51158  1.0000
  H   H465      1.0  0.13015  0.55602  0.77255  1.0000
  Fe  Fe35      1.0  0.10947  0.86674  0.50679  1.0000
  H   H466      1.0  0.07910  0.73802  0.94318  1.0000
  S   S66       1.0  0.18157  0.88243  0.52840  1.0000
  S   S67       1.0  0.11792  0.83432  0.52252  1.0000
  Fe  Fe36      1.0  0.24008  0.83127  0.79438  1.0000
  S   S68       1.0  0.21905  0.85375  0.77940  1.0000
  Fe  Fe37      1.0  0.19175  0.77582  0.77770  1.0000
  S   S69       1.0  0.16749  0.79458  0.76210  1.0000
  S   S70       1.0  0.17514  0.73042  0.77073  1.0000
  Fe  Fe38      1.0  0.20600  0.82645  0.74196  1.0000
  S   S71       1.0  0.21186  0.84042  0.69629  1.0000
  Fe  Fe39      1.0  0.18236  0.82032  0.80062  1.0000
  S   S72       1.0  0.15437  0.82798  0.82778  1.0000
  S   S73       1.0  0.22995  0.80630  0.75555  1.0000
  S   S74       1.0  0.20363  0.79916  0.81757  1.0000
  C   C259      1.0  0.17003  0.97381  0.97434  1.0000
  S   S75       1.0  0.09303  0.56348  0.81222  1.0000
  Fe  Fe40      1.0  0.04995  0.53453  0.82477  1.0000
  H   H467      1.0  0.14931  0.74389  0.94978  1.0000
  S   S76       1.0  0.10869  0.56179  0.87804  1.0000
  Fe  Fe41      1.0  0.15477  0.85451  0.49485  1.0000
  Fe  Fe42      1.0  0.09558  0.58615  0.85136  1.0000
  S   S77       1.0  0.11599  0.63247  0.85767  1.0000
  H   H468      1.0  0.20394  0.94037  0.96943  1.0000
  S   S78       1.0  0.05125  0.55896  0.86202  1.0000
  H   H469      1.0  0.14099  0.71873  0.70558  1.0000
  H   H470      1.0  0.24377  0.72251  0.80330  1.0000
  C   C260      1.0  0.25412  0.99281  0.57440  1.0000
  H   H471      1.0  0.12747  0.67830  0.67559  1.0000
  H   H472      1.0  0.17838  0.51779  0.80596  1.0000
  H   H473      1.0  0.08583  0.77040  0.72176  1.0000
  C   C261      1.0  0.13190  0.72915  0.66376  1.0000
  C   C262      1.0  0.25245  0.75412  0.75778  1.0000
  C   C263      1.0  0.15871  0.70351  0.79521  1.0000
  C   C264      1.0  0.15722  0.70840  0.82334  1.0000
  C   C265      1.0  0.14448  0.68642  0.84211  1.0000
  C   C266      1.0  0.13263  0.65930  0.83304  1.0000
  C   C267      1.0  0.13426  0.65445  0.80491  1.0000
  C   C268      1.0  0.14734  0.67645  0.78617  1.0000
  H   H474      1.0  0.16606  0.72908  0.83064  1.0000
  H   H475      1.0  0.14398  0.69041  0.86386  1.0000
  H   H476      1.0  0.12542  0.63376  0.79761  1.0000
  H   H477      1.0  0.14853  0.67241  0.76449  1.0000
  C   C269      1.0  0.09651  0.66699  0.92820  1.0000
  C   C270      1.0  0.14041  0.77785  0.58959  1.0000
  C   C271      1.0  0.14354  0.91030  0.90866  1.0000
  H   H478      1.0  0.14638  0.91042  0.88588  1.0000
  H   H479      1.0  0.24940  0.99113  0.59689  1.0000
  H   H480      1.0  0.10312  0.67249  0.95004  1.0000
  H   H481      1.0  0.19721  0.77816  0.95866  1.0000
  H   H482      1.0  0.01696  0.55925  0.51955  1.0000
  H   H483      1.0  0.14450  0.74604  0.60959  1.0000
  C   C272      1.0  0.16879  0.83796  0.92172  1.0000
  C   C273      1.0  0.18618  0.83355  0.90471  1.0000
  C   C274      1.0  0.18221  0.83088  0.87589  1.0000
  C   C275      1.0  0.16058  0.83232  0.86382  1.0000
  C   C276      1.0  0.14320  0.83681  0.88083  1.0000
  C   C277      1.0  0.14733  0.83972  0.90967  1.0000
  H   H484      1.0  0.20301  0.83253  0.91385  1.0000
  H   H485      1.0  0.19601  0.82792  0.86304  1.0000
  H   H486      1.0  0.12648  0.83805  0.87164  1.0000
  H   H487      1.0  0.13388  0.84328  0.92254  1.0000
  C   C278      1.0  0.16023  0.85042  0.62742  1.0000
  C   C279      1.0  0.18573  0.85352  0.62164  1.0000
  C   C280      1.0  0.20129  0.85079  0.64303  1.0000
  C   C281      1.0  0.19175  0.84506  0.67056  1.0000
  C   C282      1.0  0.16639  0.84229  0.67641  1.0000
  C   C283      1.0  0.15073  0.84477  0.65498  1.0000
  H   H488      1.0  0.19337  0.85780  0.60064  1.0000
  H   H489      1.0  0.22085  0.85305  0.63816  1.0000
  H   H490      1.0  0.15876  0.83813  0.69742  1.0000
  H   H491      1.0  0.21275  0.89173  0.88610  1.0000
  C   C284      1.0  0.18920  0.91446  0.91857  1.0000
  H   H492      1.0  0.07905  0.78186  0.93142  1.0000
  C   C285      1.0  0.15160  0.76791  0.61294  1.0000
  C   C286      1.0  0.02640  0.83713  0.89974  1.0000
  H   H493      1.0  0.10616  0.75744  0.73696  1.0000
  H   H494      1.0  0.09394  0.67431  0.67189  1.0000
  H   H495      1.0  0.15727  0.74190  0.89630  1.0000
  H   H496      1.0  0.11185  0.80009  0.94816  1.0000
  H   H497      1.0  0.14268  0.72158  0.65042  1.0000
  S   S79       1.0  0.13629  0.52823  0.82368  1.0000
  H   H498      1.0  0.19023  0.79186  0.66394  1.0000
  H   H499      1.0  0.05026  0.81265  0.57125  1.0000
  H   H500      1.0  0.10584  0.67057  0.70541  1.0000
  H   H501      1.0  0.17779  0.89297  0.92586  1.0000
  N   N14       1.0  0.11886  0.74075  0.90145  1.0000
  C   C287      1.0  0.09261  0.78042  0.94709  1.0000
  C   C288      1.0  0.10839  0.75961  0.90983  1.0000
  C   C289      1.0  0.11311  0.73450  0.87094  1.0000
  C   C290      1.0  0.14913  0.75432  0.90552  1.0000
  Fe  Fe43      1.0  0.10358  0.53738  0.83934  1.0000
  H   H502      1.0  0.12013  0.57511  0.75032  1.0000
  C   C291      1.0  0.12370  0.75936  0.85106  1.0000
  C   C292      1.0  0.09835  0.75750  0.94020  1.0000
  C   C293      1.0  0.02876  0.51259  0.95797  1.0000
  C   C294      1.0  0.03416  0.53246  0.74631  1.0000
  C   C295      1.0  0.20427  0.98285  0.48649  1.0000
  C   C296      1.0  0.11552  0.75021  0.82112  1.0000
  H   H503      1.0  0.08166  0.70513  0.91392  1.0000
  H   H504      1.0  0.13307  0.69950  0.91114  1.0000
  H   H505      1.0  0.12400  0.78118  0.90568  1.0000
  H   H506      1.0  0.09060  0.75585  0.89688  1.0000
  H   H507      1.0  0.09084  0.72169  0.86749  1.0000
  H   H508      1.0  0.12230  0.72239  0.86340  1.0000
  H   H509      1.0  0.01642  0.59514  0.75293  1.0000
  H   H510      1.0  0.15945  0.77392  0.89401  1.0000
  S   S80       1.0  0.12793  0.87300  0.97590  1.0000
  H   H511      1.0  0.16898  0.99778  0.93988  1.0000
  C   C297      1.0  0.20293  0.67477  0.86986  1.0000
  C   C298      1.0  0.23043  0.91222  0.92558  1.0000
  H   H512      1.0  0.14613  0.77159  0.85148  1.0000
  H   H513      1.0  0.11543  0.77279  0.85653  1.0000
  H   H514      1.0  0.05042  0.54745  0.70550  1.0000
  H   H515      1.0  0.08268  0.52823  0.75379  1.0000
  C   C299      1.0  0.11355  0.76761  0.69295  1.0000
  S   S81       1.0  0.04406  0.50938  0.92674  1.0000
  C   C300      1.0  0.21327  0.92811  0.96309  1.0000
  H   H516      1.0  0.02947  0.84626  0.87872  1.0000
  H   H517      1.0  0.23029  0.79701  0.68939  1.0000
  H   H518      1.0  0.25202  0.73478  0.75292  1.0000
  H   H519      1.0  0.21233  0.97588  0.94111  1.0000
  H   H520      1.0  0.23187  0.75130  0.75467  1.0000
  H   H521      1.0  0.14263  0.56387  0.73739  1.0000
  H   H522      1.0  0.12473  0.73804  0.81392  1.0000
  H   H523      1.0  0.09313  0.73796  0.81917  1.0000
  H   H524      1.0  0.12281  0.76834  0.80747  1.0000
  C   C301      1.0  0.03292  0.53283  0.71714  1.0000
  C   C302      1.0  0.03562  0.80566  0.48902  1.0000
  C   C303      1.0  0.10392  0.71410  0.91706  1.0000
  C   C304      1.0  0.17943  0.99803  0.95873  1.0000
  H   H525      1.0  0.14430  0.76032  0.71104  1.0000
  C   C305      1.0  0.11202  0.68203  0.68552  1.0000
  H   H526      1.0  0.15712  0.79213  0.69509  1.0000
  H   H527      1.0  0.19103  0.91375  0.89571  1.0000
  H   H528      1.0  0.22691  0.76622  0.88548  1.0000
  H   H529      1.0  0.20137  0.78934  0.92313  1.0000
  H   H530      1.0  0.09769  0.74721  0.68595  1.0000
  H   H531      1.0  0.18538  0.76681  0.71062  1.0000
  S   S82       1.0  0.06931  0.86177  0.49105  1.0000
  Fe  Fe44      1.0  0.06409  0.53334  0.88637  1.0000
  H   H532      1.0  0.12042  0.76512  0.64009  1.0000
  H   H533      1.0  0.02774  0.61075  0.71906  1.0000
  H   H534      1.0  0.16678  0.92758  0.94550  1.0000
  N   N15       1.0  0.21680  0.92866  0.93205  1.0000
  H   H535      1.0  0.15646  0.77830  0.94318  1.0000
  C   C306      1.0  0.19013  0.76088  0.69046  1.0000
  H   H536      1.0  0.11313  0.78309  0.67906  1.0000
  N   N16       1.0  0.14851  0.75975  0.66630  1.0000
  H   H537      1.0  0.12108  0.79336  0.72899  1.0000
  H   H538      1.0  0.23510  0.00468  0.90005  1.0000
  H   H539      1.0  0.19847  0.90709  0.97019  1.0000
  H   H540      1.0  0.10436  0.68459  0.88781  1.0000
  H   H541      1.0  0.18224  0.73865  0.69020  1.0000
  H   H542      1.0  0.04022  0.83723  0.57999  1.0000
  C   C307      1.0  0.26199  0.76289  0.78751  1.0000
  H   H543      1.0  0.03607  0.55301  0.95012  1.0000
  C   C308      1.0  0.10027  0.53200  0.74099  1.0000
  C   C309      1.0  0.14254  0.77260  0.64169  1.0000
  C   C310      1.0  0.22160  0.69569  0.84847  1.0000
  H   H544      1.0  0.04483  0.83134  0.54419  1.0000
  C   C311      1.0  0.12377  0.71234  0.69115  1.0000
  H   H545      1.0  0.22886  0.76780  0.70596  1.0000
  C   C312      1.0  0.02701  0.53578  0.96408  1.0000
  C   C313      1.0  0.17847  0.76927  0.66573  1.0000
  H   H546      1.0  0.11318  0.75820  0.95552  1.0000
  H   H547      1.0  0.11790  0.76630  0.58949  1.0000
  H   H548      1.0  0.17404  0.77960  0.61115  1.0000
  H   H549      1.0  0.22058  0.88411  0.48645  1.0000
  H   H550      1.0  0.25338  0.81303  0.90293  1.0000
  H   H551      1.0  0.21953  0.89196  0.93600  1.0000
  H   H552      1.0  0.08259  0.77658  0.96766  1.0000
  C   C314      1.0  0.03752  0.82149  0.56472  1.0000
  H   H553      1.0  0.13305  0.88894  0.91618  1.0000
  H   H554      1.0  0.01733  0.54697  0.56918  1.0000
  H   H555      1.0  0.15224  0.95538  0.96773  1.0000
  H   H556      1.0  0.14775  0.77498  0.56928  1.0000
  H   H557      1.0  0.14738  0.79985  0.59201  1.0000
  C   C315      1.0  0.10630  0.77248  0.72201  1.0000
  H   H558      1.0  0.15231  0.79499  0.64449  1.0000
  H   H559      1.0  0.19898  0.65421  0.86391  1.0000
  H   H560      1.0  0.05242  0.54688  0.75699  1.0000
  C   C316      1.0  0.11101  0.69185  0.90926  1.0000
  H   H561      1.0  0.09626  0.53559  0.71928  1.0000
  H   H562      1.0  0.18027  0.94774  0.91418  1.0000
  H   H563      1.0  0.18375  0.76145  0.64707  1.0000
  H   H564      1.0  0.03439  0.84865  0.97556  1.0000
  H   H565      1.0  0.11247  0.72305  0.65275  1.0000
  H   H566      1.0  0.03736  0.58302  0.56275  1.0000
  C   C317      1.0  0.22649  0.72453  0.85520  1.0000
  S   S83       1.0  0.20483  0.95472  0.50231  1.0000
  C   C318      1.0  0.17086  0.92701  0.92318  1.0000
  H   H567      1.0  0.13043  0.91921  0.91305  1.0000
  H   H568      1.0  0.10800  0.71475  0.70220  1.0000
  C   C319      1.0  0.12484  0.55831  0.75092  1.0000
  C   C320      1.0  0.14206  0.77026  0.69219  1.0000
  H   H569      1.0  0.05205  0.80401  0.49837  1.0000
  C   C321      1.0  0.22099  0.77454  0.68839  1.0000
  H   H570      1.0  0.18314  0.67420  0.87078  1.0000
  C   C322      1.0  0.15955  0.76157  0.93562  1.0000
  H   H571      1.0  0.22709  0.76898  0.66874  1.0000
  H   H572      1.0  0.21241  0.67957  0.89072  1.0000
  H   H573      1.0  0.23070  0.72761  0.87782  1.0000
  C   C323      1.0  0.23391  0.95714  0.92051  1.0000
  H   H574      1.0  0.21146  0.68890  0.82801  1.0000
  C   C324      1.0  0.23316  0.98061  0.93626  1.0000
  H   H575      1.0  0.22834  0.95788  0.89850  1.0000
  H   H576      1.0  0.19414  0.75517  0.93138  1.0000
  C   C325      1.0  0.24695  0.77291  0.84512  1.0000
  H   H577      1.0  0.24066  0.97276  0.56467  1.0000
  H   H578      1.0  0.24417  0.98469  0.95622  1.0000
  H   H579      1.0  0.05127  0.53380  0.49747  1.0000
  C   C326      1.0  0.23959  0.93745  0.98022  1.0000
  H   H580      1.0  0.22172  0.73633  0.80373  1.0000
  H   H581      1.0  0.04644  0.84183  0.90823  1.0000
  C   C327      1.0  0.24283  0.74110  0.80852  1.0000
  H   H582      1.0  0.03777  0.58726  0.73209  1.0000
  H   H583      1.0  0.10704  0.71714  0.93972  1.0000
  H   H584      1.0  0.10150  0.65122  0.92163  1.0000
  H   H585      1.0  0.07419  0.65815  0.92687  1.0000
  H   H586      1.0  0.12371  0.51397  0.72890  1.0000
  H   H587      1.0  0.01767  0.84647  0.91348  1.0000
  H   H588      1.0  0.01698  0.79795  0.88419  1.0000
  C   C328      1.0  0.18994  0.77165  0.93716  1.0000
  H   H589      1.0  0.26217  0.77636  0.88805  1.0000
  H   H590      1.0  0.22783  0.77055  0.83640  1.0000
  C   C329      1.0  0.02094  0.59185  0.73137  1.0000
  N   N17       1.0  0.24873  0.74780  0.83891  1.0000
  C   C330      1.0  0.01640  0.56543  0.56311  1.0000
  H   H591      1.0  0.23912  0.81305  0.86956  1.0000
  H   H592      1.0  0.16093  0.96534  0.48652  1.0000
  C   C331      1.0  0.23872  0.90472  0.48542  1.0000
  H   H593      1.0  0.25136  0.92232  0.93415  1.0000
  H   H594      1.0  0.25601  0.90374  0.49491  1.0000
  C   C332      1.0  0.24725  0.77964  0.87631  1.0000
  H   H595      1.0  0.24043  0.92603  0.88203  1.0000
  C   C333      1.0  0.03879  0.83133  0.48359  1.0000
  C   C334      1.0  0.23283  0.90706  0.89439  1.0000
  C   C335      1.0  0.25399  0.80906  0.88051  1.0000
  C   C336      1.0  0.01677  0.82851  0.97572  1.0000
  H   H596      1.0  0.25750  0.95417  0.96971  1.0000
  H   H597      1.0  0.24541  0.87702  0.90229  1.0000
  H   H598      1.0  0.22748  0.00781  0.56341  1.0000
  H   H599      1.0  0.01373  0.57113  0.89300  1.0000
  C   C337      1.0  0.03184  0.51640  0.49245  1.0000
  C   C338      1.0  0.24657  0.00702  0.91946  1.0000
  H   H600      1.0  0.23500  0.91914  0.49758  1.0000
  H   H601      1.0  0.25208  0.89088  0.86770  1.0000
  H   H602      1.0  0.25571  0.96291  0.91978  1.0000
  H   H603      1.0  0.24096  0.69541  0.84806  1.0000
  C   C339      1.0  0.25205  0.89587  0.88994  1.0000
  H   H604      1.0  0.24776  0.00597  0.48304  1.0000
  H   H605      1.0  0.43401  0.04998  0.22673  1.0000
  C   C340      1.0  0.50801  0.42578  0.20249  1.0000
  H   H606      1.0  0.28778  0.23483  0.09264  1.0000
  C   C341      1.0  0.50013  0.49252  0.20116  1.0000
  S   S84       1.0  0.46246  0.48423  0.35214  1.0000
  H   H607      1.0  0.33401  0.13577  0.22531  1.0000
  H   H608      1.0  0.30963  0.38782  0.18727  1.0000
  H   H609      1.0  0.26809  0.44164  0.23432  1.0000
  Fe  Fe45      1.0  0.28606  0.13983  0.40226  1.0000
  S   S85       1.0  0.30484  0.13665  0.36093  1.0000
  H   H610      1.0  0.35672  0.24254  0.08735  1.0000
  S   S86       1.0  0.31900  0.17393  0.01329  1.0000
  S   S87       1.0  0.28380  0.10958  0.43424  1.0000
  S   S88       1.0  0.30312  0.17414  0.43281  1.0000
  Fe  Fe46      1.0  0.43245  0.19271  0.18346  1.0000
  S   S89       1.0  0.38977  0.16693  0.19937  1.0000
  S   S90       1.0  0.46464  0.17971  0.18810  1.0000
  Fe  Fe47      1.0  0.42274  0.23940  0.16518  1.0000
  S   S91       1.0  0.37939  0.21647  0.17977  1.0000
  S   S92       1.0  0.43306  0.27826  0.14074  1.0000
  Fe  Fe48      1.0  0.39436  0.20525  0.21815  1.0000
  S   S93       1.0  0.37883  0.21120  0.26027  1.0000
  Fe  Fe49      1.0  0.37763  0.17998  0.16014  1.0000
  S   S94       1.0  0.34075  0.14865  0.13635  1.0000
  S   S95       1.0  0.43823  0.23084  0.20487  1.0000
  S   S96       1.0  0.41988  0.20304  0.14300  1.0000
  S   S97       1.0  0.28059  0.46157  0.29326  1.0000
  C   C342      1.0  0.32502  0.15791  0.33301  1.0000
  C   C343      1.0  0.33342  0.14646  0.31210  1.0000
  C   C344      1.0  0.34963  0.16227  0.28965  1.0000
  C   C345      1.0  0.35792  0.18997  0.28786  1.0000
  C   C346      1.0  0.34981  0.20151  0.30895  1.0000
  C   C347      1.0  0.33346  0.18565  0.33134  1.0000
  H   H611      1.0  0.32746  0.12515  0.31339  1.0000
  H   H612      1.0  0.35608  0.15315  0.27398  1.0000
  H   H613      1.0  0.35617  0.22293  0.30794  1.0000
  H   H614      1.0  0.32736  0.19488  0.34724  1.0000
  C   C348      1.0  0.32463  0.16576  0.04719  1.0000
  C   C349      1.0  0.34444  0.18667  0.06351  1.0000
  C   C350      1.0  0.34910  0.18174  0.09098  1.0000
  C   C351      1.0  0.33443  0.15563  0.10224  1.0000
  C   C352      1.0  0.31467  0.13458  0.08594  1.0000
  C   C353      1.0  0.30973  0.13961  0.05848  1.0000
  H   H615      1.0  0.35614  0.20691  0.05488  1.0000
  H   H616      1.0  0.36407  0.19818  0.10348  1.0000
  H   H617      1.0  0.30317  0.11429  0.09452  1.0000
  H   H618      1.0  0.29440  0.12334  0.04611  1.0000
  H   H619      1.0  0.39196  0.06148  0.20909  1.0000
  C   C354      1.0  0.48145  0.35888  0.12266  1.0000
  C   C355      1.0  0.45997  0.33170  0.12336  1.0000
  C   C356      1.0  0.46108  0.31212  0.14056  1.0000
  C   C357      1.0  0.48401  0.32014  0.15717  1.0000
  H   H620      1.0  0.39959  0.19494  0.46416  1.0000
  H   H621      1.0  0.48034  0.37358  0.10915  1.0000
  H   H622      1.0  0.44240  0.32577  0.11038  1.0000
  H   H623      1.0  0.48523  0.30539  0.17048  1.0000
  H   H624      1.0  0.47127  0.39253  0.15678  1.0000
  C   C358      1.0  0.36035  0.46488  0.31990  1.0000
  C   C359      1.0  0.33564  0.44011  0.32071  1.0000
  C   C360      1.0  0.31100  0.43880  0.31327  1.0000
  C   C361      1.0  0.31081  0.46220  0.30435  1.0000
  C   C362      1.0  0.33550  0.48699  0.30356  1.0000
  H   H625      1.0  0.44880  0.22961  0.46362  1.0000
  H   H626      1.0  0.33557  0.42181  0.32731  1.0000
  H   H627      1.0  0.29218  0.41966  0.31430  1.0000
  C   C363      1.0  0.45845  0.39636  0.17145  1.0000
  H   H628      1.0  0.31515  0.08797  0.23191  1.0000
  H   H629      1.0  0.39507  0.22845  0.44695  1.0000
  C   C364      1.0  0.44606  0.35414  0.19628  1.0000
  S   S98       1.0  0.51220  0.46725  0.02736  1.0000
  H   H630      1.0  0.35441  0.11767  0.04691  1.0000
  H   H631      1.0  0.39113  0.14221  0.41652  1.0000
  H   H632      1.0  0.44346  0.38173  0.24126  1.0000
  H   H633      1.0  0.50159  0.42852  0.45916  1.0000
  H   H634      1.0  0.47984  0.09075  0.21136  1.0000
  C   C365      1.0  0.50446  0.48528  0.00146  1.0000
  C   C366      1.0  0.43329  0.30769  0.21646  1.0000
  C   C367      1.0  0.48048  0.12057  0.13647  1.0000
  C   C368      1.0  0.42863  0.42120  0.24387  1.0000
  C   C369      1.0  0.49175  0.15238  0.17461  1.0000
  C   C370      1.0  0.46975  0.15628  0.16818  1.0000
  C   C371      1.0  0.45272  0.14165  0.14620  1.0000
  C   C372      1.0  0.45801  0.12380  0.13061  1.0000
  H   H635      1.0  0.47162  0.49721  0.26173  1.0000
  H   H636      1.0  0.42404  0.34461  0.19166  1.0000
  H   H637      1.0  0.43558  0.14419  0.14121  1.0000
  H   H638      1.0  0.44467  0.11247  0.11378  1.0000
  H   H639      1.0  0.31199  0.06466  0.47852  1.0000
  C   C373      1.0  0.41369  0.19100  0.45195  1.0000
  H   H640      1.0  0.30198  0.43664  0.17356  1.0000
  C   C374      1.0  0.37751  0.20797  0.40756  1.0000
  Fe  Fe50      1.0  0.29825  0.14347  0.46517  1.0000
  H   H641      1.0  0.50485  0.16335  0.19179  1.0000
  H   H642      1.0  0.34484  0.15506  0.40961  1.0000
  H   H643      1.0  0.34950  0.26812  0.07453  1.0000
  H   H644      1.0  0.36186  0.12698  0.39456  1.0000
  H   H645      1.0  0.32239  0.21503  0.19270  1.0000
  C   C375      1.0  0.33178  0.09294  0.19105  1.0000
  N   N18       1.0  0.26788  0.21507  0.05450  1.0000
  C   C376      1.0  0.44204  0.38966  0.22060  1.0000
  C   C377      1.0  0.38936  0.18175  0.37636  1.0000
  C   C378      1.0  0.43023  0.38564  0.15786  1.0000
  N   N19       1.0  0.29176  0.12481  0.22464  1.0000
  H   H646      1.0  0.27176  0.44606  0.19741  1.0000
  H   H647      1.0  0.38041  0.25725  0.42408  1.0000
  H   H648      1.0  0.42672  0.22132  0.36949  1.0000
  H   H649      1.0  0.41655  0.05742  0.16818  1.0000
  H   H650      1.0  0.34567  0.22994  0.42333  1.0000
  H   H651      1.0  0.28835  0.40153  0.13444  1.0000
  H   H652      1.0  0.32904  0.41617  0.16472  1.0000
  C   C379      1.0  0.36011  0.48838  0.31137  1.0000
  H   H653      1.0  0.27907  0.09802  0.16906  1.0000
  C   C380      1.0  0.29862  0.42031  0.18870  1.0000
  C   C381      1.0  0.26671  0.11116  0.20659  1.0000
  H   H654      1.0  0.30429  0.11802  0.26494  1.0000
  H   H655      1.0  0.33605  0.25171  0.10766  1.0000
  H   H656      1.0  0.45279  0.38067  0.43080  1.0000
  H   H657      1.0  0.28377  0.15612  0.23978  1.0000
  C   C382      1.0  0.49716  0.13473  0.15882  1.0000
  H   H658      1.0  0.46926  0.43040  0.23687  1.0000
  H   H659      1.0  0.46709  0.42176  0.45973  1.0000
  Fe  Fe51      1.0  0.43399  0.49903  0.33830  1.0000
  H   H660      1.0  0.33619  0.21011  0.22436  1.0000
  H   H661      1.0  0.28410  0.01858  0.43673  1.0000
  H   H662      1.0  0.39193  0.22681  0.39631  1.0000
  C   C383      1.0  0.27417  0.21204  0.02475  1.0000
  C   C384      1.0  0.44188  0.20753  0.46471  1.0000
  S   S99       1.0  0.50035  0.03944  0.10454  1.0000
  H   H663      1.0  0.45522  0.34952  0.17821  1.0000
  H   H664      1.0  0.44539  0.03088  0.10584  1.0000
  C   C385      1.0  0.28855  0.37276  0.26952  1.0000
  S   S100      1.0  0.48679  0.09894  0.11489  1.0000
  C   C386      1.0  0.48097  0.49263  0.21938  1.0000
  H   H665      1.0  0.40727  0.16921  0.45491  1.0000
  H   H666      1.0  0.29090  0.07908  0.20448  1.0000
  C   C387      1.0  0.51179  0.50292  0.25828  1.0000
  H   H667      1.0  0.44788  0.08286  0.18217  1.0000
  H   H668      1.0  0.38677  0.44033  0.23842  1.0000
  H   H669      1.0  0.30679  0.25438  0.01748  1.0000
  H   H670      1.0  0.44941  0.11525  0.06188  1.0000
  C   C388      1.0  0.44854  0.33835  0.22155  1.0000
  H   H671      1.0  0.39734  0.47376  0.22414  1.0000
  C   C389      1.0  0.43254  0.39999  0.13028  1.0000
  H   H672      1.0  0.41666  0.38925  0.17146  1.0000
  N   N20       1.0  0.41134  0.16080  0.05607  1.0000
  C   C390      1.0  0.42785  0.14848  0.04567  1.0000
  C   C391      1.0  0.38989  0.15618  0.03485  1.0000
  C   C392      1.0  0.43024  0.19119  0.05820  1.0000
  C   C393      1.0  0.39871  0.14987  0.08417  1.0000
  C   C394      1.0  0.39025  0.11984  0.09093  1.0000
  C   C395      1.0  0.45385  0.15580  0.06261  1.0000
  C   C396      1.0  0.41693  0.20849  0.06550  1.0000
  C   C397      1.0  0.45228  0.03648  0.16347  1.0000
  C   C398      1.0  0.37317  0.10999  0.11731  1.0000
  C   C399      1.0  0.43819  0.23778  0.07248  1.0000
  H   H673      1.0  0.43440  0.15503  0.02387  1.0000
  H   H674      1.0  0.41554  0.12603  0.04462  1.0000
  H   H675      1.0  0.37798  0.16584  0.04149  1.0000
  H   H676      1.0  0.39969  0.16617  0.01486  1.0000
  H   H677      1.0  0.44157  0.19941  0.03841  1.0000
  H   H678      1.0  0.44582  0.19573  0.07448  1.0000
  H   H679      1.0  0.41284  0.16207  0.10107  1.0000
  H   H680      1.0  0.38062  0.15230  0.08706  1.0000
  H   H681      1.0  0.40845  0.11787  0.09433  1.0000
  H   H682      1.0  0.37843  0.10576  0.07410  1.0000
  C   C400      1.0  0.48747  0.39565  0.20944  1.0000
  H   H683      1.0  0.45013  0.15524  0.08520  1.0000
  H   H684      1.0  0.40343  0.19980  0.08364  1.0000
  H   H685      1.0  0.40500  0.20945  0.04772  1.0000
  H   H686      1.0  0.29742  0.37543  0.13837  1.0000
  H   H687      1.0  0.36978  0.08957  0.12319  1.0000
  H   H688      1.0  0.38350  0.12416  0.13477  1.0000
  H   H689      1.0  0.35311  0.10834  0.11374  1.0000
  H   H690      1.0  0.45187  0.24773  0.05455  1.0000
  H   H691      1.0  0.33561  0.50527  0.29685  1.0000
  H   H692      1.0  0.45041  0.23841  0.09074  1.0000
  H   H693      1.0  0.36906  0.17139  0.36628  1.0000
  H   H694      1.0  0.29208  0.49233  0.23998  1.0000
  H   H695      1.0  0.41207  0.39239  0.12125  1.0000
  H   H696      1.0  0.43993  0.34195  0.24055  1.0000
  C   C401      1.0  0.50441  0.36688  0.13919  1.0000
  H   H697      1.0  0.36094  0.12231  0.45831  1.0000
  H   H698      1.0  0.42062  0.36360  0.15337  1.0000
  N   N21       1.0  0.44872  0.03418  0.19452  1.0000
  H   H699      1.0  0.40779  0.01443  0.15672  1.0000
  C   C402      1.0  0.44971  0.41959  0.22560  1.0000
  H   H700      1.0  0.47438  0.04808  0.23099  1.0000
  H   H701      1.0  0.47005  0.34447  0.22559  1.0000
  H   H702      1.0  0.28885  0.16631  0.19074  1.0000
  H   H703      1.0  0.32859  0.07197  0.19068  1.0000
  H   H704      1.0  0.30186  0.20409  0.22362  1.0000
  H   H705      1.0  0.30186  0.25513  0.06283  1.0000
  S   S101      1.0  0.39086  0.46483  0.32826  1.0000
  C   C403      1.0  0.46464  0.13651  0.05633  1.0000
  H   H706      1.0  0.29495  0.49616  0.20267  1.0000
  H   H707      1.0  0.45994  0.05763  0.15630  1.0000
  H   H708      1.0  0.42015  0.37796  0.21515  1.0000
  H   H709      1.0  0.32199  0.22410  0.05057  1.0000
  C   C404      1.0  0.29303  0.23390  0.07064  1.0000
  H   H710      1.0  0.34070  0.13659  0.00735  1.0000
  C   C405      1.0  0.34096  0.24863  0.08619  1.0000
  H   H711      1.0  0.42705  0.41138  0.26429  1.0000
  H   H712      1.0  0.44185  0.30260  0.19835  1.0000
  C   C406      1.0  0.27125  0.11180  0.17471  1.0000
  H   H713      1.0  0.41142  0.30016  0.21270  1.0000
  C   C407      1.0  0.36513  0.23844  0.43478  1.0000
  H   H714      1.0  0.32314  0.17211  0.19079  1.0000
  C   C408      1.0  0.30848  0.40280  0.17345  1.0000
  C   C409      1.0  0.38642  0.45952  0.24147  1.0000
  H   H715      1.0  0.43517  0.29688  0.23484  1.0000
  H   H716      1.0  0.48762  0.38786  0.42971  1.0000
  H   H717      1.0  0.43477  0.44283  0.24753  1.0000
  H   H718      1.0  0.37891  0.50756  0.31057  1.0000
  H   H719      1.0  0.41166  0.09327  0.19084  1.0000
  C   C410      1.0  0.31575  0.22649  0.07161  1.0000
  H   H720      1.0  0.36209  0.16323  0.44128  1.0000
  H   H721      1.0  0.33486  0.10296  0.00061  1.0000
  H   H722      1.0  0.27426  0.24644  0.00318  1.0000
  C   C411      1.0  0.36825  0.12630  0.02885  1.0000
  H   H723      1.0  0.40850  0.41115  0.23361  1.0000
  C   C412      1.0  0.30022  0.15429  0.22946  1.0000
  H   H724      1.0  0.37738  0.11350  0.02420  1.0000
  H   H725      1.0  0.42603  0.18967  0.41030  1.0000
  N   N22       1.0  0.31172  0.43257  0.21624  1.0000
  C   C413      1.0  0.34146  0.44103  0.21604  1.0000
  H   H726      1.0  0.36065  0.20069  0.44999  1.0000
  C   C414      1.0  0.31002  0.45812  0.22031  1.0000
  C   C415      1.0  0.29659  0.41325  0.23971  1.0000
  C   C416      1.0  0.29853  0.38699  0.24152  1.0000
  C   C417      1.0  0.35722  0.45377  0.24331  1.0000
  H   H727      1.0  0.28713  0.20259  0.02344  1.0000
  H   H728      1.0  0.42975  0.19034  0.33601  1.0000
  C   C418      1.0  0.42772  0.06579  0.18783  1.0000
  C   C419      1.0  0.31751  0.20224  0.21164  1.0000
  N   N23       1.0  0.45863  0.38459  0.19957  1.0000
  H   H729      1.0  0.46804  0.41883  0.17207  1.0000
  H   H730      1.0  0.35195  0.45596  0.19897  1.0000
  H   H731      1.0  0.34461  0.42374  0.21123  1.0000
  H   H732      1.0  0.30889  0.20747  0.08367  1.0000
  H   H733      1.0  0.36191  0.24387  0.45597  1.0000
  H   H734      1.0  0.32358  0.47415  0.20530  1.0000
  H   H735      1.0  0.31730  0.46671  0.24133  1.0000
  H   H736      1.0  0.30303  0.42397  0.25983  1.0000
  H   H737      1.0  0.35765  0.20000  0.39671  1.0000
  H   H738      1.0  0.31954  0.39102  0.23905  1.0000
  H   H739      1.0  0.39719  0.16734  0.37449  1.0000
  H   H740      1.0  0.35814  0.47338  0.24777  1.0000
  H   H741      1.0  0.34764  0.43986  0.26116  1.0000
  C   C420      1.0  0.28960  0.38725  0.14941  1.0000
  H   H742      1.0  0.40814  0.02564  0.20547  1.0000
  H   H743      1.0  0.42631  0.22018  0.41790  1.0000
  H   H744      1.0  0.45106  0.43049  0.20602  1.0000
  H   H745      1.0  0.48318  0.14239  0.06879  1.0000
  C   C421      1.0  0.41287  0.07764  0.20380  1.0000
  C   C422      1.0  0.28542  0.11069  0.25257  1.0000
  H   H746      1.0  0.40895  0.01382  0.10565  1.0000
  H   H747      1.0  0.44485  0.39578  0.11538  1.0000
  N   N24       1.0  0.38672  0.18718  0.40652  1.0000
  C   C423      1.0  0.47437  0.39695  0.43198  1.0000
  H   H748      1.0  0.32877  0.09842  0.16972  1.0000
  C   C424      1.0  0.36937  0.13613  0.41531  1.0000
  H   H749      1.0  0.44203  0.42232  0.13328  1.0000
  S   S102      1.0  0.49221  0.48657  0.16546  1.0000
  H   H750      1.0  0.49528  0.08608  0.18054  1.0000
  H   H751      1.0  0.33210  0.10605  0.43531  1.0000
  H   H752      1.0  0.46154  0.48868  0.21147  1.0000
  C   C425      1.0  0.41627  0.19883  0.33148  1.0000
  H   H753      1.0  0.28609  0.13223  0.16689  1.0000
  H   H754      1.0  0.47011  0.17671  0.05721  1.0000
  H   H755      1.0  0.42731  0.21692  0.31782  1.0000
  C   C426      1.0  0.41395  0.19771  0.42056  1.0000
  H   H756      1.0  0.42809  0.04824  0.11808  1.0000
  H   H757      1.0  0.39693  0.21782  0.35234  1.0000
  H   H758      1.0  0.48779  0.39262  0.23224  1.0000
  C   C427      1.0  0.35420  0.11410  0.43712  1.0000
  C   C428      1.0  0.37499  0.21782  0.43669  1.0000
  H   H759      1.0  0.47857  0.41133  0.41447  1.0000
  H   H760      1.0  0.35293  0.10698  0.19768  1.0000
  C   C429      1.0  0.36493  0.16086  0.41899  1.0000
  H   H761      1.0  0.39815  0.18343  0.32015  1.0000
  H   H762      1.0  0.32084  0.13258  0.19181  1.0000
  H   H763      1.0  0.49650  0.38406  0.19989  1.0000
  H   H764      1.0  0.42402  0.08760  0.22310  1.0000
  C   C430      1.0  0.28141  0.45495  0.21757  1.0000
  C   C431      1.0  0.30726  0.17268  0.20350  1.0000
  H   H765      1.0  0.42795  0.24954  0.07764  1.0000
  C   C432      1.0  0.47610  0.05042  0.20809  1.0000
  C   C433      1.0  0.40797  0.20698  0.35828  1.0000
  H   H766      1.0  0.31792  0.16367  0.24379  1.0000
  H   H767      1.0  0.28124  0.17291  0.05850  1.0000
  H   H768      1.0  0.35822  0.09704  0.43398  1.0000
  H   H769      1.0  0.26890  0.37283  0.15722  1.0000
  H   H770      1.0  0.49979  0.43949  0.20588  1.0000
  C   C434      1.0  0.35082  0.12444  0.00388  1.0000
  C   C435      1.0  0.28828  0.23849  0.00714  1.0000
  H   H771      1.0  0.48484  0.38147  0.48049  1.0000
  C   C436      1.0  0.49140  0.08143  0.20292  1.0000
  C   C437      1.0  0.28283  0.48251  0.21993  1.0000
  H   H772      1.0  0.39718  0.46888  0.26114  1.0000
  C   C438      1.0  0.31170  0.09423  0.21111  1.0000
  C   C439      1.0  0.50551  0.34733  0.15644  1.0000
  H   H773      1.0  0.27729  0.08847  0.24993  1.0000
  C   C440      1.0  0.42737  0.02832  0.11726  1.0000
  C   C441      1.0  0.31546  0.12328  0.21270  1.0000
  H   H774      1.0  0.46985  0.13752  0.03403  1.0000
  H   H775      1.0  0.48957  0.04253  0.20131  1.0000
  C   C442      1.0  0.42926  0.04313  0.20481  1.0000
  H   H776      1.0  0.45666  0.20347  0.45379  1.0000
  H   H777      1.0  0.28988  0.35388  0.26998  1.0000
  S   S103      1.0  0.50071  0.44480  0.10684  1.0000
  C   C443      1.0  0.48670  0.49766  0.24783  1.0000
  H   H778      1.0  0.28546  0.37250  0.22536  1.0000
  H   H779      1.0  0.26712  0.36710  0.27302  1.0000
  H   H780      1.0  0.30126  0.38612  0.28658  1.0000
  H   H781      1.0  0.27460  0.40640  0.23844  1.0000
  C   C444      1.0  0.48003  0.41223  0.45939  1.0000
  C   C445      1.0  0.42651  0.01740  0.14648  1.0000
  H   H782      1.0  0.46841  0.03186  0.15715  1.0000
  C   C446      1.0  0.49793  0.50568  0.46015  1.0000
  H   H783      1.0  0.36336  0.13192  0.98481  1.0000
  H   H784      1.0  0.27616  0.40780  0.19115  1.0000
  H   H785      1.0  0.27439  0.13468  0.27975  1.0000
  H   H786      1.0  0.27349  0.09775  0.30846  1.0000
  C   C447      1.0  0.26483  0.11382  0.27101  1.0000
  H   H787      1.0  0.41545  0.44401  0.78391  1.0000
  H   H788      1.0  0.44149  0.40369  0.51289  1.0000
  S   S104      1.0  0.48719  0.02763  0.60943  1.0000
  S   S105      1.0  0.38724  0.46855  0.82782  1.0000
  S   S106      1.0  0.45807  0.49118  0.85684  1.0000
  H   H789      1.0  0.31571  0.12101  0.63803  1.0000
  C   C448      1.0  0.45920  0.43267  0.74207  1.0000
  C   C449      1.0  0.43804  0.19103  0.78482  1.0000
  Fe  Fe52      1.0  0.29183  0.14248  0.91583  1.0000
  S   S107      1.0  0.32628  0.15779  0.88335  1.0000
  C   C450      1.0  0.31814  0.22511  0.82590  1.0000
  C   C451      1.0  0.48783  0.50209  0.48745  1.0000
  S   S108      1.0  0.29041  0.11628  0.95205  1.0000
  S   S109      1.0  0.29339  0.17469  0.94385  1.0000
  Fe  Fe53      1.0  0.41270  0.17784  0.68220  1.0000
  S   S110      1.0  0.36732  0.15960  0.68312  1.0000
  S   S111      1.0  0.43057  0.14975  0.69013  1.0000
  Fe  Fe54      1.0  0.42156  0.23620  0.68343  1.0000
  S   S112      1.0  0.37681  0.22129  0.68534  1.0000
  S   S113      1.0  0.45492  0.28099  0.68770  1.0000
  Fe  Fe55      1.0  0.37349  0.18990  0.71643  1.0000
  S   S114      1.0  0.34113  0.17352  0.75124  1.0000
  Fe  Fe56      1.0  0.37349  0.19189  0.65218  1.0000
  S   S115      1.0  0.34086  0.18322  0.61988  1.0000
  S   S116      1.0  0.41861  0.20675  0.71708  1.0000
  S   S117      1.0  0.41867  0.20835  0.64854  1.0000
  C   C452      1.0  0.30961  0.21563  0.87559  1.0000
  C   C453      1.0  0.32978  0.16197  0.84655  1.0000
  C   C454      1.0  0.35561  0.17941  0.83522  1.0000
  C   C455      1.0  0.35955  0.18333  0.80626  1.0000
  C   C456      1.0  0.33774  0.16945  0.78807  1.0000
  C   C457      1.0  0.31193  0.15197  0.79942  1.0000
  C   C458      1.0  0.30794  0.14826  0.82838  1.0000
  H   H790      1.0  0.37271  0.19017  0.84899  1.0000
  H   H791      1.0  0.37942  0.19729  0.79807  1.0000
  H   H792      1.0  0.29484  0.14116  0.78565  1.0000
  H   H793      1.0  0.28800  0.13453  0.83662  1.0000
  C   C459      1.0  0.33509  0.15895  0.52830  1.0000
  C   C460      1.0  0.35750  0.16299  0.54424  1.0000
  C   C461      1.0  0.35963  0.17032  0.57238  1.0000
  C   C462      1.0  0.33926  0.17362  0.58478  1.0000
  C   C463      1.0  0.31660  0.16905  0.56893  1.0000
  C   C464      1.0  0.31450  0.16176  0.54083  1.0000
  H   H794      1.0  0.37347  0.16074  0.53473  1.0000
  H   H795      1.0  0.37709  0.17367  0.58441  1.0000
  H   H796      1.0  0.30074  0.17151  0.57841  1.0000
  H   H797      1.0  0.29714  0.15869  0.52881  1.0000
  C   C465      1.0  0.47375  0.35741  0.63574  1.0000
  C   C466      1.0  0.49069  0.35885  0.65753  1.0000
  C   C467      1.0  0.48461  0.33531  0.67312  1.0000
  C   C468      1.0  0.46170  0.30996  0.66707  1.0000
  C   C469      1.0  0.44473  0.30858  0.64534  1.0000
  C   C470      1.0  0.45066  0.33217  0.62993  1.0000
  H   H798      1.0  0.27787  0.23631  0.87140  1.0000
  H   H799      1.0  0.42939  0.44609  0.73566  1.0000
  H   H800      1.0  0.42693  0.28936  0.64052  1.0000
  H   H801      1.0  0.45177  0.46411  0.78141  1.0000
  C   C471      1.0  0.35628  0.46663  0.81709  1.0000
  C   C472      1.0  0.35122  0.48821  0.82035  1.0000
  C   C473      1.0  0.32586  0.48515  0.81265  1.0000
  C   C474      1.0  0.30522  0.46058  0.80149  1.0000
  C   C475      1.0  0.31049  0.43921  0.79772  1.0000
  C   C476      1.0  0.33572  0.44214  0.80570  1.0000
  H   H802      1.0  0.46471  0.42427  0.76027  1.0000
  C   C477      1.0  0.30760  0.21616  0.79589  1.0000
  H   H803      1.0  0.29519  0.42051  0.78842  1.0000
  H   H804      1.0  0.33943  0.42537  0.80285  1.0000
  H   H805      1.0  0.34735  0.22579  0.78001  1.0000
  C   C478      1.0  0.33735  0.09638  0.74049  1.0000
  H   H806      1.0  0.46786  0.42027  0.65711  1.0000
  H   H807      1.0  0.29613  0.21312  0.89340  1.0000
  H   H808      1.0  0.27353  0.20293  0.53712  1.0000
  N   N25       1.0  0.38323  0.11614  0.76616  1.0000
  H   H809      1.0  0.49576  0.36475  0.51901  1.0000
  C   C479      1.0  0.44866  0.42856  0.69275  1.0000
  H   H810      1.0  0.27349  0.10637  0.57369  1.0000
  C   C480      1.0  0.26712  0.04282  0.57423  1.0000
  C   C481      1.0  0.46948  0.11246  0.63395  1.0000
  C   C482      1.0  0.46476  0.10573  0.66211  1.0000
  C   C483      1.0  0.45283  0.11732  0.67887  1.0000
  C   C484      1.0  0.44515  0.13552  0.66773  1.0000
  C   C485      1.0  0.44974  0.14212  0.63955  1.0000
  C   C486      1.0  0.46186  0.13069  0.62284  1.0000
  H   H811      1.0  0.34902  0.21623  0.91035  1.0000
  H   H812      1.0  0.36109  0.46317  0.91028  1.0000
  H   H813      1.0  0.44404  0.15610  0.63063  1.0000
  C   C487      1.0  0.43269  0.43255  0.74991  1.0000
  H   H814      1.0  0.49393  0.49662  0.53091  1.0000
  C   C488      1.0  0.26469  0.44392  0.88386  1.0000
  H   H815      1.0  0.27052  0.05176  0.50631  1.0000
  C   C489      1.0  0.44468  0.36718  0.70438  1.0000
  C   C490      1.0  0.26457  0.26367  0.83610  1.0000
  H   H816      1.0  0.29176  0.09919  0.53095  1.0000
  C   C491      1.0  0.43979  0.43192  0.64182  1.0000
  H   H817      1.0  0.33268  0.10721  0.84814  1.0000
  H   H818      1.0  0.33409  0.23388  0.92773  1.0000
  H   H819      1.0  0.26776  0.31796  0.54962  1.0000
  H   H820      1.0  0.49943  0.44557  0.70351  1.0000
  C   C492      1.0  0.38830  0.09675  0.74920  1.0000
  N   N26       1.0  0.29727  0.21788  0.84860  1.0000
  N   N27       1.0  0.27163  0.40172  0.87931  1.0000
  H   H821      1.0  0.29662  0.08453  0.72661  1.0000
  H   H822      1.0  0.30942  0.11015  0.75317  1.0000
  H   H823      1.0  0.32057  0.45587  0.88561  1.0000
  H   H824      1.0  0.46155  0.45114  0.69176  1.0000
  H   H825      1.0  0.43607  0.42974  0.79479  1.0000
  H   H826      1.0  0.42703  0.06434  0.75245  1.0000
  C   C493      1.0  0.34790  0.23526  0.91078  1.0000
  H   H827      1.0  0.26795  0.41313  0.92138  1.0000
  H   H828      1.0  0.45981  0.34592  0.51342  1.0000
  C   C494      1.0  0.33800  0.23992  0.88293  1.0000
  H   H829      1.0  0.44117  0.20175  0.48685  1.0000
  H   H830      1.0  0.43721  0.33077  0.61337  1.0000
  H   H831      1.0  0.45194  0.37700  0.48351  1.0000
  H   H832      1.0  0.28232  0.45403  0.89787  1.0000
  C   C495      1.0  0.33060  0.22976  0.77479  1.0000
  H   H833      1.0  0.50853  0.37804  0.66226  1.0000
  C   C496      1.0  0.47318  0.38435  0.53530  1.0000
  C   C497      1.0  0.28991  0.23984  0.85210  1.0000
  H   H834      1.0  0.44833  0.37211  0.68207  1.0000
  C   C498      1.0  0.27188  0.08755  0.58265  1.0000
  C   C499      1.0  0.27278  0.19044  0.84297  1.0000
  H   H835      1.0  0.45165  0.37582  0.54189  1.0000
  C   C500      1.0  0.44786  0.41738  0.66337  1.0000
  H   H836      1.0  0.38905  0.10824  0.80889  1.0000
  H   H837      1.0  0.49787  0.33669  0.68990  1.0000
  C   C501      1.0  0.34839  0.44346  0.89968  1.0000
  H   H838      1.0  0.31591  0.11229  0.58889  1.0000
  H   H839      1.0  0.33746  0.25913  0.88448  1.0000
  H   H840      1.0  0.26432  0.36109  0.87065  1.0000
  H   H841      1.0  0.35990  0.13323  0.80822  1.0000
  H   H842      1.0  0.30636  0.25222  0.96645  1.0000
  H   H843      1.0  0.28060  0.43287  0.84841  1.0000
  H   H844      1.0  0.27881  0.21765  0.96740  1.0000
  C   C502      1.0  0.48685  0.42386  0.70985  1.0000
  H   H845      1.0  0.31149  0.43699  0.91798  1.0000
  H   H846      1.0  0.31150  0.19705  0.87554  1.0000
  H   H847      1.0  0.34881  0.42712  0.91207  1.0000
  C   C503      1.0  0.43891  0.38746  0.72049  1.0000
  H   H848      1.0  0.51215  0.49888  0.86851  1.0000
  H   H849      1.0  0.31031  0.41680  0.85876  1.0000
  Fe  Fe57      1.0  0.28915  0.14757  0.97982  1.0000
  H   H850      1.0  0.29545  0.04697  0.52473  1.0000
  C   C504      1.0  0.50310  0.01782  0.72642  1.0000
  C   C505      1.0  0.47248  0.34206  0.55422  1.0000
  H   H851      1.0  0.46293  0.36734  0.71278  1.0000
  H   H852      1.0  0.35737  0.44456  0.87899  1.0000
  H   H853      1.0  0.47027  0.09159  0.67092  1.0000
  C   C506      1.0  0.49232  0.47209  0.97638  1.0000
  H   H854      1.0  0.44694  0.19703  0.76375  1.0000
  H   H855      1.0  0.40248  0.33632  0.69739  1.0000
  H   H856      1.0  0.29165  0.22090  0.78995  1.0000
  H   H857      1.0  0.42766  0.42430  0.69672  1.0000
  H   H858      1.0  0.43106  0.10909  0.75611  1.0000
  H   H859      1.0  0.45157  0.18671  0.79788  1.0000
  H   H860      1.0  0.40853  0.08679  0.78268  1.0000
  C   C507      1.0  0.48642  0.48554  0.95495  1.0000
  H   H861      1.0  0.30579  0.39575  0.88755  1.0000
  H   H862      1.0  0.42462  0.13850  0.78115  1.0000
  H   H863      1.0  0.41491  0.41174  0.74876  1.0000
  H   H864      1.0  0.41927  0.42874  0.64631  1.0000
  C   C508      1.0  0.29774  0.09751  0.60077  1.0000
  C   C509      1.0  0.30172  0.41195  0.88004  1.0000
  S   S118      1.0  0.27306  0.45744  0.79371  1.0000
  S   S119      1.0  0.48029  0.38637  0.61526  1.0000
  S   S120      1.0  0.33357  0.15046  0.49285  1.0000
  C   C510      1.0  0.42103  0.33810  0.70705  1.0000
  H   H865      1.0  0.43834  0.38192  0.74276  1.0000
  C   C511      1.0  0.35233  0.11116  0.80857  1.0000
  H   H866      1.0  0.32157  0.11903  0.71798  1.0000
  N   N28       1.0  0.48047  0.40564  0.51277  1.0000
  H   H867      1.0  0.48751  0.41223  0.69174  1.0000
  H   H868      1.0  0.40266  0.16082  0.80531  1.0000
  C   C512      1.0  0.40961  0.16615  0.78360  1.0000
  H   H869      1.0  0.39063  0.04799  0.74993  1.0000
  H   H870      1.0  0.46240  0.41752  0.56287  1.0000
  H   H871      1.0  0.42319  0.42231  0.54832  1.0000
  C   C513      1.0  0.34732  0.10193  0.83883  1.0000
  H   H872      1.0  0.35335  0.24264  0.86720  1.0000
  H   H873      1.0  0.48314  0.45278  0.84971  1.0000
  H   H874      1.0  0.43238  0.39553  0.66237  1.0000
  H   H875      1.0  0.47697  0.47494  0.93600  1.0000
  H   H876      1.0  0.47355  0.32366  0.54858  1.0000
  C   C514      1.0  0.31493  0.10301  0.73419  1.0000
  C   C515      1.0  0.31938  0.43813  0.89678  1.0000
  C   C516      1.0  0.50965  0.50458  0.70562  1.0000
  H   H877      1.0  0.39649  0.17223  0.77227  1.0000
  H   H878      1.0  0.48034  0.45280  0.88690  1.0000
  H   H879      1.0  0.33871  0.07958  0.84041  1.0000
  H   H880      1.0  0.41698  0.33184  0.72915  1.0000
  H   H881      1.0  0.41780  0.38255  0.71563  1.0000
  C   C517      1.0  0.43419  0.44324  0.77928  1.0000
  H   H882      1.0  0.44673  0.45073  0.56900  1.0000
  H   H883      1.0  0.36078  0.08087  0.79293  1.0000
  H   H884      1.0  0.41174  0.07041  0.72252  1.0000
  H   H885      1.0  0.46531  0.13602  0.60109  1.0000
  C   C518      1.0  0.40990  0.06697  0.74530  1.0000
  H   H886      1.0  0.26786  0.01302  0.91437  1.0000
  C   C519      1.0  0.36399  0.12189  0.74987  1.0000
  H   H887      1.0  0.34125  0.08809  0.72130  1.0000
  H   H888      1.0  0.33861  0.25205  0.77419  1.0000
  H   H889      1.0  0.36648  0.11241  0.85086  1.0000
  H   H890      1.0  0.33191  0.09086  0.50337  1.0000
  C   C520      1.0  0.41005  0.14214  0.76909  1.0000
  H   H891      1.0  0.46883  0.43564  0.50170  1.0000
  C   C521      1.0  0.41075  0.09116  0.76010  1.0000
  C   C522      1.0  0.50979  0.42746  0.51513  1.0000
  H   H892      1.0  0.41936  0.14949  0.74826  1.0000
  H   H893      1.0  0.43696  0.20839  0.79398  1.0000
  H   H894      1.0  0.45459  0.45409  0.64164  1.0000
  H   H895      1.0  0.48884  0.35394  0.56942  1.0000
  H   H896      1.0  0.35861  0.13530  0.76149  1.0000
  C   C523      1.0  0.50190  0.49893  0.51015  1.0000
  H   H897      1.0  0.39385  0.10441  0.72747  1.0000
  S   S121      1.0  0.48521  0.09923  0.61177  1.0000
  N   N29       1.0  0.45828  0.41751  0.71600  1.0000
  H   H898      1.0  0.26303  0.19026  0.82301  1.0000
  H   H899      1.0  0.32969  0.08012  0.75648  1.0000
  H   H900      1.0  0.42607  0.32395  0.69624  1.0000
  H   H901      1.0  0.43953  0.42367  0.62093  1.0000
  C   C524      1.0  0.31140  0.07864  0.49417  1.0000
  H   H902      1.0  0.33240  0.10129  0.79795  1.0000
  H   H903      1.0  0.44959  0.11220  0.70065  1.0000
  S   S122      1.0  0.50216  0.46115  0.60471  1.0000
  H   H904      1.0  0.37421  0.13373  0.73084  1.0000
  H   H905      1.0  0.36945  0.07666  0.74754  1.0000
  H   H906      1.0  0.47544  0.45432  0.74043  1.0000
  H   H907      1.0  0.30099  0.08069  0.60767  1.0000
  H   H908      1.0  0.36672  0.50715  0.82909  1.0000
  C   C525      1.0  0.46322  0.41878  0.51681  1.0000
  C   C526      1.0  0.47386  0.39267  0.48445  1.0000
  C   C527      1.0  0.37210  0.10348  0.79426  1.0000
  H   H909      1.0  0.33261  0.24742  0.82571  1.0000
  C   C528      1.0  0.46524  0.43167  0.54560  1.0000
  H   H910      1.0  0.48538  0.45016  0.54781  1.0000
  H   H911      1.0  0.44583  0.45466  0.53200  1.0000
  H   H912      1.0  0.30846  0.25987  0.85522  1.0000
  H   H913      1.0  0.31051  0.08804  0.55072  1.0000
  C   C529      1.0  0.44389  0.44033  0.54881  1.0000
  H   H914      1.0  0.28828  0.25333  0.80997  1.0000
  H   H915      1.0  0.33066  0.21533  0.83011  1.0000
  H   H916      1.0  0.32298  0.22139  0.75383  1.0000
  H   H917      1.0  0.28691  0.38761  0.82741  1.0000
  H   H918      1.0  0.48535  0.39383  0.55434  1.0000
  Fe  Fe58      1.0  0.42910  0.50413  0.83976  1.0000
  H   H919      1.0  0.50289  0.11024  0.71069  1.0000
  C   C530      1.0  0.29610  0.11193  0.62673  1.0000
  H   H920      1.0  0.31163  0.22601  0.98141  1.0000
  C   C531      1.0  0.29074  0.08060  0.54005  1.0000
  Fe  Fe59      1.0  0.50468  0.07251  0.61843  1.0000
  H   H921      1.0  0.45255  0.33548  0.56414  1.0000
  H   H922      1.0  0.50024  0.43965  0.87083  1.0000
  H   H923      1.0  0.27985  0.09735  0.64077  1.0000
  H   H924      1.0  0.36847  0.25248  0.91526  1.0000
  C   C532      1.0  0.27449  0.24407  0.82792  1.0000
  C   C533      1.0  0.47589  0.35911  0.52832  1.0000
  H   H925      1.0  0.27926  0.17499  0.84056  1.0000
  H   H926      1.0  0.28282  0.47768  0.85453  1.0000
  H   H927      1.0  0.46898  0.50190  0.49112  1.0000
  C   C534      1.0  0.29676  0.23318  0.97889  1.0000
  H   H928      1.0  0.28811  0.04624  0.57620  1.0000
  H   H929      1.0  0.28189  0.28368  0.84220  1.0000
  C   C535      1.0  0.29050  0.06227  0.51642  1.0000
  H   H930      1.0  0.32213  0.50191  0.81554  1.0000
  H   H931      1.0  0.28259  0.37732  0.92625  1.0000
  H   H932      1.0  0.29194  0.12853  0.62112  1.0000
  C   C536      1.0  0.26571  0.42215  0.86527  1.0000
  Fe  Fe60      1.0  0.51198  0.02829  0.64651  1.0000
  S   S123      1.0  0.50677  0.50321  0.66905  1.0000
  H   H933      1.0  0.48741  0.45122  0.97352  1.0000
  H   H934      1.0  0.29883  0.19383  0.79395  1.0000
  C   C537      1.0  0.26490  0.37874  0.83110  1.0000
  H   H935      1.0  0.49093  0.19574  0.68112  1.0000
  N   N30       1.0  0.26762  0.06716  0.56035  1.0000
  C   C538      1.0  0.50236  0.01810  0.75560  1.0000
  H   H936      1.0  0.51201  0.17968  0.64783  1.0000
  H   H937      1.0  0.48846  0.39974  0.74522  1.0000
  C   C539      1.0  0.50186  0.41911  0.73425  1.0000
  C   C540      1.0  0.49422  0.45549  0.86949  1.0000
  H   H938      1.0  0.50710  0.16275  0.68080  1.0000
  H   H939      1.0  0.50833  0.03700  0.76625  1.0000
  H   H940      1.0  0.50962  0.03639  0.71475  1.0000
  H   H941      1.0  0.50864  0.43594  0.74944  1.0000
  C   C541      1.0  0.51274  0.50737  0.76416  1.0000
  C   C542      1.0  0.26370  0.46599  0.86644  1.0000
  H   H942      1.0  0.30569  0.09242  0.48349  1.0000
  Fe  Fe61      1.0  0.50082  0.92023  0.34941  1.0000
  C   C543      1.0  0.38549  0.92874  0.47196  1.0000
  H   H943      1.0  0.34033  0.85165  0.40161  1.0000
  Fe  Fe62      1.0  0.44113  0.90552  0.34390  1.0000
  S   S124      1.0  0.45033  0.94761  0.35489  1.0000
  S   S125      1.0  0.39882  0.86912  0.33601  1.0000
  Fe  Fe63      1.0  0.48646  0.96178  0.32681  1.0000
  H   H944      1.0  0.34334  0.90300  0.42683  1.0000
  Fe  Fe64      1.0  0.47672  0.94612  0.38925  1.0000
  S   S126      1.0  0.46828  0.95866  0.43214  1.0000
  S   S127      1.0  0.47555  0.91975  0.31325  1.0000
  S   S128      1.0  0.46570  0.90283  0.37949  1.0000
  H   H945      1.0  0.38722  0.97267  0.38020  1.0000
  S   S129      1.0  0.46342  0.52932  0.30758  1.0000
  H   H946      1.0  0.39052  0.96071  0.34667  1.0000
  C   C544      1.0  0.30314  0.81571  0.24690  1.0000
  S   S130      1.0  0.44753  0.52970  0.37260  1.0000
  C   C545      1.0  0.33786  0.86982  0.40002  1.0000
  C   C546      1.0  0.28329  0.00146  0.42483  1.0000
  Fe  Fe65      1.0  0.47937  0.55917  0.34284  1.0000
  H   H947      1.0  0.26380  0.78358  0.22953  1.0000
  H   H948      1.0  0.41740  0.99174  0.19335  1.0000
  S   S131      1.0  0.28812  0.86191  0.29624  1.0000
  H   H949      1.0  0.37961  0.90506  0.25874  1.0000
  H   H950      1.0  0.47422  0.95695  0.25713  1.0000
  C   C547      1.0  0.39298  0.91074  0.45414  1.0000
  C   C548      1.0  0.50419  0.99905  0.26222  1.0000
  H   H951      1.0  0.46045  0.53986  0.21366  1.0000
  H   H952      1.0  0.48542  0.91980  0.25445  1.0000
  H   H953      1.0  0.48795  0.98730  0.03601  1.0000
  H   H954      1.0  0.27226  0.87510  0.16669  1.0000
  C   C549      1.0  0.36791  0.86789  0.32686  1.0000
  C   C550      1.0  0.36698  0.89101  0.31830  1.0000
  C   C551      1.0  0.34222  0.88879  0.30977  1.0000
  C   C552      1.0  0.31808  0.86349  0.30958  1.0000
  C   C553      1.0  0.31888  0.84043  0.31869  1.0000
  C   C554      1.0  0.34367  0.84266  0.32723  1.0000
  H   H955      1.0  0.38546  0.91048  0.31754  1.0000
  H   H956      1.0  0.34187  0.90674  0.30269  1.0000
  H   H957      1.0  0.30051  0.82085  0.31874  1.0000
  H   H958      1.0  0.34414  0.82463  0.33380  1.0000
  C   C555      1.0  0.48657  0.97718  0.46237  1.0000
  C   C556      1.0  0.35188  0.88916  0.42499  1.0000
  C   C557      1.0  0.43591  0.54432  0.24444  1.0000
  H   H959      1.0  0.29641  0.84914  0.16996  1.0000
  C   C558      1.0  0.47841  0.97028  0.99461  1.0000
  C   C559      1.0  0.41959  0.96734  0.23893  1.0000
  C   C560      1.0  0.48735  0.90498  0.24127  1.0000
  H   H960      1.0  0.50943  0.55024  0.21105  1.0000
  N   N31       1.0  0.38255  0.90556  0.42465  1.0000
  H   H961      1.0  0.35220  0.81574  0.15980  1.0000
  H   H962      1.0  0.48257  0.58821  0.45850  1.0000
  C   C561      1.0  0.49354  0.99070  0.01435  1.0000
  H   H963      1.0  0.39149  0.82745  0.41671  1.0000
  H   H964      1.0  0.29455  0.82279  0.26347  1.0000
  H   H965      1.0  0.32671  0.87085  0.24924  1.0000
  N   N32       1.0  0.31282  0.83564  0.22289  1.0000
  H   H966      1.0  0.36519  0.84865  0.23608  1.0000
  H   H967      1.0  0.36371  0.92240  0.46981  1.0000
  C   C562      1.0  0.34670  0.83132  0.15380  1.0000
  H   H968      1.0  0.49384  0.85546  0.33156  1.0000
  H   H969      1.0  0.48509  0.90964  0.21939  1.0000
  C   C563      1.0  0.46369  0.87671  0.24801  1.0000
  H   H970      1.0  0.48308  0.58867  0.25369  1.0000
  H   H971      1.0  0.45097  0.99713  0.19277  1.0000
  H   H972      1.0  0.28950  0.76857  0.27751  1.0000
  H   H973      1.0  0.36399  0.85598  0.18971  1.0000
  C   C564      1.0  0.50650  0.00147  0.20366  1.0000
  H   H974      1.0  0.45633  0.00526  0.24257  1.0000
  H   H975      1.0  0.46998  0.53814  0.24858  1.0000
  H   H976      1.0  0.33114  0.81245  0.20820  1.0000
  H   H977      1.0  0.28202  0.84627  0.23196  1.0000
  H   H978      1.0  0.26420  0.86971  0.20309  1.0000
  H   H979      1.0  0.49717  0.81515  0.31713  1.0000
  H   H980      1.0  0.46430  0.86115  0.23463  1.0000
  H   H981      1.0  0.45097  0.97436  0.48130  1.0000
  H   H982      1.0  0.41812  0.97294  0.37106  1.0000
  C   C565      1.0  0.50466  0.52573  0.98327  1.0000
  C   C566      1.0  0.43586  0.99800  0.23364  1.0000
  H   H983      1.0  0.29103  0.77656  0.22647  1.0000
  H   H984      1.0  0.38544  0.89120  0.46556  1.0000
  H   H985      1.0  0.41480  0.94525  0.41215  1.0000
  C   C567      1.0  0.33502  0.86263  0.23348  1.0000
  C   C568      1.0  0.38386  0.93263  0.38043  1.0000
  H   H986      1.0  0.40099  0.89003  0.25994  1.0000
  H   H987      1.0  0.32025  0.81460  0.25666  1.0000
  H   H988      1.0  0.34281  0.87817  0.21680  1.0000
  C   C569      1.0  0.48906  0.97702  0.21751  1.0000
  H   H989      1.0  0.49765  0.56718  0.18867  1.0000
  C   C570      1.0  0.43800  0.00465  0.20216  1.0000
  H   H990      1.0  0.35459  0.85481  0.26871  1.0000
  H   H991      1.0  0.30428  0.80974  0.18728  1.0000
  C   C571      1.0  0.39226  0.93289  0.41096  1.0000
  H   H992      1.0  0.39788  0.95039  0.46556  1.0000
  H   H993      1.0  0.41553  0.92050  0.45436  1.0000
  H   H994      1.0  0.45765  0.58261  0.40079  1.0000
  H   H995      1.0  0.26422  0.93406  0.45538  1.0000
  H   H996      1.0  0.50959  0.54660  0.98615  1.0000
  S   S132      1.0  0.50650  0.00206  0.16699  1.0000
  H   H997      1.0  0.30385  0.87719  0.39616  1.0000
  H   H998      1.0  0.33938  0.86127  0.17239  1.0000
  H   H999      1.0  0.46126  0.95131  0.00142  1.0000
  C   C572      1.0  0.28199  0.78567  0.24008  1.0000
  H   H1000     1.0  0.42596  0.00768  0.24498  1.0000
  H   H1001     1.0  0.41965  0.96321  0.26146  1.0000
  C   C573      1.0  0.45691  0.57761  0.42319  1.0000
  C   C574      1.0  0.39571  0.96154  0.36898  1.0000
  C   C575      1.0  0.38456  0.89074  0.24813  1.0000
  C   C576      1.0  0.48461  0.58006  0.23349  1.0000
  H   H1002     1.0  0.36153  0.92310  0.37871  1.0000
  S   S133      1.0  0.48631  0.60245  0.33883  1.0000
  H   H1003     1.0  0.28953  0.00837  0.40314  1.0000
  H   H1004     1.0  0.49013  0.61607  0.43483  1.0000
  H   H1005     1.0  0.47736  0.58919  0.21745  1.0000
  C   C577      1.0  0.39525  0.89107  0.41027  1.0000
  H   H1006     1.0  0.44422  0.87635  0.24441  1.0000
  H   H1007     1.0  0.41335  0.85547  0.39452  1.0000
  H   H1008     1.0  0.42879  0.95684  0.22777  1.0000
  C   C578      1.0  0.39089  0.86473  0.42500  1.0000
  H   H1009     1.0  0.36290  0.84655  0.14013  1.0000
  H   H1010     1.0  0.49288  0.65508  0.32689  1.0000
  C   C579      1.0  0.39339  0.84526  0.40508  1.0000
  H   H1011     1.0  0.32742  0.82146  0.14190  1.0000
  H   H1012     1.0  0.41759  0.90483  0.40831  1.0000
  H   H1013     1.0  0.29809  0.84561  0.38163  1.0000
  H   H1014     1.0  0.42132  0.52215  0.24538  1.0000
  C   C580      1.0  0.26866  0.86117  0.18445  1.0000
  S   S134      1.0  0.51040  0.54821  0.35683  1.0000
  H   H1015     1.0  0.39105  0.92163  0.36721  1.0000
  H   H1016     1.0  0.40645  0.87022  0.44148  1.0000
  H   H1017     1.0  0.37069  0.85356  0.43500  1.0000
  C   C581      1.0  0.29352  0.85802  0.18919  1.0000
  H   H1018     1.0  0.38818  0.88610  0.38858  1.0000
  H   H1019     1.0  0.43757  0.55275  0.26555  1.0000
  Fe  Fe66      1.0  0.49244  0.51638  0.32321  1.0000
  H   H1020     1.0  0.34448  0.87600  0.44381  1.0000
  C   C582      1.0  0.51054  0.51228  0.00471  1.0000
  C   C583      1.0  0.28908  0.83895  0.21410  1.0000
  S   S135      1.0  0.50210  0.99906  0.29878  1.0000
  H   H1021     1.0  0.44213  0.58211  0.43342  1.0000
  C   C584      1.0  0.48804  0.97573  0.24667  1.0000
  H   H1022     1.0  0.38439  0.94464  0.42206  1.0000
  C   C585      1.0  0.27227  0.76849  0.26654  1.0000
  C   C586      1.0  0.32213  0.82448  0.19965  1.0000
  C   C587      1.0  0.34389  0.84540  0.17946  1.0000
  H   H1023     1.0  0.39201  0.89838  0.22689  1.0000
  C   C588      1.0  0.50618  0.58929  0.42231  1.0000
  C   C589      1.0  0.46348  0.54918  0.23447  1.0000
  H   H1024     1.0  0.49962  0.56759  0.42641  1.0000
  H   H1025     1.0  0.34639  0.87948  0.37979  1.0000
  Fe  Fe67      1.0  0.47792  0.51682  0.38495  1.0000
  H   H1026     1.0  0.29758  0.84897  0.41875  1.0000
  C   C590      1.0  0.35965  0.86230  0.24707  1.0000
  C   C591      1.0  0.30748  0.85984  0.39925  1.0000
  H   H1027     1.0  0.27149  0.81918  0.20809  1.0000
  H   H1028     1.0  0.39825  0.95896  0.23208  1.0000
  H   H1029     1.0  0.50948  0.95011  0.17274  1.0000
  H   H1030     1.0  0.27010  0.95107  0.41255  1.0000
  H   H1031     1.0  0.50429  0.59048  0.39944  1.0000
  H   H1032     1.0  0.46441  0.87147  0.27011  1.0000
  H   H1033     1.0  0.42787  0.55393  0.23003  1.0000
  H   H1034     1.0  0.31103  0.87864  0.19243  1.0000
  H   H1035     1.0  0.42485  0.99708  0.14463  1.0000
  H   H1036     1.0  0.44970  0.55558  0.42582  1.0000
  H   H1037     1.0  0.47614  0.95901  0.20561  1.0000
  C   C592      1.0  0.48478  0.59447  0.43642  1.0000
  H   H1038     1.0  0.37708  0.83785  0.38924  1.0000
  H   H1039     1.0  0.29775  0.99600  0.43436  1.0000
  H   H1040     1.0  0.50883  0.63308  0.24801  1.0000
  H   H1041     1.0  0.50829  0.84655  0.41846  1.0000
  H   H1042     1.0  0.51259  0.55951  0.25922  1.0000
  C   C593      1.0  0.51218  0.65634  0.32287  1.0000
  S   S136      1.0  0.47926  0.51007  0.43242  1.0000
  S   S137      1.0  0.49515  0.99173  0.67583  1.0000
  C   C594      1.0  0.48392  0.87924  0.75372  1.0000
  H   H1043     1.0  0.27985  0.73672  0.83423  1.0000
  Fe  Fe68      1.0  0.43478  0.90102  0.84798  1.0000
  S   S138      1.0  0.44247  0.94189  0.86242  1.0000
  S   S139      1.0  0.39586  0.86676  0.82891  1.0000
  Fe  Fe69      1.0  0.47974  0.95834  0.83543  1.0000
  H   H1044     1.0  0.42237  0.59839  0.74679  1.0000
  Fe  Fe70      1.0  0.46860  0.93887  0.89614  1.0000
  S   S140      1.0  0.46644  0.94666  0.94271  1.0000
  S   S141      1.0  0.47094  0.91784  0.81937  1.0000
  S   S142      1.0  0.45791  0.89620  0.88365  1.0000
  H   H1045     1.0  0.46792  0.58333  0.69788  1.0000
  S   S143      1.0  0.45798  0.53070  0.80654  1.0000
  H   H1046     1.0  0.43820  0.98385  0.69762  1.0000
  H   H1047     1.0  0.43173  0.93497  0.76741  1.0000
  S   S144      1.0  0.44304  0.53859  0.87037  1.0000
  C   C595      1.0  0.49180  0.50971  0.72106  1.0000
  H   H1048     1.0  0.48315  0.62059  0.76144  1.0000
  Fe  Fe71      1.0  0.47410  0.56452  0.83794  1.0000
  S   S145      1.0  0.48007  0.60618  0.82489  1.0000
  C   C596      1.0  0.42836  0.58917  0.76377  1.0000
  S   S146      1.0  0.27958  0.85744  0.81807  1.0000
  S   S147      1.0  0.50575  0.55549  0.85442  1.0000
  C   C597      1.0  0.50679  0.59083  0.75453  1.0000
  H   H1049     1.0  0.40795  0.91350  0.79244  1.0000
  C   C598      1.0  0.34328  0.92157  0.75438  1.0000
  C   C599      1.0  0.42583  0.88710  0.75553  1.0000
  H   H1050     1.0  0.37841  0.90628  0.51081  1.0000
  S   S148      1.0  0.48689  0.53126  0.93134  1.0000
  H   H1051     1.0  0.44437  0.84281  0.75667  1.0000
  C   C600      1.0  0.36407  0.86528  0.82516  1.0000
  C   C601      1.0  0.35793  0.88299  0.83927  1.0000
  C   C602      1.0  0.33205  0.88038  0.83658  1.0000
  C   C603      1.0  0.31210  0.86027  0.81956  1.0000
  C   C604      1.0  0.31849  0.84305  0.80479  1.0000
  C   C605      1.0  0.34426  0.84541  0.80780  1.0000
  H   H1052     1.0  0.37290  0.89830  0.85277  1.0000
  H   H1053     1.0  0.32734  0.89384  0.84806  1.0000
  H   H1054     1.0  0.30352  0.82780  0.79131  1.0000
  H   H1055     1.0  0.34887  0.83169  0.79668  1.0000
  C   C606      1.0  0.48563  0.99571  0.50827  1.0000
  H   H1056     1.0  0.32769  0.76976  0.86889  1.0000
  C   C607      1.0  0.44897  0.58140  0.75347  1.0000
  N   N33       1.0  0.39292  0.93317  0.76448  1.0000
  C   C608      1.0  0.49259  0.51255  0.95818  1.0000
  Fe  Fe72      1.0  0.48754  0.51990  0.82520  1.0000
  H   H1057     1.0  0.51089  0.63579  0.70327  1.0000
  C   C609      1.0  0.50742  0.66007  0.80921  1.0000
  H   H1058     1.0  0.40612  0.99210  0.82557  1.0000
  H   H1059     1.0  0.42662  0.96953  0.74715  1.0000
  H   H1060     1.0  0.49737  0.63346  0.88893  1.0000
  H   H1061     1.0  0.43916  0.56618  0.73680  1.0000
  H   H1062     1.0  0.49614  0.92858  0.68099  1.0000
  H   H1063     1.0  0.38170  0.95934  0.78657  1.0000
  H   H1064     1.0  0.35003  0.93768  0.73830  1.0000
  H   H1065     1.0  0.47101  0.56137  0.65362  1.0000
  H   H1066     1.0  0.49634  0.82218  0.80410  1.0000
  H   H1067     1.0  0.47431  0.99886  0.52438  1.0000
  C   C610      1.0  0.42024  0.96826  0.80299  1.0000
  H   H1068     1.0  0.44498  0.90403  0.74706  1.0000
  H   H1069     1.0  0.42898  0.88315  0.77738  1.0000
  S   S149      1.0  0.50627  0.95841  0.87014  1.0000
  C   C611      1.0  0.41672  0.98048  0.82975  1.0000
  H   H1070     1.0  0.50247  0.70432  0.84227  1.0000
  H   H1071     1.0  0.27305  0.91114  0.89598  1.0000
  H   H1072     1.0  0.40994  0.57070  0.77138  1.0000
  H   H1073     1.0  0.42253  0.93659  0.71346  1.0000
  C   C612      1.0  0.40763  0.94380  0.71280  1.0000
  H   H1074     1.0  0.28262  0.76555  0.78899  1.0000
  H   H1075     1.0  0.50435  0.70976  0.90695  1.0000
  H   H1076     1.0  0.27547  0.99778  0.57149  1.0000
  C   C613      1.0  0.50758  0.99880  0.95790  1.0000
  H   H1077     1.0  0.48744  0.65773  0.80697  1.0000
  H   H1078     1.0  0.27534  0.74386  0.86872  1.0000
  C   C614      1.0  0.36408  0.91167  0.75805  1.0000
  H   H1079     1.0  0.50859  0.93104  0.73109  1.0000
  H   H1080     1.0  0.42026  0.86850  0.74334  1.0000
  C   C615      1.0  0.50995  0.63769  0.81787  1.0000
  N   N34       1.0  0.49692  0.60170  0.73140  1.0000
  H   H1081     1.0  0.34490  0.79991  0.84767  1.0000
  C   C616      1.0  0.30105  0.77962  0.84504  1.0000
  H   H1082     1.0  0.26651  0.77006  0.74312  1.0000
  H   H1083     1.0  0.43238  0.95843  0.80792  1.0000
  C   C617      1.0  0.40989  0.91993  0.77029  1.0000
  H   H1084     1.0  0.30220  0.78971  0.82509  1.0000
  C   C618      1.0  0.31561  0.89817  0.74562  1.0000
  C   C619      1.0  0.46603  0.84838  0.75596  1.0000
  H   H1085     1.0  0.30084  0.90552  0.74389  1.0000
  H   H1086     1.0  0.42066  0.95915  0.67101  1.0000
  H   H1087     1.0  0.31697  0.89000  0.72519  1.0000
  H   H1088     1.0  0.51150  0.60376  0.77328  1.0000
  H   H1089     1.0  0.43693  0.60377  0.78122  1.0000
  C   C620      1.0  0.40543  0.95416  0.74169  1.0000
  Fe  Fe73      1.0  0.47408  0.52731  0.88521  1.0000
  H   H1090     1.0  0.38438  0.87633  0.76206  1.0000
  H   H1091     1.0  0.50774  0.68008  0.87628  1.0000
  H   H1092     1.0  0.47069  0.84071  0.77523  1.0000
  H   H1093     1.0  0.50170  0.56037  0.64704  1.0000
  H   H1094     1.0  0.49041  0.57047  0.76129  1.0000
  C   C621      1.0  0.40309  0.89392  0.75357  1.0000
  Fe  Fe74      1.0  0.49456  0.91614  0.85593  1.0000
  H   H1095     1.0  0.38049  0.93244  0.80695  1.0000
  H   H1096     1.0  0.30055  0.79288  0.86158  1.0000
  C   C622      1.0  0.41812  0.96675  0.69132  1.0000
  H   H1097     1.0  0.45336  0.57159  0.77108  1.0000
  C   C623      1.0  0.48421  0.58105  0.70832  1.0000
  H   H1098     1.0  0.46915  0.83827  0.73781  1.0000
  H   H1099     1.0  0.38718  0.94132  0.51468  1.0000
  H   H1100     1.0  0.47888  0.53920  0.67367  1.0000
  H   H1101     1.0  0.35626  0.89613  0.77496  1.0000
  H   H1102     1.0  0.38778  0.92730  0.70542  1.0000
  H   H1103     1.0  0.47935  0.51494  0.76157  1.0000
  H   H1104     1.0  0.36296  0.90035  0.73900  1.0000
  H   H1105     1.0  0.48018  0.95139  0.76872  1.0000
  C   C624      1.0  0.39229  0.94762  0.79046  1.0000
  C   C625      1.0  0.48532  0.97406  0.96626  1.0000
  C   C626      1.0  0.49402  0.99416  0.77108  1.0000
  C   C627      1.0  0.47530  0.60687  0.74323  1.0000
  C   C628      1.0  0.49338  0.51119  0.75010  1.0000
  H   H1106     1.0  0.48009  0.95052  0.71723  1.0000
  H   H1107     1.0  0.39952  0.89573  0.73136  1.0000
  H   H1108     1.0  0.50185  0.92542  0.95957  1.0000
  H   H1109     1.0  0.41305  0.93321  0.50567  1.0000
  H   H1110     1.0  0.39461  0.96587  0.73951  1.0000
  C   C629      1.0  0.48760  0.55939  0.66349  1.0000
  H   H1111     1.0  0.47634  0.51214  0.71060  1.0000
  H   H1112     1.0  0.32967  0.76694  0.83165  1.0000
  H   H1113     1.0  0.48655  0.86405  0.91557  1.0000
  C   C630      1.0  0.32735  0.77885  0.84855  1.0000
  H   H1114     1.0  0.47782  0.88590  0.73473  1.0000
  H   H1115     1.0  0.51081  0.60162  0.67260  1.0000
  H   H1116     1.0  0.40499  0.96427  0.84524  1.0000
  H   H1117     1.0  0.46937  0.61755  0.72764  1.0000
  H   H1118     1.0  0.47949  0.88819  0.77195  1.0000
  H   H1119     1.0  0.30782  0.88153  0.76127  1.0000
  C   C631      1.0  0.48641  0.96987  0.75709  1.0000
  H   H1120     1.0  0.34013  0.92946  0.77420  1.0000
  H   H1121     1.0  0.49968  0.72670  0.86657  1.0000
  H   H1122     1.0  0.49438  0.86468  0.95188  1.0000
  H   H1123     1.0  0.43698  0.99456  0.83865  1.0000
  H   H1124     1.0  0.47396  0.55998  0.71696  1.0000
  H   H1125     1.0  0.40364  0.97435  0.68870  1.0000
  H   H1126     1.0  0.43217  0.98543  0.78860  1.0000
  H   H1127     1.0  0.49465  0.74049  0.93654  1.0000
  H   H1128     1.0  0.49401  0.73750  0.81812  1.0000
  C   C632      1.0  0.49516  0.99345  0.71246  1.0000
  C   C633      1.0  0.39141  0.92721  0.50264  1.0000
  C   C634      1.0  0.27577  0.75065  0.84692  1.0000
  C   C635      1.0  0.49024  0.87563  0.93514  1.0000
  H   H1129     1.0  0.47168  0.87654  0.94031  1.0000
  C   C636      1.0  0.50298  0.58224  0.68434  1.0000
  C   C637      1.0  0.48660  0.96947  0.72793  1.0000
  S   S150      1.0  0.49301  0.99541  0.80771  1.0000
  H   H1130     1.0  0.49114  0.85866  0.82676  1.0000
  C   C638      1.0  0.51067  0.85976  0.82656  1.0000
  H   H1131     1.0  0.50966  0.91353  0.91333  1.0000
  H   H1132     1.0  0.50924  0.89535  0.69832  1.0000
  C   C639      1.0  0.47239  0.98169  0.48374  1.0000
  C   C640      1.0  0.51271  0.72541  0.85033  1.0000
  H   H1133     1.0  0.27465  0.82341  0.87259  1.0000
  H   H1134     1.0  0.26325  0.79117  0.83456  1.0000
  H   H1135     1.0  0.26282  0.78261  0.79073  1.0000
  C   C641      1.0  0.74134  0.11078  0.08235  1.0000
  S   S151      1.0  0.54241  0.08285  0.15122  1.0000
  H   H1136     1.0  0.59678  0.15207  0.15217  1.0000
  S   S152      1.0  0.55128  0.09646  0.08470  1.0000
  C   C642      1.0  0.58627  0.16097  0.16371  1.0000
  Fe  Fe75      1.0  0.57564  0.09275  0.11974  1.0000
  S   S153      1.0  0.61944  0.12862  0.12116  1.0000
  C   C643      1.0  0.57313  0.22087  0.15036  1.0000
  S   S154      1.0  0.56212  0.04900  0.10965  1.0000
  H   H1137     1.0  0.55031  0.50657  0.24804  1.0000
  S   S155      1.0  0.55344  0.47505  0.14867  1.0000
  C   C644      1.0  0.71499  0.10394  0.12508  1.0000
  S   S156      1.0  0.56202  0.46475  0.08360  1.0000
  C   C645      1.0  0.64187  0.20103  0.14483  1.0000
  H   H1138     1.0  0.75711  0.20452  0.10680  1.0000
  C   C646      1.0  0.55432  0.16187  0.11226  1.0000
  S   S157      1.0  0.72736  0.15586  0.18848  1.0000
  H   H1139     1.0  0.63727  0.49694  0.11928  1.0000
  C   C647      1.0  0.60791  0.50247  0.26822  1.0000
  C   C648      1.0  0.64907  0.13575  0.14037  1.0000
  C   C649      1.0  0.64890  0.11862  0.16141  1.0000
  C   C650      1.0  0.67296  0.12534  0.17606  1.0000
  C   C651      1.0  0.69749  0.14924  0.16997  1.0000
  C   C652      1.0  0.69758  0.16651  0.14911  1.0000
  C   C653      1.0  0.67357  0.15971  0.13435  1.0000
  H   H1140     1.0  0.63028  0.10015  0.16634  1.0000
  H   H1141     1.0  0.67259  0.11181  0.19216  1.0000
  H   H1142     1.0  0.71616  0.18504  0.14424  1.0000
  H   H1143     1.0  0.67400  0.17308  0.11806  1.0000
  H   H1144     1.0  0.74405  0.19499  0.25793  1.0000
  H   H1145     1.0  0.72060  0.14463  0.09189  1.0000
  H   H1146     1.0  0.64073  0.18498  0.15893  1.0000
  C   C654      1.0  0.59425  0.16318  0.19477  1.0000
  C   C655      1.0  0.60702  0.48787  0.29523  1.0000
  H   H1147     1.0  0.54772  0.14112  0.12023  1.0000
  Fe  Fe76      1.0  0.53568  0.43940  0.11944  1.0000
  H   H1148     1.0  0.57699  0.11935  0.19995  1.0000
  H   H1149     1.0  0.57991  0.20183  0.18580  1.0000
  C   C656      1.0  0.53092  0.50268  0.24009  1.0000
  N   N35       1.0  0.74034  0.12362  0.10943  1.0000
  H   H1150     1.0  0.60729  0.47388  0.15798  1.0000
  H   H1151     1.0  0.59360  0.23916  0.15117  1.0000
  H   H1152     1.0  0.66345  0.07527  0.14740  1.0000
  H   H1153     1.0  0.63903  0.19335  0.12329  1.0000
  H   H1154     1.0  0.66544  0.05362  0.12115  1.0000
  H   H1155     1.0  0.73772  0.14941  0.25387  1.0000
  H   H1156     1.0  0.75478  0.08664  0.03982  1.0000
  C   C657      1.0  0.73879  0.14911  0.10435  1.0000
  H   H1157     1.0  0.71499  0.11194  0.14616  1.0000
  C   C658      1.0  0.67054  0.22534  0.14713  1.0000
  H   H1158     1.0  0.59180  0.48758  0.25451  1.0000
  H   H1159     1.0  0.60229  0.46840  0.22125  1.0000
  H   H1160     1.0  0.59603  0.17223  0.11029  1.0000
  C   C659      1.0  0.71393  0.09666  0.26413  1.0000
  H   H1161     1.0  0.68552  0.21891  0.14189  1.0000
  H   H1162     1.0  0.68370  0.11414  0.11346  1.0000
  H   H1163     1.0  0.61293  0.13771  0.19305  1.0000
  H   H1164     1.0  0.55924  0.23197  0.18768  1.0000
  H   H1165     1.0  0.72382  0.10155  0.24353  1.0000
  H   H1166     1.0  0.70577  0.11042  0.26847  1.0000
  Fe  Fe77      1.0  0.53589  0.05206  0.07609  1.0000
  H   H1167     1.0  0.56448  0.14520  0.16263  1.0000
  H   H1168     1.0  0.58428  0.44442  0.17768  1.0000
  H   H1169     1.0  0.53005  0.11701  0.21248  1.0000
  H   H1170     1.0  0.58666  0.47944  0.30484  1.0000
  H   H1171     1.0  0.67335  0.24174  0.13252  1.0000
  H   H1172     1.0  0.68765  0.09261  0.08879  1.0000
  H   H1173     1.0  0.62427  0.22668  0.13896  1.0000
  Fe  Fe78      1.0  0.57686  0.50071  0.11222  1.0000
  H   H1174     1.0  0.57871  0.16436  0.20765  1.0000
  H   H1175     1.0  0.54414  0.42446  0.21506  1.0000
  H   H1176     1.0  0.69626  0.05306  0.25734  1.0000
  C   C660      1.0  0.51874  0.09502  0.21780  1.0000
  C   C661      1.0  0.55001  0.15992  0.08090  1.0000
  C   C662      1.0  0.55357  0.22751  0.16550  1.0000
  H   H1177     1.0  0.67463  0.23335  0.16861  1.0000
  C   C663      1.0  0.57340  0.19615  0.16391  1.0000
  H   H1178     1.0  0.53050  0.50848  0.43524  1.0000
  S   S158      1.0  0.53730  0.04115  0.03020  1.0000
  H   H1179     1.0  0.73071  0.08820  0.08427  1.0000
  N   N36       1.0  0.59109  0.18692  0.14994  1.0000
  C   C664      1.0  0.73350  0.09893  0.28764  1.0000
  C   C665      1.0  0.63552  0.50608  0.20419  1.0000
  H   H1180     1.0  0.75856  0.08893  0.12390  1.0000
  C   C666      1.0  0.68762  0.09692  0.11118  1.0000
  H   H1181     1.0  0.55216  0.17916  0.16544  1.0000
  H   H1182     1.0  0.51435  0.13229  0.16375  1.0000
  C   C667      1.0  0.75387  0.16357  0.26791  1.0000
  H   H1183     1.0  0.73664  0.15735  0.12449  1.0000
  C   C668      1.0  0.52511  0.49748  0.21167  1.0000
  H   H1184     1.0  0.53101  0.08567  0.21152  1.0000
  C   C669      1.0  0.53657  0.50294  0.47870  1.0000
  H   H1185     1.0  0.53409  0.04164  0.26028  1.0000
  C   C670      1.0  0.60685  0.48099  0.20224  1.0000
  C   C671      1.0  0.52160  0.02349  0.24836  1.0000
  H   H1186     1.0  0.67842  0.06200  0.28252  1.0000
  H   H1187     1.0  0.60038  0.13965  0.22674  1.0000
  C   C672      1.0  0.60467  0.46292  0.17785  1.0000
  C   C673      1.0  0.52303  0.02464  0.21922  1.0000
  H   H1188     1.0  0.71455  0.08431  0.12852  1.0000
  H   H1189     1.0  0.59137  0.20072  0.10783  1.0000
  H   H1190     1.0  0.74552  0.11212  0.34479  1.0000
  Fe  Fe79      1.0  0.52727  0.03935  0.13880  1.0000
  C   C674      1.0  0.59618  0.13841  0.20415  1.0000
  H   H1191     1.0  0.72224  0.09650  0.30718  1.0000
  C   C675      1.0  0.58450  0.18141  0.11952  1.0000
  H   H1192     1.0  0.76010  0.11903  0.02677  1.0000
  S   S159      1.0  0.53217  0.40086  0.13923  1.0000
  H   H1193     1.0  0.51578  0.09289  0.24061  1.0000
  Fe  Fe80      1.0  0.52773  0.47284  0.07275  1.0000
  H   H1194     1.0  0.72989  0.11485  0.06606  1.0000
  H   H1195     1.0  0.59135  0.48710  0.19918  1.0000
  H   H1196     1.0  0.61087  0.47081  0.29118  1.0000
  H   H1197     1.0  0.64452  0.06887  0.11569  1.0000
  H   H1198     1.0  0.62017  0.45652  0.17939  1.0000
  H   H1199     1.0  0.56352  0.15370  0.07066  1.0000
  H   H1200     1.0  0.64941  0.49794  0.20826  1.0000
  H   H1201     1.0  0.55405  0.17977  0.07223  1.0000
  C   C676      1.0  0.66388  0.07211  0.12476  1.0000
  H   H1202     1.0  0.54765  0.45790  0.21455  1.0000
  H   H1203     1.0  0.67553  0.06709  0.24605  1.0000
  H   H1204     1.0  0.62482  0.21770  0.17379  1.0000
  H   H1205     1.0  0.61411  0.18133  0.19917  1.0000
  C   C677      1.0  0.62032  0.20912  0.15250  1.0000
  C   C678      1.0  0.68958  0.06789  0.26252  1.0000
  H   H1206     1.0  0.72813  0.17624  0.28906  1.0000
  H   H1207     1.0  0.54084  0.16885  0.12100  1.0000
  C   C679      1.0  0.75801  0.14933  0.29359  1.0000
  H   H1208     1.0  0.56654  0.21687  0.12842  1.0000
  H   H1209     1.0  0.75237  0.09720  0.15794  1.0000
  H   H1210     1.0  0.68008  0.49998  0.13598  1.0000
  C   C680      1.0  0.74707  0.18534  0.27665  1.0000
  H   H1211     1.0  0.55420  0.24566  0.15588  1.0000
  Fe  Fe81      1.0  0.51734  0.08358  0.11544  1.0000
  H   H1212     1.0  0.74128  0.14433  0.30855  1.0000
  H   H1213     1.0  0.74064  0.19226  0.07369  1.0000
  C   C681      1.0  0.52242  0.50593  0.45598  1.0000
  H   H1214     1.0  0.52319  0.35323  0.16924  1.0000
  H   H1215     1.0  0.73599  0.08070  0.28690  1.0000
  H   H1216     1.0  0.53997  0.49740  0.19786  1.0000
  H   H1217     1.0  0.52869  0.14445  0.07619  1.0000
  H   H1218     1.0  0.53245  0.21028  0.16403  1.0000
  H   H1219     1.0  0.55552  0.50335  0.47507  1.0000
  H   H1220     1.0  0.53669  0.04351  0.20881  1.0000
  Fe  Fe82      1.0  0.51962  0.48146  0.13456  1.0000
  H   H1221     1.0  0.52910  0.43483  0.24218  1.0000
  C   C682      1.0  0.53381  0.43625  0.21971  1.0000
  C   C683      1.0  0.51614  0.01521  0.00609  1.0000
  H   H1222     1.0  0.64351  0.50049  0.25530  1.0000
  C   C684      1.0  0.75903  0.19728  0.08605  1.0000
  H   H1223     1.0  0.57098  0.50346  0.99645  1.0000
  H   H1224     1.0  0.62236  0.50222  0.31009  1.0000
  N   N37       1.0  0.76083  0.12454  0.28846  1.0000
  C   C685      1.0  0.76277  0.17245  0.08866  1.0000
  H   H1225     1.0  0.51370  0.42754  0.18028  1.0000
  H   H1226     1.0  0.69470  0.09363  0.79377  1.0000
  S   S160      1.0  0.52657  0.07209  0.65709  1.0000
  H   H1227     1.0  0.68639  0.11373  0.74630  1.0000
  S   S161      1.0  0.54065  0.08380  0.59068  1.0000
  H   H1228     1.0  0.68837  0.09600  0.51700  1.0000
  Fe  Fe83      1.0  0.56193  0.08163  0.62917  1.0000
  S   S162      1.0  0.60321  0.11985  0.63688  1.0000
  C   C686      1.0  0.56196  0.15312  0.61201  1.0000
  S   S163      1.0  0.54899  0.03774  0.62116  1.0000
  H   H1229     1.0  0.73182  0.14573  0.83078  1.0000
  S   S164      1.0  0.53645  0.45428  0.65576  1.0000
  Fe  Fe84      1.0  0.54068  0.48215  0.57999  1.0000
  S   S165      1.0  0.55209  0.45023  0.59123  1.0000
  H   H1230     1.0  0.55059  0.13118  0.66516  1.0000
  H   H1231     1.0  0.68770  0.11699  0.81031  1.0000
  Fe  Fe85      1.0  0.57347  0.47643  0.62840  1.0000
  S   S166      1.0  0.71433  0.13419  0.68619  1.0000
  H   H1232     1.0  0.54890  0.07930  0.52097  1.0000
  H   H1233     1.0  0.59283  0.05756  0.53789  1.0000
  C   C687      1.0  0.63382  0.12331  0.65084  1.0000
  C   C688      1.0  0.63536  0.10125  0.66183  1.0000
  C   C689      1.0  0.66015  0.10498  0.67242  1.0000
  C   C690      1.0  0.68381  0.13071  0.67192  1.0000
  C   C691      1.0  0.68227  0.15277  0.66088  1.0000
  C   C692      1.0  0.65738  0.14911  0.65069  1.0000
  H   H1234     1.0  0.61737  0.08139  0.66254  1.0000
  H   H1235     1.0  0.66100  0.08780  0.68110  1.0000
  H   H1236     1.0  0.70019  0.17271  0.66054  1.0000
  H   H1237     1.0  0.65645  0.16641  0.64253  1.0000
  C   C693      1.0  0.75089  0.02154  0.54514  1.0000
  H   H1238     1.0  0.52903  0.15818  0.62585  1.0000
  H   H1239     1.0  0.59936  0.19773  0.64471  1.0000
  H   H1240     1.0  0.67119  0.12736  0.76888  1.0000
  H   H1241     1.0  0.71746  0.47796  0.57645  1.0000
  H   H1242     1.0  0.70917  0.08977  0.74889  1.0000
  H   H1243     1.0  0.58231  0.07031  0.49856  1.0000
  N   N38       1.0  0.75764  0.50637  0.61688  1.0000
  C   C694      1.0  0.67677  0.11124  0.76690  1.0000
  H   H1244     1.0  0.60896  0.10400  0.50393  1.0000
  H   H1245     1.0  0.54551  0.49892  0.75948  1.0000
  H   H1246     1.0  0.52418  0.22296  0.67208  1.0000
  C   C695      1.0  0.59011  0.08760  0.51334  1.0000
  C   C696      1.0  0.72866  0.50058  0.61591  1.0000
  H   H1247     1.0  0.66812  0.08658  0.56444  1.0000
  H   H1248     1.0  0.74019  0.12018  0.86862  1.0000
  C   C697      1.0  0.73027  0.10073  0.75679  1.0000
  N   N39       1.0  0.72530  0.13598  0.78721  1.0000
  H   H1249     1.0  0.57766  0.07334  0.55602  1.0000
  H   H1250     1.0  0.64990  0.11589  0.52276  1.0000
  H   H1251     1.0  0.73922  0.46247  0.61367  1.0000
  C   C698      1.0  0.64455  0.09932  0.53820  1.0000
  C   C699      1.0  0.74976  0.21314  0.77381  1.0000
  H   H1252     1.0  0.53728  0.41515  0.74234  1.0000
  H   H1253     1.0  0.51847  0.20556  0.70514  1.0000
  H   H1254     1.0  0.65488  0.06699  0.76427  1.0000
  C   C700      1.0  0.55502  0.15257  0.58131  1.0000
  C   C701      1.0  0.55138  0.16907  0.62906  1.0000
  C   C702      1.0  0.66618  0.50729  0.66294  1.0000
  H   H1255     1.0  0.54001  0.15836  0.71509  1.0000
  C   C703      1.0  0.62269  0.12309  0.56084  1.0000
  C   C704      1.0  0.52647  0.49938  0.50600  1.0000
  H   H1256     1.0  0.71216  0.16469  0.79816  1.0000
  H   H1257     1.0  0.66609  0.15270  0.55915  1.0000
  H   H1258     1.0  0.74539  0.01894  0.56743  1.0000
  H   H1259     1.0  0.59165  0.19115  0.70789  1.0000
  Fe  Fe86      1.0  0.52487  0.03911  0.58436  1.0000
  S   S167      1.0  0.53148  0.02304  0.54264  1.0000
  H   H1260     1.0  0.59356  0.16720  0.66114  1.0000
  H   H1261     1.0  0.64391  0.05854  0.61545  1.0000
  H   H1262     1.0  0.56403  0.17354  0.57284  1.0000
  S   S168      1.0  0.54548  0.49562  0.53380  1.0000
  C   C705      1.0  0.53576  0.48821  0.89709  1.0000
  C   C706      1.0  0.71473  0.49372  0.58709  1.0000
  H   H1263     1.0  0.54034  0.03787  0.97096  1.0000
  H   H1264     1.0  0.63972  0.09590  0.59590  1.0000
  H   H1265     1.0  0.58215  0.49897  0.92090  1.0000
  H   H1266     1.0  0.52810  0.09967  0.70835  1.0000
  H   H1267     1.0  0.58713  0.49242  0.97175  1.0000
  C   C707      1.0  0.51916  0.18226  0.66958  1.0000
  H   H1268     1.0  0.76154  0.14240  0.76586  1.0000
  S   S169      1.0  0.61220  0.48145  0.64875  1.0000
  N   N40       1.0  0.62147  0.09618  0.55630  1.0000
  H   H1269     1.0  0.74481  0.10572  0.71443  1.0000
  C   C708      1.0  0.64620  0.17086  0.58034  1.0000
  C   C709      1.0  0.58851  0.18384  0.66243  1.0000
  H   H1270     1.0  0.63150  0.18666  0.69392  1.0000
  H   H1271     1.0  0.64140  0.21903  0.70969  1.0000
  C   C710      1.0  0.54294  0.14452  0.67299  1.0000
  H   H1272     1.0  0.62054  0.13176  0.54097  1.0000
  H   H1273     1.0  0.73757  0.21663  0.78949  1.0000
  C   C711      1.0  0.69408  0.11254  0.53233  1.0000
  C   C712      1.0  0.55969  0.44344  0.50846  1.0000
  H   H1274     1.0  0.66536  0.18699  0.58959  1.0000
  H   H1275     1.0  0.71555  0.48321  0.62976  1.0000
  H   H1276     1.0  0.67428  0.46426  0.60217  1.0000
  C   C713      1.0  0.53051  0.50199  0.74880  1.0000
  H   H1277     1.0  0.74843  0.02646  0.92703  1.0000
  H   H1278     1.0  0.63694  0.08317  0.75061  1.0000
  C   C714      1.0  0.53113  0.41876  0.50941  1.0000
  C   C715      1.0  0.69622  0.11373  0.79086  1.0000
  H   H1279     1.0  0.65406  0.13932  0.59347  1.0000
  H   H1280     1.0  0.73106  0.08971  0.77537  1.0000
  H   H1281     1.0  0.59258  0.03974  0.58000  1.0000
  H   H1282     1.0  0.52147  0.40178  0.70937  1.0000
  H   H1283     1.0  0.55580  0.19663  0.69309  1.0000
  H   H1284     1.0  0.52128  0.13409  0.66667  1.0000
  H   H1285     1.0  0.67489  0.47909  0.56888  1.0000
  H   H1286     1.0  0.62568  0.05029  0.56650  1.0000
  H   H1287     1.0  0.71257  0.11576  0.54345  1.0000
  H   H1288     1.0  0.73305  0.49824  0.67450  1.0000
  H   H1289     1.0  0.72285  0.09561  0.82491  1.0000
  C   C716      1.0  0.73911  0.13094  0.76302  1.0000
  C   C717      1.0  0.75854  0.48122  0.60825  1.0000
  H   H1290     1.0  0.54158  0.43820  0.71447  1.0000
  H   H1291     1.0  0.63815  0.08067  0.52561  1.0000
  H   H1292     1.0  0.60468  0.08356  0.59740  1.0000
  C   C718      1.0  0.52386  0.11547  0.71638  1.0000
  C   C719      1.0  0.62069  0.08357  0.58417  1.0000
  H   H1293     1.0  0.64365  0.21688  0.67262  1.0000
  H   H1294     1.0  0.75822  0.10261  0.85967  1.0000
  C   C720      1.0  0.59491  0.07781  0.54196  1.0000
  H   H1295     1.0  0.63992  0.08084  0.78762  1.0000
  H   H1296     1.0  0.52133  0.48316  0.91461  1.0000
  C   C721      1.0  0.68433  0.48332  0.58976  1.0000
  H   H1297     1.0  0.71535  0.16147  0.76181  1.0000
  C   C722      1.0  0.67113  0.10494  0.55310  1.0000
  C   C723      1.0  0.74068  0.13929  0.81383  1.0000
  H   H1298     1.0  0.57467  0.43673  0.50440  1.0000
  H   H1299     1.0  0.67813  0.12153  0.56838  1.0000
  C   C724      1.0  0.75272  0.18866  0.78198  1.0000
  H   H1300     1.0  0.55252  0.13188  0.61952  1.0000
  H   H1301     1.0  0.75987  0.48065  0.58526  1.0000
  H   H1302     1.0  0.56651  0.10372  0.49393  1.0000
  C   C725      1.0  0.54438  0.14348  0.70499  1.0000
  H   H1303     1.0  0.66012  0.49074  0.67757  1.0000
  H   H1304     1.0  0.54291  0.49668  0.70795  1.0000
  H   H1305     1.0  0.60522  0.12003  0.57393  1.0000
  H   H1306     1.0  0.55932  0.18940  0.61906  1.0000
  C   C726      1.0  0.65054  0.08383  0.76752  1.0000
  H   H1307     1.0  0.53269  0.14190  0.57836  1.0000
  C   C727      1.0  0.63154  0.20617  0.69128  1.0000
  C   C728      1.0  0.75009  0.49475  0.66917  1.0000
  C   C729      1.0  0.62200  0.04538  0.61087  1.0000
  H   H1308     1.0  0.56102  0.21169  0.66001  1.0000
  Fe  Fe87      1.0  0.52658  0.48585  0.64115  1.0000
  H   H1309     1.0  0.74218  0.07657  0.73211  1.0000
  H   H1310     1.0  0.56476  0.14737  0.71132  1.0000
  H   H1311     1.0  0.60364  0.22107  0.68689  1.0000
  H   H1312     1.0  0.58427  0.16232  0.61348  1.0000
  C   C730      1.0  0.60256  0.20099  0.68855  1.0000
  Fe  Fe88      1.0  0.51457  0.43074  0.61792  1.0000
  H   H1313     1.0  0.74117  0.47337  0.66231  1.0000
  H   H1314     1.0  0.54178  0.47231  0.89793  1.0000
  C   C731      1.0  0.74275  0.11453  0.82424  1.0000
  C   C732      1.0  0.56887  0.09665  0.51471  1.0000
  C   C733      1.0  0.64897  0.14599  0.57390  1.0000
  C   C734      1.0  0.54988  0.19179  0.67108  1.0000
  C   C735      1.0  0.51917  0.48390  0.87016  1.0000
  C   C736      1.0  0.72487  0.16213  0.78222  1.0000
  C   C737      1.0  0.74797  0.09824  0.73463  1.0000
  C   C738      1.0  0.61461  0.05366  0.58347  1.0000
  H   H1315     1.0  0.62956  0.16553  0.59543  1.0000
  H   H1316     1.0  0.73570  0.13932  0.74345  1.0000
  H   H1317     1.0  0.75267  0.48370  0.71174  1.0000
  H   H1318     1.0  0.57470  0.11341  0.52970  1.0000
  H   H1319     1.0  0.54433  0.48846  0.95372  1.0000
  H   H1320     1.0  0.51409  0.44494  0.50140  1.0000
  H   H1321     1.0  0.64200  0.17901  0.56114  1.0000
  N   N41       1.0  0.55820  0.17227  0.65962  1.0000
  H   H1322     1.0  0.58647  0.02833  0.90209  1.0000
  H   H1323     1.0  0.60989  0.04692  0.62805  1.0000
  H   H1324     1.0  0.75679  0.11156  0.81070  1.0000
  H   H1325     1.0  0.68075  0.49883  0.59983  1.0000
  H   H1326     1.0  0.56325  0.14156  0.56947  1.0000
  H   H1327     1.0  0.61742  0.02396  0.60965  1.0000
  C   C739      1.0  0.64641  0.50808  0.64595  1.0000
  H   H1328     1.0  0.53138  0.48597  0.85149  1.0000
  Fe  Fe89      1.0  0.75836  0.16944  0.68402  1.0000
  H   H1329     1.0  0.75113  0.09131  0.50517  1.0000
  C   C740      1.0  0.75450  0.11939  0.85355  1.0000
  H   H1330     1.0  0.57125  0.48560  0.86229  1.0000
  H   H1331     1.0  0.56485  0.45436  0.52854  1.0000
  C   C741      1.0  0.52299  0.01902  0.97770  1.0000
  H   H1332     1.0  0.69894  0.13166  0.52126  1.0000
  H   H1333     1.0  0.56133  0.45773  0.49173  1.0000
  C   C742      1.0  0.52707  0.41853  0.72438  1.0000
  H   H1334     1.0  0.52762  0.40818  0.48933  1.0000
  H   H1335     1.0  0.52528  0.11550  0.73934  1.0000
  C   C743      1.0  0.52903  0.50064  0.71961  1.0000
  H   H1336     1.0  0.73985  0.21003  0.75325  1.0000
  H   H1337     1.0  0.74160  0.03248  0.53492  1.0000
  H   H1338     1.0  0.76216  0.15572  0.81163  1.0000
  H   H1339     1.0  0.53084  0.40537  0.52641  1.0000
  H   H1340     1.0  0.60303  0.50712  0.87915  1.0000
  H   H1341     1.0  0.60912  0.50296  0.82925  1.0000
  C   C744      1.0  0.58780  0.50691  0.86458  1.0000
  S   S170      1.0  0.51479  0.50865  0.80081  1.0000
  C   C745      1.0  0.58163  0.50828  0.97614  1.0000
  H   H1342     1.0  0.76227  0.19315  0.80279  1.0000
  C   C746      1.0  0.56293  0.50871  0.95363  1.0000
  H   H1343     1.0  0.51419  0.43606  0.53641  1.0000
  H   H1344     1.0  0.55011  0.00941  0.90490  1.0000
  C   C747      1.0  0.51298  0.20300  0.68283  1.0000
  Fe  Fe90      1.0  0.63517  0.81395  0.31192  1.0000
  S   S171      1.0  0.59390  0.78200  0.32635  1.0000
  S   S172      1.0  0.67297  0.84037  0.33734  1.0000
  Fe  Fe91      1.0  0.61944  0.80675  0.25002  1.0000
  S   S173      1.0  0.57641  0.77396  0.25991  1.0000
  S   S174      1.0  0.63753  0.82960  0.20875  1.0000
  Fe  Fe92      1.0  0.57813  0.80089  0.29537  1.0000
  S   S175      1.0  0.54210  0.80682  0.30605  1.0000
  Fe  Fe93      1.0  0.59473  0.75715  0.29045  1.0000
  S   S176      1.0  0.58765  0.71369  0.29549  1.0000
  S   S177      1.0  0.61936  0.83441  0.28357  1.0000
  S   S178      1.0  0.63760  0.78830  0.27807  1.0000
  C   C748      1.0  0.51480  0.63314  0.32681  1.0000
  S   S179      1.0  0.71911  0.82324  0.02370  1.0000
  C   C749      1.0  0.75410  0.78051  0.38599  1.0000
  S   S180      1.0  0.70018  0.86862  0.03135  1.0000
  Fe  Fe94      1.0  0.71790  0.84910  0.05871  1.0000
  S   S181      1.0  0.70226  0.82641  0.10063  1.0000
  H   H1345     1.0  0.65286  0.78986  0.18866  1.0000
  H   H1346     1.0  0.55572  0.57218  0.24040  1.0000
  H   H1347     1.0  0.53913  0.82776  0.42094  1.0000
  H   H1348     1.0  0.51390  0.89641  0.26615  1.0000
  C   C750      1.0  0.53694  0.93824  0.19151  1.0000
  C   C751      1.0  0.64489  0.89240  0.33939  1.0000
  S   S182      1.0  0.72923  0.54336  0.15845  1.0000
  H   H1349     1.0  0.57369  0.77009  0.39100  1.0000
  H   H1350     1.0  0.63218  0.88163  0.32120  1.0000
  H   H1351     1.0  0.74496  0.67816  0.44620  1.0000
  C   C752      1.0  0.69899  0.54231  0.14707  1.0000
  C   C753      1.0  0.69562  0.56509  0.14795  1.0000
  C   C754      1.0  0.67132  0.56331  0.13841  1.0000
  H   H1352     1.0  0.54811  0.99015  0.30733  1.0000
  H   H1353     1.0  0.71174  0.58405  0.15601  1.0000
  H   H1354     1.0  0.66898  0.58110  0.13904  1.0000
  C   C755      1.0  0.56894  0.85578  0.39013  1.0000
  H   H1355     1.0  0.52155  0.95465  0.22300  1.0000
  C   C756      1.0  0.55935  0.68322  0.30830  1.0000
  H   H1356     1.0  0.72269  0.90199  0.23272  1.0000
  H   H1357     1.0  0.73090  0.80076  0.35142  1.0000
  C   C757      1.0  0.57090  0.91806  0.26654  1.0000
  S   S183      1.0  0.51359  0.96345  0.36170  1.0000
  C   C758      1.0  0.53425  0.68120  0.31364  1.0000
  H   H1358     1.0  0.55592  0.86308  0.43053  1.0000
  S   S184      1.0  0.52000  0.50988  0.29382  1.0000
  C   C759      1.0  0.52332  0.85109  0.40171  1.0000
  H   H1359     1.0  0.53177  0.69874  0.31045  1.0000
  C   C760      1.0  0.54078  0.83667  0.31453  1.0000
  C   C761      1.0  0.56419  0.86200  0.31760  1.0000
  C   C762      1.0  0.56228  0.88463  0.32662  1.0000
  H   H1360     1.0  0.51987  0.52284  0.02372  1.0000
  H   H1361     1.0  0.65518  0.90903  0.44563  1.0000
  C   C763      1.0  0.67533  0.76731  0.47347  1.0000
  H   H1362     1.0  0.58374  0.86397  0.31352  1.0000
  H   H1363     1.0  0.58057  0.90395  0.32960  1.0000
  H   H1364     1.0  0.59138  0.58279  0.40864  1.0000
  C   C764      1.0  0.67267  0.83782  0.37389  1.0000
  C   C765      1.0  0.64988  0.81823  0.38820  1.0000
  C   C766      1.0  0.65001  0.81731  0.41735  1.0000
  C   C767      1.0  0.67291  0.83588  0.43244  1.0000
  C   C768      1.0  0.69597  0.85499  0.41811  1.0000
  C   C769      1.0  0.69581  0.85596  0.38894  1.0000
  H   H1365     1.0  0.63205  0.80395  0.37685  1.0000
  H   H1366     1.0  0.63216  0.80237  0.42831  1.0000
  H   H1367     1.0  0.71365  0.86952  0.42952  1.0000
  H   H1368     1.0  0.71355  0.87115  0.37803  1.0000
  C   C770      1.0  0.65440  0.82750  0.17826  1.0000
  C   C771      1.0  0.66333  0.84841  0.15822  1.0000
  C   C772      1.0  0.67748  0.84823  0.13418  1.0000
  C   C773      1.0  0.68312  0.82715  0.12980  1.0000
  C   C774      1.0  0.67412  0.80620  0.14983  1.0000
  C   C775      1.0  0.65976  0.80625  0.17374  1.0000
  H   H1369     1.0  0.65932  0.86495  0.16132  1.0000
  H   H1370     1.0  0.68425  0.86455  0.11916  1.0000
  H   H1371     1.0  0.67827  0.78974  0.14677  1.0000
  C   C776      1.0  0.74008  0.87222  0.26743  1.0000
  H   H1372     1.0  0.59862  0.81737  0.40701  1.0000
  C   C777      1.0  0.62722  0.88817  0.36480  1.0000
  C   C778      1.0  0.71158  0.79588  0.43795  1.0000
  H   H1373     1.0  0.51641  0.89256  0.23025  1.0000
  H   H1374     1.0  0.74894  0.78288  0.43034  1.0000
  H   H1375     1.0  0.68531  0.78179  0.26192  1.0000
  Fe  Fe95      1.0  0.70456  0.84538  0.99600  1.0000
  H   H1376     1.0  0.70626  0.81222  0.44011  1.0000
  H   H1377     1.0  0.69173  0.53086  0.21213  1.0000
  C   C779      1.0  0.54722  0.84874  0.41293  1.0000
  H   H1378     1.0  0.69675  0.79743  0.31685  1.0000
  H   H1379     1.0  0.56459  0.98320  0.98604  1.0000
  C   C780      1.0  0.67621  0.89417  0.25708  1.0000
  H   H1380     1.0  0.67568  0.85695  0.26713  1.0000
  H   H1381     1.0  0.66203  0.88506  0.23936  1.0000
  H   H1382     1.0  0.55697  0.57151  0.15122  1.0000
  H   H1383     1.0  0.69086  0.91582  0.25238  1.0000
  H   H1384     1.0  0.68901  0.53463  0.24881  1.0000
  H   H1385     1.0  0.64140  0.51562  0.18333  1.0000
  H   H1386     1.0  0.53969  0.68111  0.40708  1.0000
  C   C781      1.0  0.66797  0.55070  0.22249  1.0000
  H   H1387     1.0  0.59239  0.96218  0.99620  1.0000
  H   H1388     1.0  0.69515  0.59602  0.04412  1.0000
  C   C782      1.0  0.62023  0.54942  0.19194  1.0000
  C   C783      1.0  0.69123  0.54444  0.22831  1.0000
  C   C784      1.0  0.58142  0.82138  0.40515  1.0000
  C   C785      1.0  0.53695  0.88256  0.33166  1.0000
  H   H1389     1.0  0.74074  0.77039  0.36797  1.0000
  H   H1390     1.0  0.62438  0.84958  0.37508  1.0000
  C   C786      1.0  0.71882  0.57046  0.22786  1.0000
  H   H1391     1.0  0.62462  0.55424  0.23658  1.0000
  H   H1392     1.0  0.62653  0.84681  0.43992  1.0000
  H   H1393     1.0  0.64595  0.56101  0.04626  1.0000
  C   C787      1.0  0.56508  0.58752  0.28183  1.0000
  H   H1394     1.0  0.67098  0.56767  0.23635  1.0000
  H   H1395     1.0  0.67164  0.55908  0.20110  1.0000
  H   H1396     1.0  0.58515  0.97571  0.27416  1.0000
  S   S185      1.0  0.75083  0.94455  0.01934  1.0000
  C   C788      1.0  0.70364  0.78989  0.38802  1.0000
  C   C789      1.0  0.54246  0.64524  0.39629  1.0000
  H   H1397     1.0  0.64038  0.56665  0.18632  1.0000
  H   H1398     1.0  0.56726  0.99201  0.26052  1.0000
  H   H1399     1.0  0.70873  0.55758  0.05194  1.0000
  C   C790      1.0  0.55237  0.67567  0.39411  1.0000
  N   N42       1.0  0.59188  0.85078  0.39750  1.0000
  H   H1400     1.0  0.54008  0.95517  0.05564  1.0000
  H   H1401     1.0  0.59358  0.86200  0.44052  1.0000
  H   H1402     1.0  0.56232  0.91858  0.22334  1.0000
  C   C791      1.0  0.63646  0.51564  0.25461  1.0000
  C   C792      1.0  0.56080  0.80009  0.38465  1.0000
  H   H1403     1.0  0.55051  0.62442  0.21539  1.0000
  H   H1404     1.0  0.67858  0.78088  0.22514  1.0000
  H   H1405     1.0  0.65687  0.91440  0.33432  1.0000
  C   C793      1.0  0.69039  0.78701  0.33726  1.0000
  H   H1406     1.0  0.73512  0.56539  0.23131  1.0000
  H   H1407     1.0  0.72237  0.58080  0.20745  1.0000
  H   H1408     1.0  0.72018  0.58459  0.24446  1.0000
  N   N43       1.0  0.73805  0.59564  0.07118  1.0000
  H   H1409     1.0  0.70267  0.55991  0.08721  1.0000
  C   C794      1.0  0.70432  0.83497  0.24090  1.0000
  H   H1410     1.0  0.56626  0.64950  0.43306  1.0000
  H   H1411     1.0  0.76068  0.99939  0.01989  1.0000
  H   H1412     1.0  0.60018  0.56730  0.16895  1.0000
  C   C795      1.0  0.57031  0.56784  0.40246  1.0000
  H   H1413     1.0  0.57933  0.54331  0.19511  1.0000
  C   C796      1.0  0.53864  0.95064  0.22054  1.0000
  H   H1414     1.0  0.74817  0.65215  0.13441  1.0000
  C   C797      1.0  0.60015  0.55986  0.19031  1.0000
  C   C798      1.0  0.75864  0.56380  0.06754  1.0000
  H   H1415     1.0  0.57470  0.61553  0.41742  1.0000
  C   C799      1.0  0.54566  0.66674  0.23301  1.0000
  H   H1416     1.0  0.69228  0.82921  0.26037  1.0000
  H   H1417     1.0  0.66619  0.88667  0.45977  1.0000
  C   C800      1.0  0.68773  0.57985  0.06020  1.0000
  C   C801      1.0  0.63254  0.86714  0.43109  1.0000
  C   C802      1.0  0.53008  0.95310  0.16923  1.0000
  H   H1418     1.0  0.72661  0.81855  0.21810  1.0000
  H   H1419     1.0  0.56766  0.57030  0.38002  1.0000
  H   H1420     1.0  0.69482  0.87224  0.21954  1.0000
  H   H1421     1.0  0.73778  0.84093  0.40814  1.0000
  H   H1422     1.0  0.57192  0.81670  0.42607  1.0000
  H   H1423     1.0  0.54920  0.93615  0.01325  1.0000
  H   H1424     1.0  0.51634  0.62105  0.48048  1.0000
  H   H1425     1.0  0.56814  0.60825  0.24393  1.0000
  H   H1426     1.0  0.61400  0.89683  0.35996  1.0000
  H   H1427     1.0  0.56708  0.54706  0.40594  1.0000
  C   C803      1.0  0.60694  0.86825  0.42196  1.0000
  C   C804      1.0  0.73687  0.61540  0.09126  1.0000
  C   C805      1.0  0.75520  0.58510  0.08428  1.0000
  H   H1428     1.0  0.73427  0.78101  0.06545  1.0000
  H   H1429     1.0  0.57681  0.87754  0.38482  1.0000
  H   H1430     1.0  0.67164  0.78697  0.34377  1.0000
  H   H1431     1.0  0.68534  0.91110  0.00086  1.0000
  H   H1432     1.0  0.59807  0.84700  0.35383  1.0000
  C   C806      1.0  0.55442  0.58793  0.25285  1.0000
  H   H1433     1.0  0.52194  0.59190  0.27201  1.0000
  H   H1434     1.0  0.61402  0.53322  0.17622  1.0000
  C   C807      1.0  0.71303  0.80187  0.35848  1.0000
  C   C808      1.0  0.71657  0.81596  0.23845  1.0000
  H   H1435     1.0  0.56714  0.60494  0.29411  1.0000
  H   H1436     1.0  0.52319  0.95258  0.27213  1.0000
  C   C809      1.0  0.64989  0.53865  0.12841  1.0000
  C   C810      1.0  0.68532  0.76840  0.44391  1.0000
  H   H1437     1.0  0.59890  0.52209  0.22498  1.0000
  H   H1438     1.0  0.55499  0.64092  0.38189  1.0000
  H   H1439     1.0  0.72591  0.60463  0.11042  1.0000
  C   C811      1.0  0.70879  0.88015  0.23763  1.0000
  H   H1440     1.0  0.57474  0.93020  0.28567  1.0000
  C   C812      1.0  0.51348  0.85747  0.32767  1.0000
  H   H1441     1.0  0.72606  0.86378  0.28550  1.0000
  H   H1442     1.0  0.66873  0.76555  0.42972  1.0000
  H   H1443     1.0  0.55867  0.59003  0.19804  1.0000
  S   S186      1.0  0.61965  0.53757  0.11692  1.0000
  S   S187      1.0  0.67114  0.83563  0.46903  1.0000
  H   H1444     1.0  0.64670  0.87113  0.41366  1.0000
  Fe  Fe96      1.0  0.74333  0.90077  0.02100  1.0000
  H   H1445     1.0  0.73165  0.82006  0.25499  1.0000
  H   H1446     1.0  0.66396  0.87731  0.98757  1.0000
  C   C813      1.0  0.56204  0.66006  0.31253  1.0000
  C   C814      1.0  0.56452  0.93136  0.24168  1.0000
  H   H1447     1.0  0.52942  0.55536  0.41403  1.0000
  C   C815      1.0  0.69461  0.78611  0.24097  1.0000
  H   H1448     1.0  0.70367  0.77293  0.23774  1.0000
  H   H1449     1.0  0.68869  0.75091  0.44156  1.0000
  C   C816      1.0  0.51500  0.90627  0.24576  1.0000
  H   H1450     1.0  0.70335  0.88704  0.28174  1.0000
  C   C817      1.0  0.52461  0.58146  0.25382  1.0000
  H   H1451     1.0  0.57389  0.68778  0.40065  1.0000
  H   H1452     1.0  0.67087  0.78403  0.47695  1.0000
  H   H1453     1.0  0.55702  0.97116  0.22004  1.0000
  H   H1454     1.0  0.53699  0.66969  0.21353  1.0000
  H   H1455     1.0  0.55124  0.56832  0.29287  1.0000
  C   C818      1.0  0.52954  0.63722  0.24290  1.0000
  H   H1456     1.0  0.60589  0.57689  0.20499  1.0000
  C   C819      1.0  0.56636  0.97690  0.27582  1.0000
  C   C820      1.0  0.52905  0.61746  0.22049  1.0000
  C   C821      1.0  0.56619  0.98779  0.30467  1.0000
  H   H1457     1.0  0.71846  0.82362  0.35829  1.0000
  C   C822      1.0  0.73084  0.86503  0.18755  1.0000
  C   C823      1.0  0.54995  0.57169  0.41970  1.0000
  C   C824      1.0  0.59611  0.91576  0.26080  1.0000
  H   H1458     1.0  0.66431  0.89332  0.27563  1.0000
  N   N44       1.0  0.63942  0.52706  0.22553  1.0000
  H   H1459     1.0  0.54235  0.61766  0.32510  1.0000
  H   H1460     1.0  0.56604  0.97376  0.32094  1.0000
  H   H1461     1.0  0.65920  0.88482  0.34352  1.0000
  H   H1462     1.0  0.58533  0.58921  0.28029  1.0000
  H   H1463     1.0  0.58277  0.95137  0.23717  1.0000
  N   N45       1.0  0.72509  0.79818  0.41029  1.0000
  H   H1464     1.0  0.75752  0.86426  0.21961  1.0000
  S   S188      1.0  0.74619  0.87838  0.98392  1.0000
  H   H1465     1.0  0.55347  0.56867  0.44171  1.0000
  C   C825      1.0  0.54469  0.63700  0.42650  1.0000
  S   S189      1.0  0.53606  0.91178  0.34357  1.0000
  H   H1466     1.0  0.54004  0.75669  0.37710  1.0000
  H   H1467     1.0  0.72570  0.79912  0.45525  1.0000
  H   H1468     1.0  0.55958  0.60584  0.46541  1.0000
  H   H1469     1.0  0.51638  0.93352  0.01259  1.0000
  H   H1470     1.0  0.53045  0.94492  0.14848  1.0000
  H   H1471     1.0  0.56852  0.80443  0.36312  1.0000
  C   C826      1.0  0.73672  0.77937  0.41111  1.0000
  H   H1472     1.0  0.59277  0.90254  0.24258  1.0000
  H   H1473     1.0  0.61398  0.93615  0.25697  1.0000
  N   N46       1.0  0.72431  0.86511  0.24065  1.0000
  C   C827      1.0  0.54005  0.58286  0.18558  1.0000
  H   H1474     1.0  0.75146  0.66986  0.10193  1.0000
  C   C828      1.0  0.74174  0.59386  0.01719  1.0000
  H   H1475     1.0  0.55678  0.94019  0.18602  1.0000
  H   H1476     1.0  0.68231  0.58745  0.07894  1.0000
  H   H1477     1.0  0.64106  0.90009  0.38188  1.0000
  H   H1478     1.0  0.63522  0.88428  0.47212  1.0000
  H   H1479     1.0  0.72074  0.58860  0.01169  1.0000
  H   H1480     1.0  0.61253  0.88980  0.41810  1.0000
  H   H1481     1.0  0.64992  0.53198  0.26930  1.0000
  H   H1482     1.0  0.53797  0.93580  0.28955  1.0000
  C   C829      1.0  0.61016  0.85756  0.37251  1.0000
  H   H1483     1.0  0.53025  0.87200  0.39388  1.0000
  H   H1484     1.0  0.71988  0.87612  0.18252  1.0000
  C   C830      1.0  0.53865  0.60212  0.46162  1.0000
  C   C831      1.0  0.67767  0.51773  0.13683  1.0000
  H   H1485     1.0  0.74632  0.62755  0.04103  1.0000
  H   H1486     1.0  0.55847  0.84443  0.37111  1.0000
  H   H1487     1.0  0.52112  0.63430  0.38910  1.0000
  C   C832      1.0  0.51438  0.98713  0.46594  1.0000
  C   C833      1.0  0.54061  0.94885  0.27119  1.0000
  H   H1488     1.0  0.72510  0.62442  0.08219  1.0000
  H   H1489     1.0  0.54486  0.68033  0.24901  1.0000
  H   H1490     1.0  0.69175  0.76731  0.38640  1.0000
  C   C834      1.0  0.55487  0.77142  0.39209  1.0000
  H   H1491     1.0  0.58135  0.66135  0.30850  1.0000
  C   C835      1.0  0.53855  0.94799  0.01134  1.0000
  H   H1492     1.0  0.56726  0.67280  0.22963  1.0000
  H   H1493     1.0  0.60056  0.90654  0.27897  1.0000
  C   C836      1.0  0.55294  0.60012  0.41424  1.0000
  C   C837      1.0  0.53994  0.63518  0.32173  1.0000
  H   H1494     1.0  0.68907  0.82950  0.22412  1.0000
  C   C838      1.0  0.69105  0.87839  0.26277  1.0000
  H   H1495     1.0  0.68581  0.76567  0.33483  1.0000
  H   H1496     1.0  0.52487  0.58026  0.46697  1.0000
  H   H1497     1.0  0.54126  0.80002  0.38507  1.0000
  H   H1498     1.0  0.55378  0.89725  0.27045  1.0000
  H   H1499     1.0  0.52036  0.62104  0.20124  1.0000
  C   C839      1.0  0.70957  0.57211  0.06769  1.0000
  C   C840      1.0  0.75233  0.87217  0.16516  1.0000
  C   C841      1.0  0.62023  0.53797  0.22118  1.0000
  N   N47       1.0  0.53974  0.93431  0.24474  1.0000
  H   H1500     1.0  0.68869  0.79632  0.39383  1.0000
  H   H1501     1.0  0.71636  0.84297  0.18610  1.0000
  H   H1502     1.0  0.72032  0.75785  0.41267  1.0000
  H   H1503     1.0  0.56841  0.98132  0.03664  1.0000
  H   H1504     1.0  0.75592  0.83146  0.38557  1.0000
  S   S190      1.0  0.54387  0.51002  0.09981  1.0000
  H   H1505     1.0  0.75274  0.86237  0.26848  1.0000
  H   H1506     1.0  0.75992  0.62945  0.98990  1.0000
  H   H1507     1.0  0.58456  0.00799  0.30749  1.0000
  C   C842      1.0  0.74389  0.87292  0.21676  1.0000
  C   C843      1.0  0.65331  0.51590  0.12747  1.0000
  C   C844      1.0  0.64813  0.88813  0.45352  1.0000
  H   H1508     1.0  0.52045  0.55393  0.15184  1.0000
  C   C845      1.0  0.66174  0.55524  0.04977  1.0000
  H   H1509     1.0  0.60278  0.51849  0.27333  1.0000
  H   H1510     1.0  0.74694  0.57625  0.10512  1.0000
  C   C846      1.0  0.74687  0.82754  0.40655  1.0000
  H   H1511     1.0  0.74938  0.91506  0.27058  1.0000
  H   H1512     1.0  0.54885  0.60067  0.39176  1.0000
  H   H1513     1.0  0.53935  0.63553  0.26203  1.0000
  C   C847      1.0  0.75063  0.61061  0.04438  1.0000
  H   H1514     1.0  0.74213  0.57462  0.01888  1.0000
  C   C848      1.0  0.54619  0.96715  0.03609  1.0000
  Fe  Fe97      1.0  0.76061  0.85774  0.01412  1.0000
  H   H1515     1.0  0.73885  0.54600  0.06207  1.0000
  H   H1516     1.0  0.75440  0.79681  0.99472  1.0000
  H   H1517     1.0  0.75525  0.74389  0.39808  1.0000
  H   H1518     1.0  0.75579  0.90075  0.31751  1.0000
  H   H1519     1.0  0.54500  0.97523  0.16934  1.0000
  C   C849      1.0  0.75973  0.90295  0.27247  1.0000
  H   H1520     1.0  0.54614  0.76571  0.41325  1.0000
  H   H1521     1.0  0.53884  0.54476  0.17607  1.0000
  H   H1522     1.0  0.74243  0.86673  0.14449  1.0000
  H   H1523     1.0  0.75759  0.89533  0.21617  1.0000
  N   N48       1.0  0.53516  0.60724  0.43144  1.0000
  H   H1524     1.0  0.66549  0.54779  0.02996  1.0000
  H   H1525     1.0  0.55087  0.68103  0.37226  1.0000
  H   H1526     1.0  0.53565  0.97919  0.03491  1.0000
  H   H1527     1.0  0.52135  0.91643  0.19066  1.0000
  H   H1528     1.0  0.52569  0.98390  0.44988  1.0000
  H   H1529     1.0  0.54198  0.60040  0.17334  1.0000
  H   H1530     1.0  0.75352  0.75208  0.08021  1.0000
  C   C850      1.0  0.51544  0.83464  0.31945  1.0000
  C   C851      1.0  0.53892  0.56196  0.16496  1.0000
  H   H1531     1.0  0.65388  0.53855  0.06536  1.0000
  H   H1532     1.0  0.75114  0.75360  0.04315  1.0000
  H   H1533     1.0  0.53340  0.64408  0.43947  1.0000
  H   H1534     1.0  0.75997  0.68020  0.01894  1.0000
  C   C852      1.0  0.75648  0.78894  0.06477  1.0000
  C   C853      1.0  0.76091  0.66113  0.11566  1.0000
  S   S191      1.0  0.76097  0.88269  0.05075  1.0000
  C   C854      1.0  0.76014  0.61014  0.99305  1.0000
  C   C855      1.0  0.54527  0.96384  0.98351  1.0000
  H   H1535     1.0  0.65643  0.74769  0.47707  1.0000
  S   S192      1.0  0.75102  0.86961  0.48166  1.0000
  C   C856      1.0  0.76215  0.76538  0.06179  1.0000
  N   N49       1.0  0.51370  0.58756  0.22784  1.0000
  H   H1536     1.0  0.51315  0.83637  0.38463  1.0000
  C   C857      1.0  0.51401  0.57075  0.20369  1.0000
  Fe  Fe98      1.0  0.63497  0.82099  0.80883  1.0000
  S   S193      1.0  0.59339  0.79021  0.82356  1.0000
  S   S194      1.0  0.67087  0.84595  0.83734  1.0000
  Fe  Fe99      1.0  0.61953  0.81117  0.74679  1.0000
  S   S195      1.0  0.57651  0.77911  0.75768  1.0000
  S   S196      1.0  0.63027  0.82599  0.70131  1.0000
  Fe  Fe100     1.0  0.57850  0.80818  0.79080  1.0000
  S   S197      1.0  0.54139  0.81351  0.79652  1.0000
  Fe  Fe101     1.0  0.59447  0.76356  0.78970  1.0000
  S   S198      1.0  0.58637  0.72034  0.79930  1.0000
  S   S199      1.0  0.62015  0.84094  0.77825  1.0000
  S   S200      1.0  0.63746  0.79368  0.77668  1.0000
  H   H1537     1.0  0.62861  0.53198  0.69090  1.0000
  S   S201      1.0  0.71014  0.82020  0.52372  1.0000
  H   H1538     1.0  0.63698  0.97225  0.97904  1.0000
  S   S202      1.0  0.71821  0.88092  0.53265  1.0000
  Fe  Fe102     1.0  0.72337  0.85042  0.55834  1.0000
  S   S203      1.0  0.71278  0.83709  0.60406  1.0000
  H   H1539     1.0  0.63663  0.84473  0.64484  1.0000
  H   H1540     1.0  0.51897  0.62881  0.91304  1.0000
  C   C858      1.0  0.71679  0.57585  0.74510  1.0000
  H   H1541     1.0  0.53533  0.62593  0.71006  1.0000
  H   H1542     1.0  0.74312  0.69791  0.56703  1.0000
  H   H1543     1.0  0.74695  0.98127  0.54163  1.0000
  S   S204      1.0  0.73650  0.57349  0.63645  1.0000
  H   H1544     1.0  0.57473  0.60329  0.92717  1.0000
  N   N50       1.0  0.56002  0.51620  0.90098  1.0000
  C   C859      1.0  0.56863  0.00756  0.90376  1.0000
  C   C860      1.0  0.70189  0.54856  0.64153  1.0000
  C   C861      1.0  0.69374  0.52745  0.66086  1.0000
  C   C862      1.0  0.55037  0.97277  0.80780  1.0000
  H   H1545     1.0  0.74774  0.63119  0.65571  1.0000
  S   S205      1.0  0.56466  0.50959  0.61576  1.0000
  H   H1546     1.0  0.56630  0.52944  0.85813  1.0000
  H   H1547     1.0  0.61866  0.53758  0.83747  1.0000
  C   C863      1.0  0.75693  0.81254  0.91292  1.0000
  C   C864      1.0  0.55646  0.68881  0.80605  1.0000
  C   C865      1.0  0.55898  0.66640  0.81464  1.0000
  C   C866      1.0  0.53591  0.64097  0.82041  1.0000
  H   H1548     1.0  0.71311  0.74919  0.88772  1.0000
  H   H1549     1.0  0.74606  0.63829  0.74263  1.0000
  H   H1550     1.0  0.53018  0.71431  0.93029  1.0000
  H   H1551     1.0  0.57897  0.66873  0.81681  1.0000
  H   H1552     1.0  0.70975  0.77369  0.84797  1.0000
  H   H1553     1.0  0.52983  0.97018  0.98084  1.0000
  H   H1554     1.0  0.69767  0.53349  0.73009  1.0000
  C   C867      1.0  0.53889  0.84005  0.81331  1.0000
  C   C868      1.0  0.56112  0.86192  0.82603  1.0000
  C   C869      1.0  0.55808  0.88252  0.83898  1.0000
  H   H1555     1.0  0.75041  0.67273  0.49599  1.0000
  H   H1556     1.0  0.56771  0.99608  0.88482  1.0000
  H   H1557     1.0  0.76031  0.95251  0.48407  1.0000
  H   H1558     1.0  0.58062  0.86294  0.82589  1.0000
  H   H1559     1.0  0.57541  0.89931  0.84877  1.0000
  N   N51       1.0  0.53418  0.91765  0.75088  1.0000
  C   C870      1.0  0.67008  0.83931  0.87329  1.0000
  C   C871      1.0  0.64631  0.82010  0.88655  1.0000
  C   C872      1.0  0.64657  0.81491  0.91506  1.0000
  C   C873      1.0  0.67045  0.82907  0.93064  1.0000
  C   C874      1.0  0.69422  0.84840  0.91746  1.0000
  C   C875      1.0  0.69406  0.85326  0.88883  1.0000
  H   H1560     1.0  0.62777  0.80916  0.87483  1.0000
  H   H1561     1.0  0.62812  0.79993  0.92514  1.0000
  H   H1562     1.0  0.71273  0.85930  0.92925  1.0000
  H   H1563     1.0  0.71264  0.86776  0.87863  1.0000
  C   C876      1.0  0.65355  0.82889  0.67467  1.0000
  C   C877      1.0  0.67345  0.82156  0.67878  1.0000
  C   C878      1.0  0.69125  0.82424  0.65698  1.0000
  C   C879      1.0  0.68949  0.83419  0.63066  1.0000
  C   C880      1.0  0.66968  0.84165  0.62657  1.0000
  C   C881      1.0  0.65194  0.83905  0.64840  1.0000
  H   H1564     1.0  0.67505  0.81370  0.69874  1.0000
  H   H1565     1.0  0.70637  0.81830  0.66051  1.0000
  H   H1566     1.0  0.66781  0.84917  0.60653  1.0000
  H   H1567     1.0  0.61285  0.93666  0.97455  1.0000
  H   H1568     1.0  0.57378  0.92190  0.79059  1.0000
  H   H1569     1.0  0.52551  0.56374  0.78619  1.0000
  C   C882      1.0  0.70186  0.60921  0.74559  1.0000
  S   S206      1.0  0.53037  0.90832  0.85560  1.0000
  C   C883      1.0  0.57144  0.73096  0.89619  1.0000
  H   H1570     1.0  0.73228  0.81642  0.87213  1.0000
  C   C884      1.0  0.53049  0.68543  0.80318  1.0000
  H   H1571     1.0  0.69340  0.94197  0.94743  1.0000
  C   C885      1.0  0.59026  0.72688  0.87596  1.0000
  H   H1572     1.0  0.71168  0.64990  0.78379  1.0000
  C   C886      1.0  0.71814  0.55158  0.73220  1.0000
  H   H1573     1.0  0.59569  0.54585  0.87891  1.0000
  C   C887      1.0  0.61847  0.73759  0.88834  1.0000
  H   H1574     1.0  0.72317  0.51223  0.57384  1.0000
  H   H1575     1.0  0.65860  0.90461  0.97630  1.0000
  C   C888      1.0  0.70898  0.93571  0.95029  1.0000
  H   H1576     1.0  0.62329  0.95966  0.94513  1.0000
  H   H1577     1.0  0.58087  0.75333  0.89884  1.0000
  C   C889      1.0  0.53327  0.75189  0.91657  1.0000
  H   H1578     1.0  0.68266  0.90596  0.59420  1.0000
  H   H1579     1.0  0.51305  0.00226  0.93624  1.0000
  H   H1580     1.0  0.72383  0.66618  0.75033  1.0000
  N   N52       1.0  0.54579  0.94849  0.95827  1.0000
  H   H1581     1.0  0.56664  0.69352  0.74308  1.0000
  H   H1582     1.0  0.59281  0.73831  0.85645  1.0000
  H   H1583     1.0  0.58229  0.70517  0.87089  1.0000
  C   C890      1.0  0.72934  0.63130  0.75792  1.0000
  C   C891      1.0  0.54996  0.53574  0.90696  1.0000
  H   H1584     1.0  0.70658  0.91911  0.56600  1.0000
  C   C892      1.0  0.68211  0.54948  0.62473  1.0000
  H   H1585     1.0  0.70872  0.94128  0.59394  1.0000
  H   H1586     1.0  0.55246  0.64091  0.48293  1.0000
  H   H1587     1.0  0.58406  0.56538  0.93281  1.0000
  C   C893      1.0  0.52970  0.68898  0.88099  1.0000
  H   H1588     1.0  0.62795  0.75964  0.89281  1.0000
  H   H1589     1.0  0.61739  0.72645  0.90773  1.0000
  H   H1590     1.0  0.63145  0.73461  0.87324  1.0000
  H   H1591     1.0  0.56597  0.99456  0.80973  1.0000
  C   C894      1.0  0.73352  0.72751  0.55116  1.0000
  H   H1592     1.0  0.74460  0.64877  0.58640  1.0000
  H   H1593     1.0  0.60927  0.91010  0.78241  1.0000
  C   C895      1.0  0.71971  0.60018  0.70161  1.0000
  C   C896      1.0  0.51935  0.92182  0.95752  1.0000
  H   H1594     1.0  0.71170  0.71475  0.55636  1.0000
  H   H1595     1.0  0.70863  0.89874  0.96536  1.0000
  H   H1596     1.0  0.63958  0.53035  0.61379  1.0000
  C   C897      1.0  0.57182  0.56513  0.91480  1.0000
  H   H1597     1.0  0.53821  0.62397  0.82700  1.0000
  H   H1598     1.0  0.66741  0.79102  0.85832  1.0000
  C   C898      1.0  0.53265  0.93106  0.77722  1.0000
  H   H1599     1.0  0.55792  0.57578  0.76975  1.0000
  C   C899      1.0  0.74978  0.93793  0.93149  1.0000
  C   C900      1.0  0.56214  0.92152  0.74664  1.0000
  H   H1600     1.0  0.54711  0.95346  0.91357  1.0000
  Fe  Fe103     1.0  0.70824  0.85167  0.49694  1.0000
  C   C901      1.0  0.51452  0.74424  0.82665  1.0000
  H   H1601     1.0  0.65551  0.59052  0.71306  1.0000
  H   H1602     1.0  0.71588  0.89123  0.60023  1.0000
  H   H1603     1.0  0.70946  0.79770  0.93982  1.0000
  H   H1604     1.0  0.61605  0.55534  0.68749  1.0000
  H   H1605     1.0  0.64899  0.73093  0.95619  1.0000
  H   H1606     1.0  0.55187  0.72963  0.84406  1.0000
  C   C902      1.0  0.72786  0.65602  0.76796  1.0000
  S   S207      1.0  0.76262  0.80553  0.49675  1.0000
  H   H1607     1.0  0.53188  0.62213  0.52835  1.0000
  C   C903      1.0  0.52753  0.93048  0.72688  1.0000
  H   H1608     1.0  0.66796  0.76601  0.96653  1.0000
  H   H1609     1.0  0.51510  0.92181  0.65554  1.0000
  H   H1610     1.0  0.68819  0.56563  0.60959  1.0000
  H   H1611     1.0  0.55215  0.96160  0.82591  1.0000
  C   C904      1.0  0.51432  0.88757  0.75295  1.0000
  N   N53       1.0  0.72704  0.94350  0.92502  1.0000
  H   H1612     1.0  0.72407  0.53513  0.77088  1.0000
  C   C905      1.0  0.71014  0.92622  0.90098  1.0000
  H   H1613     1.0  0.71597  0.98207  0.53617  1.0000
  C   C906      1.0  0.51368  0.83910  0.81372  1.0000
  C   C907      1.0  0.53141  0.58715  0.74824  1.0000
  H   H1614     1.0  0.60238  0.98460  0.96709  1.0000
  C   C908      1.0  0.53494  0.61984  0.48370  1.0000
  C   C909      1.0  0.71789  0.93882  0.87143  1.0000
  C   C910      1.0  0.70301  0.91751  0.84910  1.0000
  C   C911      1.0  0.62833  0.54951  0.70078  1.0000
  H   H1615     1.0  0.54435  0.91928  0.69156  1.0000
  H   H1616     1.0  0.55499  0.76502  0.92179  1.0000
  H   H1617     1.0  0.71972  0.97643  0.91496  1.0000
  C   C912      1.0  0.75799  0.83854  0.92454  1.0000
  H   H1618     1.0  0.70990  0.90650  0.90082  1.0000
  H   H1619     1.0  0.68850  0.92069  0.90348  1.0000
  C   C913      1.0  0.54211  0.58112  0.77485  1.0000
  H   H1620     1.0  0.54348  0.95215  0.72442  1.0000
  H   H1621     1.0  0.53897  0.53759  0.88877  1.0000
  C   C914      1.0  0.71833  0.62447  0.68809  1.0000
  H   H1622     1.0  0.75679  0.85326  0.64625  1.0000
  H   H1623     1.0  0.74755  0.67082  0.77746  1.0000
  H   H1624     1.0  0.73986  0.94824  0.86725  1.0000
  H   H1625     1.0  0.66542  0.57935  0.68229  1.0000
  N   N54       1.0  0.70341  0.58821  0.72779  1.0000
  H   H1626     1.0  0.57281  0.72314  0.91698  1.0000
  H   H1627     1.0  0.71211  0.95479  0.86900  1.0000
  C   C915      1.0  0.73817  0.99318  0.53239  1.0000
  H   H1628     1.0  0.70685  0.92746  0.82844  1.0000
  H   H1629     1.0  0.71052  0.90282  0.84867  1.0000
  H   H1630     1.0  0.68079  0.90631  0.85289  1.0000
  C   C916      1.0  0.57732  0.52578  0.87526  1.0000
  C   C917      1.0  0.68377  0.75592  0.93005  1.0000
  C   C918      1.0  0.72266  0.91286  0.60475  1.0000
  H   H1631     1.0  0.72748  0.51832  0.62397  1.0000
  H   H1632     1.0  0.68205  0.75902  0.87216  1.0000
  C   C919      1.0  0.65451  0.52950  0.62703  1.0000
  H   H1633     1.0  0.71973  0.91472  0.62718  1.0000
  H   H1634     1.0  0.75158  0.70469  0.48857  1.0000
  H   H1635     1.0  0.58558  0.57543  0.89706  1.0000
  H   H1636     1.0  0.55365  0.97402  0.76370  1.0000
  H   H1637     1.0  0.51940  0.65823  0.74932  1.0000
  H   H1638     1.0  0.68790  0.59912  0.76341  1.0000
  C   C920      1.0  0.55457  0.96139  0.78081  1.0000
  Fe  Fe104     1.0  0.75370  0.83927  0.51021  1.0000
  H   H1639     1.0  0.55737  0.52413  0.95972  1.0000
  H   H1640     1.0  0.68430  0.73779  0.92244  1.0000
  H   H1641     1.0  0.60251  0.90700  0.74577  1.0000
  H   H1642     1.0  0.74969  0.98003  0.90000  1.0000
  C   C921      1.0  0.55876  0.58210  0.92264  1.0000
  C   C922      1.0  0.73442  0.54288  0.75065  1.0000
  H   H1643     1.0  0.74169  0.91578  0.93475  1.0000
  H   H1644     1.0  0.72509  0.71393  0.89515  1.0000
  H   H1645     1.0  0.74367  0.74226  0.56822  1.0000
  C   C923      1.0  0.53289  0.88161  0.83927  1.0000
  H   H1646     1.0  0.59017  0.99251  0.92715  1.0000
  H   H1647     1.0  0.73819  0.59140  0.74972  1.0000
  H   H1648     1.0  0.71370  0.58400  0.68582  1.0000
  H   H1649     1.0  0.57308  0.00626  0.94762  1.0000
  H   H1650     1.0  0.53848  0.68580  0.86181  1.0000
  H   H1651     1.0  0.52136  0.74482  0.96012  1.0000
  H   H1652     1.0  0.69676  0.80939  0.83613  1.0000
  C   C924      1.0  0.53172  0.67115  0.90433  1.0000
  H   H1653     1.0  0.67574  0.54967  0.70860  1.0000
  C   C925      1.0  0.70412  0.92037  0.58867  1.0000
  C   C926      1.0  0.69400  0.90504  0.95835  1.0000
  C   C927      1.0  0.56897  0.94258  0.95856  1.0000
  C   C928      1.0  0.71250  0.78087  0.93225  1.0000
  S   S208      1.0  0.66976  0.82127  0.96620  1.0000
  C   C929      1.0  0.67507  0.56576  0.72103  1.0000
  H   H1654     1.0  0.56272  0.92265  0.96881  1.0000
  H   H1655     1.0  0.52520  0.56959  0.73426  1.0000
  H   H1656     1.0  0.70646  0.56896  0.76557  1.0000
  H   H1657     1.0  0.69267  0.61963  0.73424  1.0000
  H   H1658     1.0  0.55113  0.59918  0.78857  1.0000
  H   H1659     1.0  0.72360  0.77729  0.94927  1.0000
  H   H1660     1.0  0.56242  0.91014  0.72805  1.0000
  H   H1661     1.0  0.54847  0.60551  0.73881  1.0000
  H   H1662     1.0  0.67121  0.76065  0.91601  1.0000
  H   H1663     1.0  0.54194  0.64565  0.75872  1.0000
  H   H1664     1.0  0.72788  0.55724  0.71153  1.0000
  C   C930      1.0  0.66971  0.74867  0.95828  1.0000
  H   H1665     1.0  0.67128  0.77496  0.82817  1.0000
  C   C931      1.0  0.65711  0.57362  0.70361  1.0000
  H   H1666     1.0  0.58653  0.51560  0.82070  1.0000
  C   C932      1.0  0.60206  0.91764  0.76488  1.0000
  H   H1667     1.0  0.73487  0.69461  0.53101  1.0000
  H   H1668     1.0  0.59651  0.53426  0.92608  1.0000
  C   C933      1.0  0.52761  0.00108  0.49049  1.0000
  C   C934      1.0  0.74623  0.70947  0.54747  1.0000
  H   H1669     1.0  0.53234  0.90240  0.92596  1.0000
  H   H1670     1.0  0.54980  0.68421  0.71004  1.0000
  H   H1671     1.0  0.57701  0.94320  0.74203  1.0000
  H   H1672     1.0  0.57521  0.96399  0.78146  1.0000
  H   H1673     1.0  0.56061  0.88946  0.77388  1.0000
  H   H1674     1.0  0.55248  0.60788  0.51750  1.0000
  H   H1675     1.0  0.53325  0.91961  0.79575  1.0000
  H   H1676     1.0  0.61606  0.93984  0.76246  1.0000
  H   H1677     1.0  0.73527  0.73892  0.53174  1.0000
  H   H1678     1.0  0.68122  0.74340  0.97331  1.0000
  C   C935      1.0  0.57328  0.91174  0.77085  1.0000
  H   H1679     1.0  0.55312  0.67803  0.90972  1.0000
  C   C936      1.0  0.68244  0.78923  0.84529  1.0000
  H   H1680     1.0  0.51806  0.87909  0.77217  1.0000
  C   C937      1.0  0.73722  0.97323  0.91908  1.0000
  H   H1681     1.0  0.53011  0.97118  0.80803  1.0000
  C   C938      1.0  0.52657  0.72230  0.91059  1.0000
  H   H1682     1.0  0.66398  0.55576  0.74050  1.0000
  H   H1683     1.0  0.74163  0.99473  0.50964  1.0000
  H   H1684     1.0  0.61836  0.54312  0.72136  1.0000
  C   C939      1.0  0.51917  0.62841  0.72004  1.0000
  C   C940      1.0  0.72715  0.62851  0.65777  1.0000
  N   N55       1.0  0.54225  0.71889  0.88727  1.0000
  H   H1685     1.0  0.70479  0.80782  0.89477  1.0000
  H   H1686     1.0  0.73199  0.64354  0.69928  1.0000
  H   H1687     1.0  0.54597  0.57353  0.94144  1.0000
  H   H1688     1.0  0.69781  0.62198  0.68863  1.0000
  H   H1689     1.0  0.72086  0.94668  0.96895  1.0000
  H   H1690     1.0  0.74930  0.83464  0.94577  1.0000
  C   C941      1.0  0.61849  0.95754  0.96762  1.0000
  C   C942      1.0  0.54135  0.73343  0.86140  1.0000
  H   H1691     1.0  0.54596  0.58252  0.90545  1.0000
  C   C943      1.0  0.69748  0.77832  0.86253  1.0000
  C   C944      1.0  0.71637  0.79923  0.88450  1.0000
  H   H1692     1.0  0.55289  0.75583  0.86448  1.0000
  H   H1693     1.0  0.73485  0.62284  0.77603  1.0000
  C   C945      1.0  0.55709  0.67688  0.72766  1.0000
  H   H1694     1.0  0.52852  0.76094  0.89848  1.0000
  H   H1695     1.0  0.52818  0.70229  0.79615  1.0000
  H   H1696     1.0  0.75304  0.59808  0.97370  1.0000
  H   H1697     1.0  0.72746  0.64690  0.64929  1.0000
  H   H1698     1.0  0.70871  0.52617  0.67358  1.0000
  H   H1699     1.0  0.53466  0.52766  0.92373  1.0000
  C   C946      1.0  0.73273  0.76664  0.89425  1.0000
  H   H1700     1.0  0.57426  0.94009  0.93695  1.0000
  H   H1701     1.0  0.75543  0.72189  0.91405  1.0000
  C   C947      1.0  0.52475  0.91723  0.69814  1.0000
  C   C948      1.0  0.51340  0.00547  0.51194  1.0000
  H   H1702     1.0  0.52791  0.96572  0.93120  1.0000
  N   N56       1.0  0.72908  0.78929  0.90598  1.0000
  C   C949      1.0  0.54675  0.96430  0.93258  1.0000
  C   C950      1.0  0.51669  0.75274  0.94103  1.0000
  C   C951      1.0  0.51436  0.90426  0.93125  1.0000
  H   H1703     1.0  0.74164  0.60759  0.70531  1.0000
  C   C952      1.0  0.51634  0.93108  0.67609  1.0000
  H   H1704     1.0  0.71275  0.61071  0.64528  1.0000
  H   H1705     1.0  0.57278  0.67221  0.72021  1.0000
  H   H1706     1.0  0.73633  0.52643  0.74036  1.0000
  H   H1707     1.0  0.68217  0.89184  0.94084  1.0000
  C   C953      1.0  0.74582  0.75445  0.91355  1.0000
  H   H1708     1.0  0.74536  0.77391  0.87511  1.0000
  C   C954      1.0  0.59549  0.96339  0.97344  1.0000
  H   H1709     1.0  0.51747  0.87636  0.73581  1.0000
  H   H1710     1.0  0.73432  0.74700  0.93317  1.0000
  H   H1711     1.0  0.75512  0.56022  0.75450  1.0000
  H   H1712     1.0  0.52759  0.74410  0.80965  1.0000
  C   C955      1.0  0.75275  0.93088  0.59600  1.0000
  H   H1713     1.0  0.69080  0.76900  0.48866  1.0000
  H   H1714     1.0  0.74610  0.88952  0.62963  1.0000
  H   H1715     1.0  0.75789  0.67126  0.54010  1.0000
  H   H1716     1.0  0.75620  0.75654  0.97734  1.0000
  H   H1717     1.0  0.74288  0.99052  0.96103  1.0000
  H   H1718     1.0  0.51791  0.90883  0.97551  1.0000
  C   C956      1.0  0.57127  0.99339  0.92964  1.0000
  C   C957      1.0  0.53375  0.60871  0.51290  1.0000
  C   C958      1.0  0.60137  0.51645  0.83627  1.0000
  H   H1719     1.0  0.53135  0.95316  0.67470  1.0000
  H   H1720     1.0  0.74664  0.84550  0.91132  1.0000
  C   C959      1.0  0.57675  0.51502  0.92470  1.0000
  H   H1721     1.0  0.52179  0.77407  0.94480  1.0000
  H   H1722     1.0  0.75951  0.94733  0.95157  1.0000
  H   H1723     1.0  0.75659  0.92743  0.65624  1.0000
  C   C960      1.0  0.51875  0.64142  0.89547  1.0000
  H   H1724     1.0  0.52100  0.67179  0.92323  1.0000
  H   H1725     1.0  0.53025  0.63930  0.87807  1.0000
  C   C961      1.0  0.75479  0.99357  0.94186  1.0000
  Fe  Fe105     1.0  0.76151  0.89698  0.51905  1.0000
  H   H1726     1.0  0.52302  0.76539  0.83425  1.0000
  H   H1727     1.0  0.52049  0.58069  0.69203  1.0000
  C   C962      1.0  0.53356  0.65183  0.74119  1.0000
  H   H1728     1.0  0.51283  0.93034  0.77850  1.0000
  H   H1729     1.0  0.60033  0.52843  0.97772  1.0000
  C   C963      1.0  0.74604  0.73031  0.89983  1.0000
  H   H1730     1.0  0.75636  0.95194  0.59346  1.0000
  H   H1731     1.0  0.75813  0.73683  0.88041  1.0000
  H   H1732     1.0  0.75485  0.92430  0.57483  1.0000
  H   H1733     1.0  0.51591  0.58796  0.51507  1.0000
  C   C964      1.0  0.76262  0.69324  0.48672  1.0000
  H   H1734     1.0  0.54905  0.00843  0.49293  1.0000
  C   C965      1.0  0.67427  0.89930  0.98224  1.0000
  H   H1735     1.0  0.98994  0.40549  0.17876  1.0000
  H   H1736     1.0  0.91374  0.13129  0.07963  1.0000
  S   S209      1.0  0.83202  0.16925  0.00513  1.0000
  Fe  Fe106     1.0  0.86554  0.14318  0.41463  1.0000
  S   S210      1.0  0.87927  0.11346  0.42721  1.0000
  S   S211      1.0  0.86755  0.15137  0.36731  1.0000
  Fe  Fe107     1.0  0.84483  0.09513  0.45777  1.0000
  H   H1737     1.0  0.99937  0.16376  0.00352  1.0000
  Fe  Fe108     1.0  0.90367  0.14341  0.46079  1.0000
  S   S212      1.0  0.88445  0.49432  0.12517  1.0000
  S   S213      1.0  0.82934  0.12279  0.44298  1.0000
  S   S214      1.0  0.89166  0.17389  0.44686  1.0000
  Fe  Fe109     1.0  0.82128  0.24835  0.18296  1.0000
  S   S215      1.0  0.85133  0.23501  0.19467  1.0000
  S   S216      1.0  0.83104  0.29294  0.18026  1.0000
  C   C966      1.0  0.82478  0.36700  0.12077  1.0000
  H   H1738     1.0  0.77395  0.14602  0.34619  1.0000
  Fe  Fe110     1.0  0.82132  0.20836  0.22748  1.0000
  S   S217      1.0  0.82784  0.20632  0.27472  1.0000
  Fe  Fe111     1.0  0.82713  0.20043  0.16485  1.0000
  S   S218      1.0  0.84509  0.18135  0.13646  1.0000
  S   S219      1.0  0.79243  0.22364  0.21740  1.0000
  S   S220      1.0  0.79863  0.21504  0.15134  1.0000
  Fe  Fe112     1.0  0.92253  0.49011  0.12204  1.0000
  Fe  Fe113     1.0  0.93664  0.44442  0.11753  1.0000
  S   S221      1.0  0.98047  0.47427  0.10748  1.0000
  S   S222      1.0  0.92408  0.39903  0.11899  1.0000
  Fe  Fe114     1.0  0.97732  0.49916  0.14195  1.0000
  H   H1739     1.0  0.79647  0.14800  0.26346  1.0000
  Fe  Fe115     1.0  0.96573  0.49559  0.07888  1.0000
  H   H1740     1.0  0.77557  0.11900  0.38493  1.0000
  S   S223      1.0  0.93454  0.46825  0.15353  1.0000
  S   S224      1.0  0.92190  0.46407  0.08638  1.0000
  H   H1741     1.0  0.85934  0.43495  0.20102  1.0000
  C   C967      1.0  0.94355  0.24401  0.44735  1.0000
  H   H1742     1.0  0.99695  0.25089  0.37573  1.0000
  H   H1743     1.0  0.94873  0.22246  0.99378  1.0000
  C   C968      1.0  0.87747  0.40052  0.04743  1.0000
  C   C969      1.0  0.93326  0.37153  0.20827  1.0000
  H   H1744     1.0  0.89806  0.20251  0.00530  1.0000
  H   H1745     1.0  0.78349  0.14135  0.07037  1.0000
  C   C970      1.0  0.99692  0.42737  0.18180  1.0000
  H   H1746     1.0  0.95773  0.42389  0.18642  1.0000
  C   C971      1.0  0.91314  0.22453  0.00549  1.0000
  C   C972      1.0  0.85810  0.32221  0.16405  1.0000
  C   C973      1.0  0.86339  0.34825  0.17216  1.0000
  C   C974      1.0  0.88386  0.37199  0.15914  1.0000
  C   C975      1.0  0.89887  0.36999  0.13725  1.0000
  C   C976      1.0  0.89385  0.34400  0.12944  1.0000
  C   C977      1.0  0.87370  0.32028  0.14276  1.0000
  H   H1747     1.0  0.85161  0.35003  0.18873  1.0000
  H   H1748     1.0  0.88795  0.39176  0.16598  1.0000
  H   H1749     1.0  0.90549  0.34216  0.11275  1.0000
  H   H1750     1.0  0.86994  0.30048  0.13624  1.0000
  H   H1751     1.0  0.93612  0.22945  0.46502  1.0000
  H   H1752     1.0  0.90720  0.33033  0.19381  1.0000
  C   C978      1.0  0.97626  0.43129  0.19928  1.0000
  H   H1753     1.0  0.82434  0.43686  0.08691  1.0000
  H   H1754     1.0  0.83993  0.50478  0.12363  1.0000
  H   H1755     1.0  0.92258  0.33226  0.22694  1.0000
  H   H1756     1.0  0.89419  0.39599  0.04448  1.0000
  C   C979      1.0  0.85646  0.16704  0.34200  1.0000
  C   C980      1.0  0.86004  0.16387  0.31361  1.0000
  C   C981      1.0  0.85159  0.17571  0.29275  1.0000
  C   C982      1.0  0.83954  0.19117  0.29995  1.0000
  C   C983      1.0  0.83597  0.19435  0.32833  1.0000
  C   C984      1.0  0.84425  0.18236  0.34917  1.0000
  H   H1757     1.0  0.86943  0.15210  0.30768  1.0000
  H   H1758     1.0  0.85454  0.17297  0.27113  1.0000
  H   H1759     1.0  0.82668  0.20621  0.33428  1.0000
  H   H1760     1.0  0.84130  0.18509  0.37079  1.0000
  C   C985      1.0  0.83695  0.17307  0.04148  1.0000
  C   C986      1.0  0.84527  0.15760  0.05696  1.0000
  C   C987      1.0  0.84759  0.16033  0.08602  1.0000
  C   C988      1.0  0.84171  0.17854  0.09988  1.0000
  C   C989      1.0  0.83399  0.19443  0.08432  1.0000
  C   C990      1.0  0.83142  0.19154  0.05531  1.0000
  H   H1761     1.0  0.84940  0.14319  0.04660  1.0000
  H   H1762     1.0  0.85381  0.14812  0.09787  1.0000
  H   H1763     1.0  0.83016  0.20907  0.09462  1.0000
  H   H1764     1.0  0.82509  0.20368  0.04350  1.0000
  C   C991      1.0  0.85448  0.41507  0.13159  1.0000
  H   H1765     1.0  0.01035  0.42457  0.23492  1.0000
  S   S225      1.0  0.94710  0.15146  0.46655  1.0000
  H   H1766     1.0  0.95350  0.37876  0.24730  1.0000
  H   H1767     1.0  0.91804  0.41072  0.21087  1.0000
  C   C992      1.0  0.79437  0.11291  0.14806  1.0000
  C   C993      1.0  0.86735  0.39403  0.07732  1.0000
  S   S226      1.0  0.00458  0.49420  0.30120  1.0000
  H   H1768     1.0  0.93903  0.47951  0.99352  1.0000
  C   C994      1.0  0.95842  0.23806  0.33364  1.0000
  H   H1769     1.0  0.86088  0.38795  0.03276  1.0000
  C   C995      1.0  0.99399  0.42340  0.27516  1.0000
  C   C996      1.0  0.86728  0.43547  0.17990  1.0000
  N   N57       1.0  0.96989  0.41822  0.22768  1.0000
  C   C997      1.0  0.84480  0.41405  0.16191  1.0000
  S   S227      1.0  0.79959  0.17301  0.19855  1.0000
  H   H1770     1.0  0.81988  0.31613  0.11089  1.0000
  H   H1771     1.0  0.80373  0.09544  0.22346  1.0000
  C   C998      1.0  0.76566  0.10544  0.13941  1.0000
  H   H1772     1.0  0.88542  0.42239  0.04266  1.0000
  H   H1773     1.0  0.00798  0.46238  0.15503  1.0000
  H   H1774     1.0  0.97483  0.38351  0.21890  1.0000
  C   C999      1.0  0.98575  0.50290  0.22190  1.0000
  H   H1775     1.0  0.80341  0.12696  0.36195  1.0000
  H   H1776     1.0  0.96165  0.22436  0.31977  1.0000
  H   H1777     1.0  0.88431  0.43130  0.18157  1.0000
  H   H1778     1.0  0.97574  0.25911  0.33163  1.0000
  C   C1000     1.0  0.77688  0.12849  0.26228  1.0000
  H   H1779     1.0  0.98350  0.24948  0.44917  1.0000
  H   H1780     1.0  0.85420  0.42352  0.07802  1.0000
  H   H1781     1.0  0.83856  0.39400  0.17158  1.0000
  H   H1782     1.0  0.91564  0.37160  0.21794  1.0000
  H   H1783     1.0  0.92674  0.23857  0.43240  1.0000
  S   S228      1.0  0.87697  0.13434  0.98869  1.0000
  H   H1784     1.0  0.90708  0.23496  0.02085  1.0000
  N   N58       1.0  0.97936  0.21452  0.40150  1.0000
  C   C1001     1.0  0.95927  0.21531  0.42131  1.0000
  C   C1002     1.0  0.97176  0.18529  0.39656  1.0000
  H   H1785     1.0  0.98889  0.22077  0.35774  1.0000
  C   C1003     1.0  0.98140  0.22893  0.37437  1.0000
  C   C1004     1.0  0.95522  0.22821  0.36365  1.0000
  C   C1005     1.0  0.96743  0.24375  0.43324  1.0000
  H   H1786     1.0  0.91894  0.44660  0.25904  1.0000
  C   C1006     1.0  0.94326  0.16625  0.38444  1.0000
  C   C1007     1.0  0.93747  0.13690  0.38347  1.0000
  H   H1787     1.0  0.78579  0.30006  0.09753  1.0000
  H   H1788     1.0  0.79273  0.45114  0.10411  1.0000
  H   H1789     1.0  0.96240  0.45398  0.47505  1.0000
  H   H1790     1.0  0.95586  0.20161  0.43928  1.0000
  H   H1791     1.0  0.93900  0.20701  0.41170  1.0000
  H   H1792     1.0  0.97364  0.17600  0.41624  1.0000
  C   C1008     1.0  0.99741  0.25324  0.03415  1.0000
  C   C1009     1.0  0.95036  0.42441  0.24293  1.0000
  H   H1793     1.0  0.98549  0.40124  0.27825  1.0000
  H   H1794     1.0  0.79682  0.04289  0.99967  1.0000
  C   C1010     1.0  0.77663  0.12166  0.31225  1.0000
  H   H1795     1.0  0.95070  0.24173  0.37634  1.0000
  H   H1796     1.0  0.93717  0.20767  0.36462  1.0000
  H   H1797     1.0  0.77202  0.10036  0.47455  1.0000
  H   H1798     1.0  0.97536  0.25954  0.41675  1.0000
  H   H1799     1.0  0.81743  0.13148  0.22792  1.0000
  H   H1800     1.0  0.87477  0.45615  0.17115  1.0000
  H   H1801     1.0  0.92700  0.16632  0.39697  1.0000
  H   H1802     1.0  0.94209  0.17223  0.36280  1.0000
  H   H1803     1.0  0.93777  0.12935  0.40469  1.0000
  H   H1804     1.0  0.91706  0.12372  0.37442  1.0000
  H   H1805     1.0  0.95269  0.13531  0.37044  1.0000
  H   H1806     1.0  0.96797  0.49994  0.21075  1.0000
  H   H1807     1.0  0.77428  0.41714  0.09044  1.0000
  H   H1808     1.0  0.98119  0.43033  0.14161  1.0000
  H   H1809     1.0  0.98609  0.18409  0.38179  1.0000
  H   H1810     1.0  0.86364  0.43636  0.12388  1.0000
  H   H1811     1.0  0.79697  0.39126  0.13141  1.0000
  H   H1812     1.0  0.79850  0.13716  0.31051  1.0000
  C   C1011     1.0  0.90856  0.42953  0.24420  1.0000
  H   H1813     1.0  0.76647  0.13078  0.24391  1.0000
  C   C1012     1.0  0.78376  0.10591  0.25547  1.0000
  H   H1814     1.0  0.81470  0.36249  0.14136  1.0000
  H   H1815     1.0  0.93934  0.40882  0.25929  1.0000
  H   H1816     1.0  0.96162  0.44396  0.25429  1.0000
  H   H1817     1.0  0.78857  0.11427  0.03347  1.0000
  Fe  Fe116     1.0  0.77218  0.18951  0.18676  1.0000
  H   H1818     1.0  0.82879  0.39098  0.06707  1.0000
  H   H1819     1.0  0.95012  0.26466  0.45547  1.0000
  C   C1013     1.0  0.00068  0.48538  0.45859  1.0000
  H   H1820     1.0  0.86007  0.37213  0.08086  1.0000
  H   H1821     1.0  0.77692  0.21400  0.07544  1.0000
  H   H1822     1.0  0.76515  0.08574  0.25411  1.0000
  N   N59       1.0  0.94602  0.21791  0.03820  1.0000
  C   C1014     1.0  0.92735  0.18750  0.03789  1.0000
  C   C1015     1.0  0.94212  0.22992  0.01176  1.0000
  C   C1016     1.0  0.97485  0.22318  0.03824  1.0000
  C   C1017     1.0  0.94213  0.23146  0.06333  1.0000
  C   C1018     1.0  0.91319  0.21859  0.07587  1.0000
  C   C1019     1.0  0.93273  0.17140  0.06073  1.0000
  H   H1823     1.0  0.99512  0.47453  0.01539  1.0000
  H   H1824     1.0  0.98431  0.45359  0.20125  1.0000
  C   C1020     1.0  0.95891  0.38794  0.22623  1.0000
  C   C1021     1.0  0.91161  0.23759  0.09723  1.0000
  C   C1022     1.0  0.90895  0.14244  0.06366  1.0000
  H   H1825     1.0  0.79422  0.38653  0.09522  1.0000
  H   H1826     1.0  0.92893  0.17908  0.01757  1.0000
  H   H1827     1.0  0.90580  0.18216  0.03942  1.0000
  H   H1828     1.0  0.95528  0.25241  0.01157  1.0000
  H   H1829     1.0  0.89447  0.43326  0.23151  1.0000
  H   H1830     1.0  0.97763  0.21113  0.02173  1.0000
  H   H1831     1.0  0.97936  0.21612  0.05807  1.0000
  H   H1832     1.0  0.95535  0.23210  0.08073  1.0000
  H   H1833     1.0  0.94901  0.25319  0.05862  1.0000
  H   H1834     1.0  0.90786  0.19921  0.08661  1.0000
  H   H1835     1.0  0.89742  0.21399  0.06009  1.0000
  H   H1836     1.0  0.95091  0.16989  0.05525  1.0000
  H   H1837     1.0  0.93643  0.18158  0.08113  1.0000
  S   S229      1.0  0.81128  0.05027  0.46163  1.0000
  H   H1838     1.0  0.77984  0.11020  0.08314  1.0000
  H   H1839     1.0  0.94251  0.34018  0.19543  1.0000
  H   H1840     1.0  0.79741  0.10505  0.27143  1.0000
  H   H1841     1.0  0.77678  0.16560  0.30357  1.0000
  H   H1842     1.0  0.77398  0.09334  0.36189  1.0000
  H   H1843     1.0  0.93606  0.37967  0.18687  1.0000
  H   H1844     1.0  0.92641  0.24193  0.11421  1.0000
  H   H1845     1.0  0.91565  0.25696  0.08730  1.0000
  H   H1846     1.0  0.89105  0.22793  0.10646  1.0000
  H   H1847     1.0  0.89037  0.14267  0.07017  1.0000
  H   H1848     1.0  0.90505  0.13139  0.04372  1.0000
  C   C1023     1.0  0.80483  0.34397  0.10137  1.0000
  H   H1849     1.0  0.78484  0.34296  0.10123  1.0000
  C   C1024     1.0  0.84497  0.40145  0.08286  1.0000
  C   C1025     1.0  0.92609  0.34180  0.20608  1.0000
  H   H1850     1.0  0.88484  0.40584  0.09106  1.0000
  N   N60       1.0  0.83318  0.39562  0.11174  1.0000
  H   H1851     1.0  0.87181  0.41124  0.13255  1.0000
  H   H1852     1.0  0.82752  0.41787  0.16292  1.0000
  H   H1853     1.0  0.99570  0.47860  0.43739  1.0000
  Fe  Fe117     1.0  0.85636  0.15121  0.47618  1.0000
  H   H1854     1.0  0.82742  0.44253  0.12363  1.0000
  H   H1855     1.0  0.77750  0.42261  0.12759  1.0000
  H   H1856     1.0  0.00664  0.45330  0.24218  1.0000
  C   C1026     1.0  0.00675  0.22831  0.41560  1.0000
  C   C1027     1.0  0.00195  0.17915  0.47698  1.0000
  C   C1028     1.0  0.81426  0.42867  0.10713  1.0000
  C   C1029     1.0  0.80047  0.31641  0.11131  1.0000
  C   C1030     1.0  0.79842  0.11146  0.22767  1.0000
  H   H1857     1.0  0.81244  0.34700  0.07979  1.0000
  H   H1858     1.0  0.96557  0.49150  0.26158  1.0000
  H   H1859     1.0  0.00183  0.16194  0.46727  1.0000
  C   C1031     1.0  0.80858  0.39914  0.11177  1.0000
  H   H1860     1.0  0.98100  0.42968  0.28638  1.0000
  H   H1861     1.0  0.84290  0.36468  0.12390  1.0000
  H   H1862     1.0  0.93953  0.44679  0.21311  1.0000
  H   H1863     1.0  0.89655  0.41024  0.25590  1.0000
  C   C1032     1.0  0.92921  0.42769  0.22545  1.0000
  C   C1033     1.0  0.00064  0.44026  0.15318  1.0000
  C   C1034     1.0  0.99618  0.43068  0.24381  1.0000
  C   C1035     1.0  0.98448  0.49827  0.25070  1.0000
  C   C1036     1.0  0.98180  0.47141  0.48009  1.0000
  C   C1037     1.0  0.78100  0.11537  0.36392  1.0000
  C   C1038     1.0  0.00394  0.49167  0.00127  1.0000
  C   C1039     1.0  0.78798  0.42980  0.10733  1.0000
  C   C1040     1.0  0.76987  0.11912  0.07050  1.0000
  H   H1864     1.0  0.99362  0.26716  0.04699  1.0000
  C   C1041     1.0  0.97743  0.17938  0.47978  1.0000
  C   C1042     1.0  0.79792  0.02450  0.99751  1.0000
  H   H1865     1.0  0.93965  0.23792  0.32689  1.0000
  H   H1866     1.0  0.78515  0.11133  0.21069  1.0000
  H   H1867     1.0  0.99831  0.25918  0.01202  1.0000
  C   C1043     1.0  0.81953  0.02525  0.98291  1.0000
  C   C1044     1.0  0.80782  0.02022  0.47761  1.0000
  C   C1045     1.0  0.99918  0.17974  0.99134  1.0000
  C   C1046     1.0  0.00748  0.50228  0.26548  1.0000
  H   H1868     1.0  0.77582  0.10165  0.31137  1.0000
  H   H1869     1.0  0.00509  0.21993  0.43691  1.0000
  H   H1870     1.0  0.77277  0.17382  0.25552  1.0000
  C   C1047     1.0  0.76773  0.12446  0.34194  1.0000
  C   C1048     1.0  0.76804  0.10906  0.04084  1.0000
  H   H1871     1.0  0.80799  0.11944  0.12973  1.0000
  H   H1872     1.0  0.78201  0.17891  0.09975  1.0000
  H   H1873     1.0  0.79237  0.31202  0.13280  1.0000
  H   H1874     1.0  0.80249  0.12964  0.16339  1.0000
  H   H1875     1.0  0.78372  0.14423  0.11754  1.0000
  H   H1876     1.0  0.79428  0.09499  0.15756  1.0000
  H   H1877     1.0  0.76399  0.20135  0.28895  1.0000
  C   C1049     1.0  0.76427  0.13039  0.12800  1.0000
  H   H1878     1.0  0.76411  0.16615  0.06729  1.0000
  H   H1879     1.0  0.76404  0.14220  0.14632  1.0000
  H   H1880     1.0  0.78278  0.49346  0.69155  1.0000
  H   H1881     1.0  0.78948  0.02434  0.55191  1.0000
  S   S230      1.0  0.83883  0.17134  0.50346  1.0000
  Fe  Fe118     1.0  0.84715  0.13456  0.91432  1.0000
  S   S231      1.0  0.87739  0.12063  0.92259  1.0000
  S   S232      1.0  0.83096  0.12992  0.86933  1.0000
  Fe  Fe119     1.0  0.85217  0.09864  0.96023  1.0000
  S   S233      1.0  0.84523  0.05541  0.96652  1.0000
  Fe  Fe120     1.0  0.89971  0.15698  0.95041  1.0000
  S   S234      1.0  0.94408  0.19106  0.94686  1.0000
  S   S235      1.0  0.82061  0.11048  0.95055  1.0000
  S   S236      1.0  0.87093  0.17215  0.93981  1.0000
  Fe  Fe121     1.0  0.80328  0.22903  0.67416  1.0000
  S   S237      1.0  0.83629  0.22101  0.68843  1.0000
  S   S238      1.0  0.80863  0.26868  0.65540  1.0000
  H   H1882     1.0  0.89474  0.24120  0.87328  1.0000
  H   H1883     1.0  0.89270  0.50656  0.71343  1.0000
  Fe  Fe122     1.0  0.80805  0.19595  0.72324  1.0000
  S   S239      1.0  0.82169  0.20050  0.76917  1.0000
  Fe  Fe123     1.0  0.81460  0.18320  0.66237  1.0000
  S   S240      1.0  0.83798  0.16885  0.63556  1.0000
  H   H1884     1.0  0.86147  0.23053  0.49461  1.0000
  S   S241      1.0  0.78276  0.19209  0.64647  1.0000
  Fe  Fe124     1.0  0.91879  0.48098  0.61624  1.0000
  Fe  Fe125     1.0  0.92397  0.43064  0.63144  1.0000
  S   S242      1.0  0.96771  0.45138  0.61757  1.0000
  S   S243      1.0  0.91105  0.38935  0.65220  1.0000
  Fe  Fe126     1.0  0.97159  0.48774  0.64028  1.0000
  C   C1050     1.0  0.86265  0.25139  0.53261  1.0000
  Fe  Fe127     1.0  0.95469  0.46612  0.58022  1.0000
  S   S244      1.0  0.96241  0.46179  0.53393  1.0000
  S   S245      1.0  0.92886  0.46681  0.65603  1.0000
  S   S246      1.0  0.91047  0.44313  0.59273  1.0000
  C   C1051     1.0  0.98772  0.47978  0.50793  1.0000
  H   H1885     1.0  0.92064  0.50377  0.48928  1.0000
  H   H1886     1.0  0.90804  0.25417  0.63180  1.0000
  H   H1887     1.0  0.77409  0.13877  0.85456  1.0000
  H   H1888     1.0  0.98310  0.42820  0.88082  1.0000
  C   C1052     1.0  0.97471  0.17518  0.97905  1.0000
  C   C1053     1.0  0.78460  0.08294  0.50752  1.0000
  C   C1054     1.0  0.98774  0.49576  0.74744  1.0000
  C   C1055     1.0  0.98654  0.49601  0.71828  1.0000
  H   H1889     1.0  0.97013  0.48131  0.75908  1.0000
  H   H1890     1.0  0.96817  0.48178  0.70765  1.0000
  C   C1056     1.0  0.83733  0.30210  0.65491  1.0000
  C   C1057     1.0  0.83578  0.32273  0.64005  1.0000
  C   C1058     1.0  0.85801  0.34951  0.63894  1.0000
  C   C1059     1.0  0.88216  0.35601  0.65270  1.0000
  C   C1060     1.0  0.88375  0.33530  0.66736  1.0000
  C   C1061     1.0  0.86153  0.30855  0.66851  1.0000
  H   H1891     1.0  0.81718  0.31800  0.62946  1.0000
  H   H1892     1.0  0.85641  0.36515  0.62760  1.0000
  H   H1893     1.0  0.90230  0.34005  0.67810  1.0000
  H   H1894     1.0  0.86306  0.29298  0.68008  1.0000
  C   C1062     1.0  0.97419  0.19556  0.96310  1.0000
  H   H1895     1.0  0.80431  0.10751  0.59130  1.0000
  H   H1896     1.0  0.96102  0.47072  0.95469  1.0000
  H   H1897     1.0  0.84668  0.03924  0.49767  1.0000
  H   H1898     1.0  0.78889  0.24114  0.56206  1.0000
  H   H1899     1.0  0.86852  0.24551  0.58887  1.0000
  H   H1900     1.0  0.77015  0.23159  0.77260  1.0000
  C   C1063     1.0  0.82779  0.14984  0.84212  1.0000
  C   C1064     1.0  0.81746  0.13763  0.81620  1.0000
  C   C1065     1.0  0.81540  0.15262  0.79370  1.0000
  C   C1066     1.0  0.82343  0.18016  0.79681  1.0000
  C   C1067     1.0  0.83325  0.19222  0.82289  1.0000
  C   C1068     1.0  0.83537  0.17724  0.84536  1.0000
  H   H1901     1.0  0.81129  0.11642  0.81340  1.0000
  H   H1902     1.0  0.80787  0.14295  0.77389  1.0000
  H   H1903     1.0  0.83933  0.21342  0.82572  1.0000
  H   H1904     1.0  0.84282  0.18691  0.86517  1.0000
  C   C1069     1.0  0.83851  0.16996  0.54015  1.0000
  C   C1070     1.0  0.85395  0.16121  0.55496  1.0000
  C   C1071     1.0  0.85376  0.16122  0.58416  1.0000
  C   C1072     1.0  0.83789  0.16961  0.59884  1.0000
  C   C1073     1.0  0.82227  0.17812  0.58401  1.0000
  C   C1074     1.0  0.82270  0.17842  0.55482  1.0000
  H   H1905     1.0  0.86645  0.15495  0.54394  1.0000
  H   H1906     1.0  0.86604  0.15477  0.59547  1.0000
  H   H1907     1.0  0.80984  0.18443  0.59504  1.0000
  H   H1908     1.0  0.81066  0.18517  0.54352  1.0000
  H   H1909     1.0  0.77753  0.03715  0.94907  1.0000
  H   H1910     1.0  0.89576  0.36475  0.59528  1.0000
  H   H1911     1.0  0.77888  0.02766  0.91395  1.0000
  H   H1912     1.0  0.89091  0.25728  0.66170  1.0000
  H   H1913     1.0  0.76648  0.18686  0.76709  1.0000
  H   H1914     1.0  0.98466  0.47303  0.91838  1.0000
  H   H1915     1.0  0.90214  0.45368  0.52963  1.0000
  H   H1916     1.0  0.99695  0.24206  0.81428  1.0000
  H   H1917     1.0  0.92468  0.36916  0.57570  1.0000
  C   C1075     1.0  0.93361  0.50595  0.50744  1.0000
  S   S247      1.0  0.89760  0.50583  0.60768  1.0000
  H   H1918     1.0  0.79817  0.04995  0.59275  1.0000
  H   H1919     1.0  0.94043  0.49080  0.50443  1.0000
  C   C1076     1.0  0.99004  0.46941  0.87502  1.0000
  H   H1920     1.0  0.90852  0.49693  0.68714  1.0000
  C   C1077     1.0  0.88949  0.31342  0.58209  1.0000
  H   H1921     1.0  0.81905  0.10931  0.63961  1.0000
  C   C1078     1.0  0.77226  0.10004  0.49756  1.0000
  H   H1922     1.0  0.92771  0.48927  0.91970  1.0000
  H   H1923     1.0  0.99820  0.23653  0.94758  1.0000
  C   C1079     1.0  0.88612  0.33402  0.56355  1.0000
  H   H1924     1.0  0.88534  0.31720  0.60371  1.0000
  S   S248      1.0  0.96217  0.50418  0.60189  1.0000
  H   H1925     1.0  0.78904  0.25109  0.59770  1.0000
  C   C1080     1.0  0.88302  0.27270  0.62369  1.0000
  C   C1081     1.0  0.81060  0.09274  0.59806  1.0000
  C   C1082     1.0  0.88886  0.25263  0.63921  1.0000
  H   H1926     1.0  0.82813  0.07563  0.52131  1.0000
  H   H1927     1.0  0.90161  0.47941  0.74830  1.0000
  C   C1083     1.0  0.78611  0.08279  0.53961  1.0000
  H   H1928     1.0  0.90258  0.46871  0.87901  1.0000
  H   H1929     1.0  0.92505  0.49881  0.55241  1.0000
  H   H1930     1.0  0.86456  0.32883  0.56268  1.0000
  H   H1931     1.0  0.87202  0.23148  0.63623  1.0000
  H   H1932     1.0  0.87882  0.46054  0.54833  1.0000
  H   H1933     1.0  0.86883  0.48627  0.66072  1.0000
  H   H1934     1.0  0.89881  0.29006  0.54052  1.0000
  H   H1935     1.0  0.90074  0.37741  0.56038  1.0000
  H   H1936     1.0  0.99649  0.22261  0.60729  1.0000
  H   H1937     1.0  0.86379  0.27058  0.63163  1.0000
  N   N61       1.0  0.95909  0.48587  0.89728  1.0000
  C   C1084     1.0  0.90236  0.47605  0.72575  1.0000
  C   C1085     1.0  0.84265  0.27543  0.58013  1.0000
  H   H1938     1.0  0.88227  0.45919  0.71918  1.0000
  H   H1939     1.0  0.90210  0.27247  0.58521  1.0000
  S   S249      1.0  0.87007  0.12284  0.49232  1.0000
  C   C1086     1.0  0.89258  0.46666  0.53012  1.0000
  C   C1087     1.0  0.97172  0.46793  0.89957  1.0000
  H   H1940     1.0  0.99266  0.25055  0.59418  1.0000
  C   C1088     1.0  0.00264  0.22354  0.50222  1.0000
  H   H1941     1.0  0.83442  0.28152  0.56224  1.0000
  C   C1089     1.0  0.90287  0.36302  0.57446  1.0000
  N   N62       1.0  0.87194  0.28366  0.57481  1.0000
  H   H1942     1.0  0.83751  0.10044  0.54749  1.0000
  C   C1090     1.0  0.78429  0.45516  0.60575  1.0000
  H   H1943     1.0  0.93847  0.14425  0.91493  1.0000
  H   H1944     1.0  0.84092  0.28678  0.59807  1.0000
  H   H1945     1.0  0.87412  0.07935  0.52676  1.0000
  H   H1946     1.0  0.89970  0.29344  0.62872  1.0000
  H   H1947     1.0  0.80035  0.45234  0.61579  1.0000
  C   C1091     1.0  0.79367  0.06513  0.58308  1.0000
  N   N63       1.0  0.92142  0.18653  0.85087  1.0000
  C   C1092     1.0  0.90349  0.16280  0.83245  1.0000
  C   C1093     1.0  0.93097  0.17701  0.87563  1.0000
  C   C1094     1.0  0.90432  0.19815  0.86149  1.0000
  C   C1095     1.0  0.94518  0.20877  0.83534  1.0000
  C   C1096     1.0  0.96372  0.20046  0.81992  1.0000
  C   C1097     1.0  0.89237  0.16957  0.80600  1.0000
  C   C1098     1.0  0.91772  0.22093  0.88358  1.0000
  C   C1099     1.0  0.93643  0.15302  0.87118  1.0000
  C   C1100     1.0  0.95109  0.14930  0.89595  1.0000
  C   C1101     1.0  0.87671  0.14436  0.78797  1.0000
  C   C1102     1.0  0.89889  0.23181  0.89153  1.0000
  H   H1948     1.0  0.88578  0.14731  0.84459  1.0000
  H   H1949     1.0  0.91407  0.15201  0.82527  1.0000
  H   H1950     1.0  0.94950  0.19432  0.88477  1.0000
  H   H1951     1.0  0.91556  0.16987  0.89249  1.0000
  H   H1952     1.0  0.88520  0.18163  0.87079  1.0000
  H   H1953     1.0  0.89803  0.20683  0.84420  1.0000
  H   H1954     1.0  0.93813  0.21891  0.82032  1.0000
  H   H1955     1.0  0.95878  0.22515  0.84976  1.0000
  H   H1956     1.0  0.95208  0.18266  0.80632  1.0000
  H   H1957     1.0  0.87828  0.17700  0.81138  1.0000
  H   H1958     1.0  0.90898  0.18524  0.79314  1.0000
  H   H1959     1.0  0.93671  0.23844  0.87573  1.0000
  H   H1960     1.0  0.92247  0.21324  0.90274  1.0000
  H   H1961     1.0  0.91684  0.13377  0.86869  1.0000
  H   H1962     1.0  0.94878  0.15577  0.85255  1.0000
  H   H1963     1.0  0.83258  0.10170  0.59395  1.0000
  H   H1964     1.0  0.88324  0.07182  0.56000  1.0000
  C   C1103     1.0  0.82779  0.02050  0.49480  1.0000
  H   H1965     1.0  0.86031  0.12755  0.80012  1.0000
  H   H1966     1.0  0.86737  0.14925  0.77023  1.0000
  H   H1967     1.0  0.89051  0.13749  0.77974  1.0000
  H   H1968     1.0  0.87938  0.21524  0.89973  1.0000
  H   H1969     1.0  0.90858  0.24748  0.90788  1.0000
  C   C1104     1.0  0.79331  0.23812  0.58380  1.0000
  H   H1970     1.0  0.91136  0.31935  0.58159  1.0000
  H   H1971     1.0  0.82575  0.23112  0.57310  1.0000
  H   H1972     1.0  0.89347  0.33434  0.54220  1.0000
  C   C1105     1.0  0.98420  0.22371  0.80164  1.0000
  H   H1973     1.0  0.97554  0.19585  0.83513  1.0000
  C   C1106     1.0  0.76544  0.02293  0.93227  1.0000
  H   H1974     1.0  0.77963  0.21652  0.58960  1.0000
  H   H1975     1.0  0.88195  0.10273  0.55525  1.0000
  H   H1976     1.0  0.97911  0.46443  0.85495  1.0000
  H   H1977     1.0  0.92000  0.48867  0.97039  1.0000
  H   H1978     1.0  0.84046  0.24321  0.53119  1.0000
  C   C1107     1.0  0.94467  0.48024  0.86963  1.0000
  H   H1979     1.0  0.95504  0.13232  0.89191  1.0000
  S   S250      1.0  0.78912  0.15771  0.69814  1.0000
  C   C1108     1.0  0.93916  0.47822  0.92091  1.0000
  H   H1980     1.0  0.98978  0.22438  0.57106  1.0000
  C   C1109     1.0  0.87223  0.08091  0.54948  1.0000
  H   H1981     1.0  0.95563  0.44624  0.90205  1.0000
  C   C1110     1.0  0.82280  0.24498  0.58670  1.0000
  H   H1982     1.0  0.86677  0.23739  0.54507  1.0000
  C   C1111     1.0  0.84247  0.06580  0.55825  1.0000
  H   H1983     1.0  0.83399  0.04419  0.55240  1.0000
  C   C1112     1.0  0.82647  0.07807  0.54396  1.0000
  N   N64       1.0  0.79707  0.06572  0.55206  1.0000
  H   H1984     1.0  0.79021  0.46119  0.58382  1.0000
  C   C1113     1.0  0.87661  0.28058  0.54454  1.0000
  C   C1114     1.0  0.88148  0.26772  0.59203  1.0000
  H   H1985     1.0  0.88035  0.46317  0.51104  1.0000
  H   H1986     1.0  0.93637  0.45852  0.86375  1.0000
  H   H1987     1.0  0.86924  0.29164  0.53126  1.0000
  H   H1988     1.0  0.91775  0.46982  0.72181  1.0000
  H   H1989     1.0  0.84200  0.06707  0.58112  1.0000
  H   H1990     1.0  0.82577  0.24021  0.60832  1.0000
  H   H1991     1.0  0.79899  0.10446  0.54574  1.0000
  Fe  Fe128     1.0  0.84700  0.14750  0.97669  1.0000
  H   H1992     1.0  0.76564  0.07660  0.54802  1.0000
  C   C1115     1.0  0.00032  0.44934  0.87926  1.0000
  H   H1993     1.0  0.00275  0.24066  0.51211  1.0000
  H   H1994     1.0  0.76972  0.10988  0.74050  1.0000
  H   H1995     1.0  0.99769  0.21749  0.79131  1.0000
  H   H1996     1.0  0.77216  0.05806  0.58845  1.0000
  H   H1997     1.0  0.90584  0.46381  0.82793  1.0000
  C   C1116     1.0  0.90906  0.50178  0.70936  1.0000
  C   C1117     1.0  0.92961  0.47585  0.97263  1.0000
  S   S251      1.0  0.77624  0.20688  0.71065  1.0000
  H   H1998     1.0  0.00755  0.43997  0.67312  1.0000
  H   H1999     1.0  0.92348  0.45631  0.91941  1.0000
  H   H2000     1.0  0.97361  0.22884  0.78536  1.0000
  C   C1118     1.0  0.91422  0.49661  0.53266  1.0000
  H   H2001     1.0  0.97078  0.16808  0.89969  1.0000
  H   H2002     1.0  0.91814  0.22652  0.96055  1.0000
  C   C1119     1.0  0.86810  0.50424  0.65452  1.0000
  C   C1120     1.0  0.91127  0.48377  0.83723  1.0000
  C   C1121     1.0  0.99835  0.22058  0.95982  1.0000
  H   H2003     1.0  0.92442  0.50473  0.87594  1.0000
  H   H2004     1.0  0.78502  0.08170  0.63489  1.0000
  C   C1122     1.0  0.78209  0.03693  0.54144  1.0000
  C   C1123     1.0  0.87259  0.25143  0.50319  1.0000
  H   H2005     1.0  0.80515  0.09185  0.49839  1.0000
  H   H2006     1.0  0.78656  0.03636  0.51913  1.0000
  H   H2007     1.0  0.91388  0.45405  0.97118  1.0000
  C   C1124     1.0  0.00063  0.23668  0.58951  1.0000
  C   C1125     1.0  0.78151  0.47718  0.62100  1.0000
  H   H2008     1.0  0.89456  0.25811  0.50324  1.0000
  H   H2009     1.0  0.80155  0.49591  0.62064  1.0000
  C   C1126     1.0  0.95141  0.48325  0.95053  1.0000
  H   H2010     1.0  0.95930  0.20231  0.49478  1.0000
  C   C1127     1.0  0.92008  0.48493  0.86738  1.0000
  H   H2011     1.0  0.77191  0.06219  0.49911  1.0000
  H   H2012     1.0  0.95938  0.49229  0.85290  1.0000
  H   H2013     1.0  0.84486  0.50350  0.69019  1.0000
  H   H2014     1.0  0.77695  0.47075  0.64300  1.0000
  H   H2015     1.0  0.81304  0.07507  0.63752  1.0000
  C   C1128     1.0  0.80658  0.08932  0.62942  1.0000
  H   H2016     1.0  0.92782  0.50024  0.82488  1.0000
  C   C1129     1.0  0.97794  0.20181  0.49241  1.0000
  H   H2017     1.0  0.00790  0.49005  0.87337  1.0000
  C   C1130     1.0  0.76622  0.49800  0.69560  1.0000
  H   H2018     1.0  0.89086  0.23122  0.97279  1.0000
  H   H2019     1.0  0.89326  0.48650  0.83625  1.0000
  H   H2020     1.0  0.78448  0.12131  0.50493  1.0000
  H   H2021     1.0  0.86890  0.26501  0.48942  1.0000
  H   H2022     1.0  0.76494  0.43550  0.60649  1.0000
  H   H2023     1.0  0.95635  0.15582  0.98178  1.0000
  H   H2024     1.0  0.96672  0.50496  0.95342  1.0000
  H   H2025     1.0  0.84429  0.01129  0.57539  1.0000
  H   H2026     1.0  0.92546  0.25831  0.97643  1.0000
  C   C1131     1.0  0.91196  0.23591  0.97705  1.0000
  H   H2027     1.0  0.90339  0.50831  0.53362  1.0000
  H   H2028     1.0  0.01161  0.46718  0.69507  1.0000
  H   H2029     1.0  0.76549  0.80026  0.08424  1.0000
  H   H2030     1.0  0.76716  0.89431  0.16516  1.0000
  H   H2031     1.0  0.76906  0.76341  0.47169  1.0000
  H   H2032     1.0  0.88051  0.77947  0.03371  1.0000
  Fe  Fe129     1.0  0.82904  0.59230  0.18246  1.0000
  S   S252      1.0  0.84178  0.63542  0.19471  1.0000
  S   S253      1.0  0.86240  0.58101  0.18804  1.0000
  Fe  Fe130     1.0  0.80340  0.61814  0.21961  1.0000
  S   S254      1.0  0.79814  0.62643  0.26544  1.0000
  Fe  Fe131     1.0  0.81688  0.63523  0.15828  1.0000
  S   S255      1.0  0.83155  0.67232  0.13011  1.0000
  S   S256      1.0  0.79164  0.57484  0.20913  1.0000
  S   S257      1.0  0.80680  0.59353  0.14425  1.0000
  Fe  Fe132     1.0  0.87153  0.72143  0.40718  1.0000
  S   S258      1.0  0.90287  0.76458  0.41895  1.0000
  S   S259      1.0  0.87016  0.71200  0.36027  1.0000
  C   C1132     1.0  0.98688  0.74762  0.08346  1.0000
  H   H2033     1.0  0.77670  0.91103  0.25738  1.0000
  S   S260      1.0  0.83864  0.66538  0.99894  1.0000
  Fe  Fe133     1.0  0.87215  0.76228  0.45018  1.0000
  H   H2034     1.0  0.76411  0.54417  0.10414  1.0000
  Fe  Fe134     1.0  0.91668  0.74620  0.45207  1.0000
  H   H2035     1.0  0.76313  0.86060  0.16840  1.0000
  S   S261      1.0  0.83997  0.72063  0.43650  1.0000
  S   S262      1.0  0.88721  0.70330  0.43891  1.0000
  C   C1133     1.0  0.85482  0.51940  0.13768  1.0000
  Fe  Fe135     1.0  0.85839  0.70574  0.46905  1.0000
  C   C1134     1.0  0.83807  0.80091  0.46950  1.0000
  C   C1135     1.0  0.86842  0.55729  0.16955  1.0000
  H   H2036     1.0  0.96975  0.53564  0.41078  1.0000
  C   C1136     1.0  0.96042  0.53196  0.45477  1.0000
  H   H2037     1.0  0.97427  0.77979  0.36892  1.0000
  C   C1137     1.0  0.96922  0.71920  0.09567  1.0000
  C   C1138     1.0  0.84949  0.53837  0.15108  1.0000
  H   H2038     1.0  0.78256  0.70185  0.99192  1.0000
  C   C1139     1.0  0.77352  0.79877  0.98838  1.0000
  H   H2039     1.0  0.91708  0.53849  0.16428  1.0000
  H   H2040     1.0  0.83065  0.53816  0.14733  1.0000
  C   C1140     1.0  0.84982  0.68759  0.33443  1.0000
  C   C1141     1.0  0.85919  0.69171  0.30680  1.0000
  C   C1142     1.0  0.84392  0.67324  0.28554  1.0000
  C   C1143     1.0  0.81892  0.65020  0.29152  1.0000
  C   C1144     1.0  0.80968  0.64592  0.31918  1.0000
  C   C1145     1.0  0.82497  0.66436  0.34046  1.0000
  H   H2041     1.0  0.87831  0.70956  0.30174  1.0000
  H   H2042     1.0  0.85122  0.67717  0.26444  1.0000
  H   H2043     1.0  0.79040  0.62826  0.32419  1.0000
  H   H2044     1.0  0.81741  0.66073  0.36149  1.0000
  C   C1146     1.0  0.83504  0.67046  0.09383  1.0000
  C   C1147     1.0  0.82932  0.64615  0.08096  1.0000
  C   C1148     1.0  0.83067  0.64495  0.05191  1.0000
  C   C1149     1.0  0.83827  0.66816  0.03547  1.0000
  C   C1150     1.0  0.84489  0.69271  0.04841  1.0000
  C   C1151     1.0  0.84297  0.69378  0.07743  1.0000
  H   H2045     1.0  0.82397  0.62829  0.09338  1.0000
  H   H2046     1.0  0.82598  0.62598  0.04213  1.0000
  H   H2047     1.0  0.85162  0.71087  0.03606  1.0000
  H   H2048     1.0  0.84782  0.71277  0.08724  1.0000
  H   H2049     1.0  0.79837  0.78614  0.03786  1.0000
  C   C1152     1.0  0.98731  0.77778  0.38484  1.0000
  C   C1153     1.0  0.79318  0.73973  0.08791  1.0000
  S   S263      1.0  0.95900  0.75336  0.46273  1.0000
  H   H2050     1.0  0.88514  0.81115  0.04745  1.0000
  H   H2051     1.0  0.77789  0.64962  0.08224  1.0000
  C   C1154     1.0  0.99612  0.78024  0.98426  1.0000
  H   H2052     1.0  0.77612  0.60193  0.08796  1.0000
  H   H2053     1.0  0.90757  0.57153  0.18838  1.0000
  C   C1155     1.0  0.83212  0.76895  0.05863  1.0000
  H   H2054     1.0  0.98670  0.75810  0.38168  1.0000
  C   C1156     1.0  0.89825  0.53832  0.16050  1.0000
  H   H2055     1.0  0.99493  0.56303  0.43138  1.0000
  H   H2056     1.0  0.80434  0.79269  0.07361  1.0000
  C   C1157     1.0  0.80030  0.97639  0.99230  1.0000
  H   H2057     1.0  0.81137  0.54600  0.29214  1.0000
  H   H2058     1.0  0.79688  0.70297  0.05350  1.0000
  H   H2059     1.0  0.79667  0.75292  0.15903  1.0000
  C   C1158     1.0  0.87924  0.51926  0.14220  1.0000
  Fe  Fe136     1.0  0.77009  0.57923  0.17186  1.0000
  H   H2060     1.0  0.96147  0.72043  0.11642  1.0000
  H   H2061     1.0  0.78103  0.76557  0.37364  1.0000
  N   N65       1.0  0.88267  0.61940  0.27591  1.0000
  C   C1159     1.0  0.90846  0.61799  0.27396  1.0000
  C   C1160     1.0  0.87965  0.62855  0.30452  1.0000
  C   C1161     1.0  0.85931  0.59093  0.27146  1.0000
  C   C1162     1.0  0.88125  0.63759  0.25387  1.0000
  C   C1163     1.0  0.90450  0.66752  0.25380  1.0000
  C   C1164     1.0  0.91390  0.60838  0.24580  1.0000
  C   C1165     1.0  0.83052  0.58711  0.27504  1.0000
  C   C1166     1.0  0.90598  0.64864  0.32012  1.0000
  C   C1167     1.0  0.89962  0.65952  0.34626  1.0000
  C   C1168     1.0  0.90311  0.68284  0.22828  1.0000
  C   C1169     1.0  0.94138  0.60966  0.24590  1.0000
  H   H2062     1.0  0.90849  0.60407  0.29035  1.0000
  H   H2063     1.0  0.92655  0.63797  0.27826  1.0000
  H   H2064     1.0  0.86628  0.63773  0.30364  1.0000
  H   H2065     1.0  0.86914  0.61076  0.31881  1.0000
  H   H2066     1.0  0.86116  0.57641  0.28573  1.0000
  H   H2067     1.0  0.85961  0.58387  0.25008  1.0000
  H   H2068     1.0  0.87979  0.62882  0.23294  1.0000
  H   H2069     1.0  0.86225  0.63850  0.25606  1.0000
  H   H2070     1.0  0.92468  0.66907  0.25361  1.0000
  H   H2071     1.0  0.90272  0.67814  0.27223  1.0000
  H   H2072     1.0  0.89840  0.58699  0.24146  1.0000
  H   H2073     1.0  0.91408  0.62136  0.22844  1.0000
  H   H2074     1.0  0.82628  0.59732  0.25775  1.0000
  H   H2075     1.0  0.91708  0.63801  0.32664  1.0000
  H   H2076     1.0  0.91977  0.66629  0.30715  1.0000
  H   H2077     1.0  0.88589  0.64260  0.36021  1.0000
  H   H2078     1.0  0.76599  0.72271  0.04078  1.0000
  H   H2079     1.0  0.88991  0.67171  0.34075  1.0000
  H   H2080     1.0  0.88372  0.68311  0.22789  1.0000
  H   H2081     1.0  0.91999  0.70420  0.22883  1.0000
  H   H2082     1.0  0.90493  0.67324  0.20900  1.0000
  H   H2083     1.0  0.95803  0.63087  0.24901  1.0000
  C   C1170     1.0  0.79821  0.71379  0.03388  1.0000
  H   H2084     1.0  0.94457  0.60241  0.22567  1.0000
  H   H2085     1.0  0.78132  0.61492  0.99702  1.0000
  H   H2086     1.0  0.77055  0.57329  0.04848  1.0000
  H   H2087     1.0  0.80315  0.72725  0.09074  1.0000
  H   H2088     1.0  0.78335  0.89663  0.30437  1.0000
  H   H2089     1.0  0.80146  0.95801  0.99026  1.0000
  C   C1171     1.0  0.01015  0.51176  0.20771  1.0000
  H   H2090     1.0  0.76501  0.80327  0.04701  1.0000
  H   H2091     1.0  0.84051  0.84544  0.98401  1.0000
  C   C1172     1.0  0.77435  0.55311  0.08409  1.0000
  H   H2092     1.0  0.77698  0.70944  0.44518  1.0000
  H   H2093     1.0  0.84155  0.78445  0.07518  1.0000
  H   H2094     1.0  0.79087  0.74516  0.01736  1.0000
  H   H2095     1.0  0.78415  0.77543  0.40944  1.0000
  C   C1173     1.0  0.98948  0.78381  0.47026  1.0000
  C   C1174     1.0  0.79210  0.73987  0.14045  1.0000
  S   S264      1.0  0.79725  0.85319  0.00338  1.0000
  H   H2096     1.0  0.78161  0.88074  0.42385  1.0000
  H   H2097     1.0  0.94213  0.59642  0.26252  1.0000
  C   C1175     1.0  0.98072  0.54075  0.43087  1.0000
  C   C1176     1.0  0.00175  0.51467  0.00713  1.0000
  S   S265      1.0  0.86754  0.79926  0.46035  1.0000
  H   H2098     1.0  0.94889  0.54292  0.45275  1.0000
  H   H2099     1.0  0.82811  0.59558  0.29479  1.0000
  H   H2100     1.0  0.82169  0.77253  0.11558  1.0000
  H   H2101     1.0  0.78831  0.76859  0.11452  1.0000
  H   H2102     1.0  0.76784  0.99496  0.46076  1.0000
  C   C1177     1.0  0.78830  0.73460  0.03753  1.0000
  C   C1178     1.0  0.84469  0.78416  0.03104  1.0000
  C   C1179     1.0  0.87539  0.79584  0.03080  1.0000
  H   H2103     1.0  0.78211  0.82672  0.42491  1.0000
  H   H2104     1.0  0.77011  0.72466  0.14050  1.0000
  H   H2105     1.0  0.84109  0.80153  0.02827  1.0000
  H   H2106     1.0  0.83614  0.77054  0.01295  1.0000
  H   H2107     1.0  0.97382  0.75693  0.08080  1.0000
  C   C1180     1.0  0.79977  0.75747  0.11427  1.0000
  S   S266      1.0  0.98367  0.51670  0.03667  1.0000
  H   H2108     1.0  0.91865  0.67290  0.35764  1.0000
  H   H2109     1.0  0.78849  0.55505  0.27555  1.0000
  H   H2110     1.0  0.77315  0.62082  0.04572  1.0000
  C   C1181     1.0  0.80890  0.55704  0.27431  1.0000
  C   C1182     1.0  0.79295  0.77601  0.05851  1.0000
  S   S267      1.0  0.86192  0.74311  0.98269  1.0000
  H   H2111     1.0  0.83946  0.75431  0.06249  1.0000
  H   H2112     1.0  0.81951  0.72431  0.02671  1.0000
  H   H2113     1.0  0.81022  0.54761  0.25467  1.0000
  H   H2114     1.0  0.88377  0.80593  0.01054  1.0000
  C   C1183     1.0  0.99278  0.80946  0.46453  1.0000
  N   N66       1.0  0.80160  0.75486  0.06061  1.0000
  H   H2115     1.0  0.77553  0.53708  0.07209  1.0000
  H   H2116     1.0  0.80933  0.76065  0.45610  1.0000
  H   H2117     1.0  0.98093  0.70838  0.09751  1.0000
  C   C1184     1.0  0.81192  0.77890  0.46584  1.0000
  H   H2118     1.0  0.95159  0.70721  0.08187  1.0000
  H   H2119     1.0  0.77487  0.63247  0.11480  1.0000
  C   C1185     1.0  0.89277  0.55706  0.17418  1.0000
  C   C1186     1.0  0.77746  0.99977  0.00900  1.0000
  C   C1187     1.0  0.78915  0.78073  0.47429  1.0000
  H   H2120     1.0  0.97877  0.77764  0.40555  1.0000
  H   H2121     1.0  0.78105  0.67782  0.12233  1.0000
  H   H2122     1.0  0.78620  0.92974  0.30459  1.0000
  S   S268      1.0  0.96540  0.52278  0.11298  1.0000
  C   C1188     1.0  0.79145  0.86815  0.42158  1.0000
  H   H2123     1.0  0.77589  0.67757  0.45258  1.0000
  H   H2124     1.0  0.77106  0.72479  0.08811  1.0000
  H   H2125     1.0  0.80393  0.72913  0.14189  1.0000
  C   C1189     1.0  0.84104  0.82514  0.48067  1.0000
  H   H2126     1.0  0.97651  0.81112  0.45477  1.0000
  H   H2127     1.0  0.99783  0.76289  0.99081  1.0000
  C   C1190     1.0  0.77834  0.97549  0.00625  1.0000
  S   S269      1.0  0.77898  0.62110  0.18393  1.0000
  C   C1191     1.0  0.78146  0.69224  0.01233  1.0000
  H   H2128     1.0  0.79536  0.56976  0.08805  1.0000
  H   H2129     1.0  0.78972  0.67827  0.00983  1.0000
  H   H2130     1.0  0.80017  0.87102  0.40044  1.0000
  H   H2131     1.0  0.80823  0.87528  0.43687  1.0000
  H   H2132     1.0  0.76423  0.83636  0.44863  1.0000
  H   H2133     1.0  0.99258  0.53002  0.43205  1.0000
  H   H2134     1.0  0.99381  0.74557  0.06260  1.0000
  C   C1192     1.0  0.78348  0.99547  0.47396  1.0000
  C   C1193     1.0  0.76537  0.68943  0.45579  1.0000
  C   C1194     1.0  0.79728  0.82395  0.99049  1.0000
  H   H2135     1.0  0.00281  0.77135  0.12073  1.0000
  H   H2136     1.0  0.00771  0.79439  0.05859  1.0000
  H   H2137     1.0  0.01199  0.58235  0.29716  1.0000
  H   H2138     1.0  0.76934  0.80160  0.38019  1.0000
  C   C1195     1.0  0.01106  0.78205  0.48244  1.0000
  H   H2139     1.0  0.00787  0.80889  0.09135  1.0000
  C   C1196     1.0  0.77110  0.83818  0.42698  1.0000
  H   H2140     1.0  0.94089  0.83431  0.47856  1.0000
  C   C1197     1.0  0.76453  0.63963  0.10033  1.0000
  C   C1198     1.0  0.01116  0.76567  0.10271  1.0000
  H   H2141     1.0  0.01212  0.55163  0.30650  1.0000
  H   H2142     1.0  0.99249  0.55885  0.48196  1.0000
  C   C1199     1.0  0.76949  0.76537  0.39226  1.0000
  C   C1200     1.0  0.77197  0.90769  0.30153  1.0000
  H   H2143     1.0  0.01199  0.55464  0.99248  1.0000
  H   H2144     1.0  0.01221  0.83335  0.03331  1.0000
  H   H2145     1.0  0.94626  0.50981  0.45233  1.0000
  H   H2146     1.0  0.91344  0.81087  0.50012  1.0000
  H   H2147     1.0  0.79969  0.85549  0.93903  1.0000
  C   C1201     1.0  0.83726  0.75708  0.52704  1.0000
  S   S270      1.0  0.79643  0.63234  0.67571  1.0000
  Fe  Fe137     1.0  0.82368  0.58162  0.67973  1.0000
  S   S271      1.0  0.84786  0.62484  0.69517  1.0000
  S   S272      1.0  0.83527  0.54841  0.68518  1.0000
  Fe  Fe138     1.0  0.80884  0.61855  0.71428  1.0000
  S   S273      1.0  0.79800  0.62859  0.75728  1.0000
  Fe  Fe139     1.0  0.83340  0.63543  0.65563  1.0000
  S   S274      1.0  0.86019  0.67090  0.62722  1.0000
  S   S275      1.0  0.78535  0.57444  0.70118  1.0000
  S   S276      1.0  0.81198  0.59288  0.63946  1.0000
  Fe  Fe140     1.0  0.85680  0.71530  0.90660  1.0000
  S   S277      1.0  0.86764  0.75859  0.91631  1.0000
  S   S278      1.0  0.86276  0.70360  0.86215  1.0000
  H   H2148     1.0  0.78752  0.92117  0.92600  1.0000
  H   H2149     1.0  0.84215  0.80542  0.96557  1.0000
  S   S279      1.0  0.83205  0.67163  0.49922  1.0000
  Fe  Fe141     1.0  0.83430  0.74120  0.94831  1.0000
  H   H2150     1.0  0.98405  0.52430  0.48466  1.0000
  Fe  Fe142     1.0  0.89462  0.75731  0.95011  1.0000
  C   C1202     1.0  0.99127  0.82463  0.96735  1.0000
  S   S280      1.0  0.82148  0.69792  0.93633  1.0000
  S   S281      1.0  0.88551  0.71521  0.93907  1.0000
  H   H2151     1.0  0.96691  0.57581  0.73892  1.0000
  Fe  Fe143     1.0  0.85090  0.70105  0.96936  1.0000
  H   H2152     1.0  0.95657  0.53206  0.91490  1.0000
  C   C1203     1.0  0.85229  0.53675  0.66293  1.0000
  C   C1204     1.0  0.93732  0.52565  0.71759  1.0000
  C   C1205     1.0  0.82081  0.72829  0.54013  1.0000
  H   H2153     1.0  0.97426  0.83306  0.50930  1.0000
  C   C1206     1.0  0.77390  0.52970  0.59717  1.0000
  C   C1207     1.0  0.86429  0.54977  0.63795  1.0000
  C   C1208     1.0  0.95156  0.74263  0.83404  1.0000
  H   H2154     1.0  0.93701  0.52846  0.74042  1.0000
  C   C1209     1.0  0.00777  0.80632  0.89850  1.0000
  H   H2155     1.0  0.86319  0.56750  0.63149  1.0000
  C   C1210     1.0  0.84413  0.68248  0.83332  1.0000
  C   C1211     1.0  0.81584  0.66614  0.83325  1.0000
  C   C1212     1.0  0.80224  0.64996  0.80989  1.0000
  C   C1213     1.0  0.81657  0.64966  0.78617  1.0000
  C   C1214     1.0  0.84486  0.66602  0.78624  1.0000
  C   C1215     1.0  0.85845  0.68226  0.80956  1.0000
  H   H2156     1.0  0.80442  0.66596  0.85121  1.0000
  H   H2157     1.0  0.78041  0.63748  0.81028  1.0000
  H   H2158     1.0  0.85630  0.66619  0.76830  1.0000
  H   H2159     1.0  0.88028  0.69474  0.80918  1.0000
  C   C1216     1.0  0.85217  0.67035  0.59159  1.0000
  C   C1217     1.0  0.82879  0.64889  0.57996  1.0000
  C   C1218     1.0  0.82314  0.64938  0.55156  1.0000
  C   C1219     1.0  0.84072  0.67132  0.53453  1.0000
  C   C1220     1.0  0.86410  0.69277  0.54618  1.0000
  C   C1221     1.0  0.86971  0.69222  0.57455  1.0000
  H   H2160     1.0  0.81499  0.63198  0.59283  1.0000
  H   H2161     1.0  0.80498  0.63273  0.54278  1.0000
  H   H2162     1.0  0.87781  0.70976  0.53337  1.0000
  H   H2163     1.0  0.88776  0.70870  0.58346  1.0000
  H   H2164     1.0  0.98380  0.78307  0.84222  1.0000
  C   C1222     1.0  0.76631  0.65460  0.58796  1.0000
  S   S282      1.0  0.79439  0.94200  0.52252  1.0000
  H   H2165     1.0  0.95323  0.55219  0.61493  1.0000
  C   C1223     1.0  0.00354  0.56176  0.53450  1.0000
  H   H2166     1.0  0.97906  0.58739  0.61258  1.0000
  H   H2167     1.0  0.84428  0.98018  0.56806  1.0000
  H   H2168     1.0  0.78029  0.69762  0.58718  1.0000
  C   C1224     1.0  0.76771  0.51514  0.64607  1.0000
  C   C1225     1.0  0.81857  0.56361  0.57478  1.0000
  H   H2169     1.0  0.81404  0.97702  0.64969  1.0000
  S   S283      1.0  0.01168  0.51345  0.79836  1.0000
  C   C1226     1.0  0.78724  0.86181  0.92668  1.0000
  H   H2170     1.0  0.91021  0.56996  0.52271  1.0000
  C   C1227     1.0  0.85422  0.51388  0.67101  1.0000
  C   C1228     1.0  0.77729  0.86571  0.63707  1.0000
  H   H2171     1.0  0.97681  0.72535  0.82230  1.0000
  H   H2172     1.0  0.99530  0.52031  0.88077  1.0000
  H   H2173     1.0  0.80680  0.90727  0.62973  1.0000
  H   H2174     1.0  0.77958  0.74240  0.52508  1.0000
  C   C1229     1.0  0.94423  0.56517  0.53616  1.0000
  H   H2175     1.0  0.99085  0.54985  0.73099  1.0000
  H   H2176     1.0  0.76963  0.63938  0.57689  1.0000
  C   C1230     1.0  0.97107  0.56878  0.62560  1.0000
  C   C1231     1.0  0.79934  0.95755  0.65971  1.0000
  C   C1232     1.0  0.76623  0.90129  0.61941  1.0000
  N   N67       1.0  0.95944  0.79204  0.55430  1.0000
  C   C1233     1.0  0.95166  0.78673  0.58452  1.0000
  H   H2177     1.0  0.96931  0.80405  0.90652  1.0000
  C   C1234     1.0  0.94635  0.80744  0.54231  1.0000
  C   C1235     1.0  0.95007  0.76619  0.53798  1.0000
  H   H2178     1.0  0.80323  0.70020  0.49397  1.0000
  C   C1236     1.0  0.92073  0.77224  0.59050  1.0000
  C   C1237     1.0  0.95297  0.81642  0.51156  1.0000
  H   H2179     1.0  0.94126  0.70072  0.54454  1.0000
  C   C1238     1.0  0.97188  0.57354  0.71710  1.0000
  H   H2180     1.0  0.78481  0.97730  0.68816  1.0000
  C   C1239     1.0  0.91387  0.75889  0.61916  1.0000
  H   H2181     1.0  0.00724  0.79828  0.91966  1.0000
  H   H2182     1.0  0.96117  0.80623  0.59621  1.0000
  H   H2183     1.0  0.95985  0.77462  0.59436  1.0000
  S   S284      1.0  0.79905  0.74912  0.95615  1.0000
  H   H2184     1.0  0.93288  0.53319  0.66261  1.0000
  H   H2185     1.0  0.95184  0.82597  0.55480  1.0000
  H   H2186     1.0  0.92394  0.79480  0.54331  1.0000
  H   H2187     1.0  0.92919  0.75855  0.52982  1.0000
  H   H2188     1.0  0.96293  0.77049  0.51932  1.0000
  H   H2189     1.0  0.93331  0.73347  0.56925  1.0000
  H   H2190     1.0  0.79761  0.97385  0.57176  1.0000
  H   H2191     1.0  0.91365  0.78731  0.58979  1.0000
  H   H2192     1.0  0.90904  0.75644  0.57483  1.0000
  H   H2193     1.0  0.77164  0.54754  0.60282  1.0000
  C   C1240     1.0  0.77460  0.77602  0.97839  1.0000
  C   C1241     1.0  0.79412  0.96411  0.68895  1.0000
  H   H2194     1.0  0.79184  0.86238  0.64950  1.0000
  H   H2195     1.0  0.87619  0.76352  0.54160  1.0000
  H   H2196     1.0  0.97970  0.59389  0.70757  1.0000
  C   C1242     1.0  0.83917  0.99107  0.58391  1.0000
  H   H2197     1.0  0.97721  0.51832  0.53540  1.0000
  H   H2198     1.0  0.98092  0.75335  0.80056  1.0000
  C   C1243     1.0  0.94932  0.55555  0.50781  1.0000
  H   H2199     1.0  0.89169  0.74921  0.62285  1.0000
  H   H2200     1.0  0.91953  0.74278  0.62062  1.0000
  H   H2201     1.0  0.92463  0.77426  0.63555  1.0000
  C   C1244     1.0  0.98156  0.51507  0.89889  1.0000
  H   H2202     1.0  0.00455  0.56933  0.57880  1.0000
  C   C1245     1.0  0.98977  0.81040  0.55201  1.0000
  H   H2203     1.0  0.90247  0.79064  0.82900  1.0000
  C   C1246     1.0  0.99656  0.56475  0.90761  1.0000
  C   C1247     1.0  0.78437  0.68304  0.57592  1.0000
  C   C1248     1.0  0.79927  0.77824  0.96985  1.0000
  H   H2204     1.0  0.82092  0.84588  0.49742  1.0000
  H   H2205     1.0  0.76634  0.95869  0.63947  1.0000
  H   H2206     1.0  0.80748  0.52304  0.58592  1.0000
  H   H2207     1.0  0.78640  0.73873  0.56008  1.0000
  H   H2208     1.0  0.96376  0.57799  0.54697  1.0000
  H   H2209     1.0  0.95104  0.72033  0.79747  1.0000
  N   N68       1.0  0.94657  0.55235  0.70265  1.0000
  C   C1249     1.0  0.79215  0.80485  0.48582  1.0000
  H   H2210     1.0  0.00186  0.56511  0.69712  1.0000
  C   C1250     1.0  0.93499  0.82721  0.50026  1.0000
  H   H2211     1.0  0.76864  0.53481  0.65072  1.0000
  H   H2212     1.0  0.78890  0.51961  0.64851  1.0000
  C   C1251     1.0  0.88035  0.51741  0.62969  1.0000
  H   H2213     1.0  0.80443  0.98629  0.60656  1.0000
  H   H2214     1.0  0.96871  0.74713  0.56359  1.0000
  N   N69       1.0  0.79139  0.71192  0.53164  1.0000
  H   H2215     1.0  0.00666  0.78330  0.54892  1.0000
  H   H2216     1.0  0.80032  0.72968  0.49058  1.0000
  C   C1252     1.0  0.77264  0.94314  0.64267  1.0000
  H   H2217     1.0  0.98708  0.56310  0.62778  1.0000
  H   H2218     1.0  0.94959  0.79906  0.49839  1.0000
  C   C1253     1.0  0.80899  0.97490  0.59089  1.0000
  H   H2219     1.0  0.95958  0.72509  0.51749  1.0000
  H   H2220     1.0  0.93607  0.80527  0.86651  1.0000
  H   H2221     1.0  0.77712  0.85871  0.61556  1.0000
  C   C1254     1.0  0.01151  0.51397  0.76161  1.0000
  C   C1255     1.0  0.95187  0.54865  0.67279  1.0000
  H   H2222     1.0  0.82599  0.76837  0.52771  1.0000
  H   H2223     1.0  0.98100  0.81292  0.87201  1.0000
  H   H2224     1.0  0.81038  0.55763  0.55347  1.0000
  C   C1256     1.0  0.93286  0.59019  0.70472  1.0000
  C   C1257     1.0  0.90840  0.59425  0.70125  1.0000
  H   H2225     1.0  0.93717  0.84452  0.51286  1.0000
  H   H2226     1.0  0.82249  0.73121  0.56297  1.0000
  H   H2227     1.0  0.99595  0.83014  0.56246  1.0000
  N   N70       1.0  0.77355  0.93060  0.61538  1.0000
  H   H2228     1.0  0.81357  0.97499  0.70044  1.0000
  H   H2229     1.0  0.87575  0.79411  0.53171  1.0000
  C   C1258     1.0  0.81824  0.82718  0.48867  1.0000
  S   S285      1.0  0.93681  0.79488  0.95497  1.0000
  C   C1259     1.0  0.80072  0.94577  0.60112  1.0000
  H   H2230     1.0  0.86059  0.77742  0.56398  1.0000
  H   H2231     1.0  0.91271  0.55148  0.72441  1.0000
  H   H2232     1.0  0.78900  0.67269  0.53419  1.0000
  H   H2233     1.0  0.00309  0.58054  0.52895  1.0000
  H   H2234     1.0  0.94309  0.60035  0.51919  1.0000
  H   H2235     1.0  0.93642  0.72368  0.84444  1.0000
  H   H2236     1.0  0.84065  0.57080  0.57427  1.0000
  H   H2237     1.0  0.00185  0.79042  0.58430  1.0000
  H   H2238     1.0  0.94258  0.59939  0.72483  1.0000
  H   H2239     1.0  0.94743  0.60175  0.68804  1.0000
  H   H2240     1.0  0.89268  0.58252  0.71713  1.0000
  H   H2241     1.0  0.91478  0.61610  0.70349  1.0000
  H   H2242     1.0  0.89942  0.58764  0.68033  1.0000
  C   C1260     1.0  0.79080  0.70939  0.50050  1.0000
  C   C1261     1.0  0.78565  0.89584  0.63732  1.0000
  C   C1262     1.0  0.97288  0.53696  0.89965  1.0000
  C   C1263     1.0  0.97470  0.53649  0.53370  1.0000
  H   H2243     1.0  0.00351  0.56414  0.92898  1.0000
  C   C1264     1.0  0.93049  0.58226  0.53237  1.0000
  H   H2244     1.0  0.76367  0.93392  0.89051  1.0000
  C   C1265     1.0  0.79526  0.94263  0.91962  1.0000
  N   N71       1.0  0.96042  0.76958  0.88039  1.0000
  C   C1266     1.0  0.93249  0.76579  0.87584  1.0000
  C   C1267     1.0  0.95915  0.75150  0.90410  1.0000
  H   H2245     1.0  0.95300  0.75624  0.97619  1.0000
  C   C1268     1.0  0.97206  0.76411  0.85464  1.0000
  H   H2246     1.0  0.90917  0.54942  0.68783  1.0000
  C   C1269     1.0  0.93111  0.78626  0.85529  1.0000
  H   H2247     1.0  0.92366  0.71222  0.52200  1.0000
  C   C1270     1.0  0.94247  0.72046  0.89928  1.0000
  C   C1271     1.0  0.94242  0.70482  0.92524  1.0000
  C   C1272     1.0  0.77988  0.68389  0.54427  1.0000
  C   C1273     1.0  0.90294  0.77501  0.84256  1.0000
  H   H2248     1.0  0.78044  0.94510  0.70045  1.0000
  H   H2249     1.0  0.92383  0.76772  0.89586  1.0000
  H   H2250     1.0  0.91808  0.74486  0.86897  1.0000
  H   H2251     1.0  0.97972  0.75541  0.90971  1.0000
  H   H2252     1.0  0.95095  0.75622  0.92289  1.0000
  C   C1274     1.0  0.00906  0.51477  0.70299  1.0000
  C   C1275     1.0  0.96298  0.57415  0.65400  1.0000
  C   C1276     1.0  0.79906  0.97160  0.50442  1.0000
  H   H2253     1.0  0.80573  0.68847  0.57999  1.0000
  C   C1277     1.0  0.77912  0.97131  0.48718  1.0000
  H   H2254     1.0  0.78471  0.90114  0.65922  1.0000
  H   H2255     1.0  0.96417  0.53613  0.55308  1.0000
  H   H2256     1.0  0.78770  0.87934  0.93730  1.0000
  H   H2257     1.0  0.81580  0.58076  0.58148  1.0000
  H   H2258     1.0  0.88724  0.55029  0.60211  1.0000
  H   H2259     1.0  0.92114  0.71387  0.89387  1.0000
  H   H2260     1.0  0.95171  0.71445  0.88253  1.0000
  H   H2261     1.0  0.93452  0.71064  0.94342  1.0000
  H   H2262     1.0  0.92925  0.68265  0.92180  1.0000
  H   H2263     1.0  0.96325  0.70898  0.93001  1.0000
  C   C1278     1.0  0.94307  0.71856  0.53302  1.0000
  H   H2264     1.0  0.96488  0.57436  0.49715  1.0000
  H   H2265     1.0  0.88740  0.76935  0.85897  1.0000
  H   H2266     1.0  0.77028  0.81840  0.89429  1.0000
  H   H2267     1.0  0.89772  0.75677  0.82986  1.0000
  Fe  Fe144     1.0  0.77543  0.58876  0.66178  1.0000
  H   H2268     1.0  0.93139  0.54808  0.55021  1.0000
  H   H2269     1.0  0.94590  0.79178  0.83814  1.0000
  C   C1279     1.0  0.87809  0.54006  0.62140  1.0000
  H   H2270     1.0  0.83165  0.71704  0.53505  1.0000
  C   C1280     1.0  0.00778  0.79912  0.56321  1.0000
  H   H2271     1.0  0.81042  0.94777  0.90286  1.0000
  C   C1281     1.0  0.77695  0.72685  0.54090  1.0000
  C   C1282     1.0  0.92426  0.55952  0.70471  1.0000
  H   H2272     1.0  0.80105  0.93418  0.58264  1.0000
  H   H2273     1.0  0.79632  0.86842  0.90575  1.0000
  C   C1283     1.0  0.94934  0.74164  0.55320  1.0000
  C   C1284     1.0  0.80450  0.53939  0.59466  1.0000
  N   N72       1.0  0.95794  0.53424  0.50850  1.0000
  H   H2274     1.0  0.81479  0.54568  0.61498  1.0000
  H   H2275     1.0  0.94698  0.57961  0.65049  1.0000
  S   S286      1.0  0.76741  0.86781  0.54660  1.0000
  H   H2276     1.0  0.99599  0.81552  0.52999  1.0000
  H   H2277     1.0  0.84212  0.75552  0.50510  1.0000
  C   C1285     1.0  0.99601  0.56807  0.71817  1.0000
  C   C1286     1.0  0.97503  0.53774  0.48317  1.0000
  H   H2278     1.0  0.78100  0.96843  0.90356  1.0000
  H   H2279     1.0  0.96572  0.54009  0.67141  1.0000
  C   C1287     1.0  0.86414  0.77402  0.54211  1.0000
  H   H2280     1.0  0.94014  0.75085  0.82282  1.0000
  H   H2281     1.0  0.96602  0.53915  0.87875  1.0000
  C   C1288     1.0  0.96807  0.79857  0.96724  1.0000
  H   H2282     1.0  0.92771  0.58932  0.55289  1.0000
  C   C1289     1.0  0.97870  0.79875  0.88918  1.0000
  C   C1290     1.0  0.82337  0.99639  0.50816  1.0000
  H   H2283     1.0  0.80935  0.94519  0.66162  1.0000
  C   C1291     1.0  0.96611  0.73504  0.81230  1.0000
  S   S287      1.0  0.88862  0.74718  0.48421  1.0000
  H   H2284     1.0  0.98718  0.75795  0.86058  1.0000
  H   H2285     1.0  0.81720  0.94722  0.61455  1.0000
  H   H2286     1.0  0.80556  0.95611  0.93751  1.0000
  H   H2287     1.0  0.76720  0.76962  0.91816  1.0000
  H   H2288     1.0  0.85161  0.99413  0.60273  1.0000
  H   H2289     1.0  0.83912  0.99689  0.52113  1.0000
  C   C1292     1.0  0.82067  0.00108  0.98068  1.0000
  H   H2290     1.0  0.86115  0.84244  0.48328  1.0000
  H   H2291     1.0  0.98955  0.84197  0.96074  1.0000
  H   H2292     1.0  0.95187  0.51825  0.71400  1.0000
  H   H2293     1.0  0.98119  0.59166  0.66297  1.0000
  C   C1293     1.0  0.82302  0.80338  0.97202  1.0000
  H   H2294     1.0  0.83741  0.00142  0.96972  1.0000
  H   H2295     1.0  0.00873  0.76227  0.48685  1.0000
  H   H2296     1.0  0.77515  0.51898  0.70369  1.0000
  C   C1294     1.0  0.97063  0.77639  0.97596  1.0000
  S   S288      1.0  0.00805  0.51679  0.66636  1.0000
  H   H2297     1.0  0.76688  0.80639  0.92900  1.0000
  C   C1295     1.0  0.77212  0.94669  0.90922  1.0000
  H   H2298     1.0  0.98998  0.58018  0.90694  1.0000
  H   H2299     1.0  0.76601  0.52418  0.57571  1.0000
  H   H2300     1.0  0.99478  0.51800  0.91702  1.0000
  H   H2301     1.0  0.77261  0.99134  0.94675  1.0000
  H   H2302     1.0  0.77141  0.65431  0.61014  1.0000
  H   H2303     1.0  0.93069  0.54831  0.49499  1.0000
  H   H2304     1.0  0.76414  0.89158  0.59887  1.0000
  C   C1296     1.0  0.82200  0.82606  0.98241  1.0000
