data_image0
_chemical_formula_structural       FeS2FeSHFeHFeSCSFeS2FeCHS2C3H2CH3CHCHC2H4C6H4CH5CH8CNH5C2HCH2CH4C2H5CH3CH4C2H3SH2CH3CH2C2HCHCHCH5C2HCSH3CH2C2HC2HNC11H11CH2SCH4C2H3NHC2FeH3CHSH2SHCH2FeS2FeSCFeHFeSCSC3H2C4HC2HFeC2HCHSCH8C2H5C2H2SH4C2H3C2H2C3H4CH3CSCH2C3HCHCH2C2H2CHCH2C2NH5C2NSH6CH6CH2NH2C2HC2SCH3CH2CH3CH3C2H5CH2CHSCH2C2H2C3SFeHSFeS2FeSFeHS3HC2HCH2CH2C2H3CHC6H5C2H3C2H2C3H3C2H6CHCH3CH2C2H8CHNCHCH3C3H2CHNCHCHCHCH12CNH6CHCHCH5CH2CH2CH2FeC3H3C3H3C3H4CHCHC2HCH4SH8CHCNSHFeCH2C2HCSHSCSH3SC3HCH5SH4CHCH2CFeHSH4C2H2CH3C4H2SCH6C3NH7CHCH2C2H2SHC2HCHSHNHCHNC2H6CHC2H4CHC2H4C2SHSH3FeS2FeCFeHSH2CH5CHCH2C2HC2H6CHSHC2HCH3CH4CH2C3HCH3C2H2CH3C2SH3CHC2SHCH2CH2FeCH3CNC3H2CHNCH3C2H5CHC2H2FeH2CH2SHCH2C4SH4CHCH2CNSHFeSNFeSFeHFeSCSFeSNHFeS2C6H4CH3CH3CH3FeCH2CH12CHC2H5C2H2SH3CH3SH3CHCH2CH2C3H3CH2CH3CH3C2SCHCHCHCH2C2HCHCH2SHCHC2H2CH3CHCH2CSCH5CSC2H3FeS2FeS2Fe2SHSHCHC6H6C4H2CH4CH3CHCHCH3SHC4HFeH4CH2CHSH2NC5HC2H3CH6CH4NCH2CH5SH5SH5CHNC2HCHFeHCH2SH5CH5C2HCHCH2CH3FeH2C2HC3NH2SCHFeH5S2HC4H2CH2CH2CH3CNHC5H2C3H3CHCHSH2CNCH2C3SH2FeHCH4CHCHC3H7C2HCH3FeC2HCSHCH14CH2C2H2C2HSH5C3SHCH5CH2NCHCSCNH4C2HFeH2CH3FeSH3C3HCH3CHC2FeS2HCH2C3H5CH3CHCSCHC2H7NCHC2HNC3HC2H2C3H8CHCHCH2CHC2HSH2C2H5C2H2FeH5CH3CH4CHCHCH2CH3C2H2SCH2FeH2FeS2Fe2HS2FeHSFeHSFeHFeHS2FeS2C3HCH3CH4CHC2HC6H4CHC2H3SH3C2H2C2HCH2C2H2CSCSHCNHC3HC2H3C2H11SCH3C7H2C2NHSCH13C2H4CH4CH6CHCH2CH2CH3SH8SHCHC2HC2H2NCH4SC2HCH2C4FeS2HCHSCFeSHS2FeSHFeHSHCHC2H2C2SHCHCH3CH3C2H4FeHCH2CH5CH10C4H2CHC2H3C2HFeH9FeHC3H2NFeHCHCSFeHCH2C3SHS2HC2H6CH2CHSH7C2HCH2C2H3CFeS2FeSCFeSFeNSHFeHSFeNFeSFeHS3CFeHC2H2C3SH2C3H4C6H5CH2CH4NC7HCH19CHCSH2C3H3CHCH2CH2CH5CH2CH3C3H3CH2SH3SH2NSHC4SHCHCH4CH2CH2C2H11CHCH2SCHSHC2HCHCH3CH2CHCHC4H12CH
_chemical_formula_sum              "Fe72 S144 H1152 C648 N36"
_cell_length_a       35.8298
_cell_length_b       35.6662
_cell_length_c       47.1937
_cell_angle_alpha    90.0811
_cell_angle_beta     89.9152
_cell_angle_gamma    120.096

_space_group_name_H-M_alt    "P 1"
_space_group_IT_number       1

loop_
  _space_group_symop_operation_xyz
  'x, y, z'

loop_
  _atom_site_type_symbol
  _atom_site_label
  _atom_site_symmetry_multiplicity
  _atom_site_fract_x
  _atom_site_fract_y
  _atom_site_fract_z
  _atom_site_occupancy
  Fe  Fe1       1.0  0.15918  0.18483  0.29809  1.0000
  S   S1        1.0  0.22087  0.22794  0.27410  1.0000
  S   S2        1.0  0.10238  0.19821  0.29571  1.0000
  Fe  Fe2       1.0  0.19564  0.12790  0.31976  1.0000
  S   S3        1.0  0.25940  0.16785  0.29809  1.0000
  H   H1        1.0  0.99411  0.07852  0.03679  1.0000
  Fe  Fe3       1.0  0.25474  0.22524  0.31342  1.0000
  H   H2        1.0  0.39899  0.19950  0.09141  1.0000
  Fe  Fe4       1.0  0.21999  0.16635  0.26048  1.0000
  S   S4        1.0  0.23774  0.16015  0.21432  1.0000
  C   C1        1.0  0.24002  0.10611  0.02073  1.0000
  S   S5        1.0  0.15567  0.12332  0.28156  1.0000
  Fe  Fe5       1.0  0.27118  0.00633  0.09970  1.0000
  S   S6        1.0  0.33620  0.04467  0.07861  1.0000
  S   S7        1.0  0.25641  0.01382  0.14623  1.0000
  Fe  Fe6       1.0  0.29801  0.04670  0.04116  1.0000
  C   C2        1.0  0.26729  0.03531  0.32262  1.0000
  H   H3        1.0  0.32414  0.03823  0.19969  1.0000
  S   S8        1.0  0.23403  0.01137  0.06308  1.0000
  S   S9        1.0  0.29266  0.98676  0.02108  1.0000
  C   C3        1.0  0.27941  0.12332  0.00646  1.0000
  C   C4        1.0  0.02083  0.26597  0.03612  1.0000
  C   C5        1.0  0.06537  0.29395  0.03187  1.0000
  H   H4        1.0  0.38152  0.32844  0.28814  1.0000
  H   H5        1.0  0.08464  0.31605  0.04854  1.0000
  C   C6        1.0  0.44925  0.44387  0.02192  1.0000
  H   H6        1.0  0.17690  0.40142  0.33336  1.0000
  H   H7        1.0  0.37587  0.00231  0.12034  1.0000
  H   H8        1.0  0.39649  0.42839  0.05038  1.0000
  C   C7        1.0  0.99577  0.23691  0.01484  1.0000
  H   H9        1.0  0.31634  0.02410  0.26438  1.0000
  C   C8        1.0  0.15290  0.99370  0.27290  1.0000
  H   H10       1.0  0.00615  0.26597  0.05618  1.0000
  C   C9        1.0  0.30964  0.03475  0.24392  1.0000
  C   C10       1.0  0.04720  0.26489  0.32958  1.0000
  H   H11       1.0  0.43771  0.40300  0.28108  1.0000
  H   H12       1.0  0.32961  0.17131  0.06566  1.0000
  H   H13       1.0  0.16424  0.00699  0.25133  1.0000
  H   H14       1.0  0.97173  0.13493  0.04335  1.0000
  C   C11       1.0  0.24226  0.11874  0.19575  1.0000
  C   C12       1.0  0.23328  0.07970  0.20857  1.0000
  C   C13       1.0  0.23716  0.04792  0.19295  1.0000
  C   C14       1.0  0.25051  0.05471  0.16438  1.0000
  C   C15       1.0  0.25941  0.09370  0.15151  1.0000
  C   C16       1.0  0.25522  0.12536  0.16709  1.0000
  H   H15       1.0  0.22339  0.07409  0.23054  1.0000
  H   H16       1.0  0.22956  0.01778  0.20304  1.0000
  H   H17       1.0  0.26968  0.09956  0.12961  1.0000
  H   H18       1.0  0.26223  0.15532  0.15688  1.0000
  C   C17       1.0  0.00318  0.37400  0.02044  1.0000
  H   H19       1.0  0.10747  0.99383  0.02173  1.0000
  H   H20       1.0  0.33881  0.38879  0.01453  1.0000
  H   H21       1.0  0.35696  0.02952  0.16253  1.0000
  H   H22       1.0  0.09135  0.11658  0.02419  1.0000
  H   H23       1.0  0.32028  0.09601  0.22621  1.0000
  C   C18       1.0  0.40520  0.42506  0.02899  1.0000
  H   H24       1.0  0.03202  0.36129  0.05730  1.0000
  H   H25       1.0  0.32329  0.41380  0.30275  1.0000
  H   H26       1.0  0.35775  0.20506  0.03563  1.0000
  H   H27       1.0  0.36829  0.26009  0.26737  1.0000
  H   H28       1.0  0.01114  0.19100  0.24271  1.0000
  H   H29       1.0  0.00870  0.15862  0.28899  1.0000
  H   H30       1.0  0.38426  0.33590  0.06602  1.0000
  H   H31       1.0  0.39851  0.98375  0.24102  1.0000
  C   C19       1.0  0.99961  0.35226  0.04893  1.0000
  N   N1        1.0  0.04389  0.13579  0.01590  1.0000
  H   H32       1.0  0.22230  0.31594  0.30684  1.0000
  H   H33       1.0  0.40816  0.39748  0.31210  1.0000
  H   H34       1.0  0.11797  0.98276  0.27440  1.0000
  H   H35       1.0  0.02423  0.04897  0.32888  1.0000
  H   H36       1.0  0.96991  0.36285  0.01312  1.0000
  C   C20       1.0  0.44160  0.41063  0.30402  1.0000
  C   C21       1.0  0.07379  0.18334  0.02173  1.0000
  H   H37       1.0  0.36843  0.25625  0.30536  1.0000
  C   C22       1.0  0.20754  0.29588  0.32603  1.0000
  H   H38       1.0  0.15806  0.31206  0.33081  1.0000
  H   H39       1.0  0.38448  0.01944  0.25934  1.0000
  C   C23       1.0  0.40860  0.32161  0.28852  1.0000
  H   H40       1.0  0.45975  0.46955  0.32867  1.0000
  H   H41       1.0  0.18375  0.26266  0.31909  1.0000
  H   H42       1.0  0.12418  0.42861  0.32936  1.0000
  H   H43       1.0  0.02189  0.10907  0.30419  1.0000
  C   C24       1.0  0.37435  0.98504  0.25509  1.0000
  C   C25       1.0  0.38892  0.27246  0.28656  1.0000
  H   H44       1.0  0.02014  0.40945  0.02433  1.0000
  H   H45       1.0  0.98006  0.31656  0.04658  1.0000
  H   H46       1.0  0.27444  0.01791  0.24028  1.0000
  H   H47       1.0  0.22854  0.38023  0.33253  1.0000
  H   H48       1.0  0.38162  0.31664  0.10145  1.0000
  C   C26       1.0  0.37929  0.99108  0.14163  1.0000
  H   H49       1.0  0.42738  0.23281  0.06100  1.0000
  H   H50       1.0  0.34310  0.35405  0.11763  1.0000
  H   H51       1.0  0.28818  0.04136  0.30467  1.0000
  C   C27       1.0  0.10707  0.19386  0.04588  1.0000
  H   H52       1.0  0.99545  0.13484  0.23861  1.0000
  H   H53       1.0  0.34287  0.37215  0.08183  1.0000
  H   H54       1.0  0.16551  0.16496  0.08069  1.0000
  H   H55       1.0  0.05709  0.24534  0.28815  1.0000
  C   C28       1.0  0.13333  0.24246  0.05160  1.0000
  C   C29       1.0  0.34882  0.99511  0.16250  1.0000
  H   H56       1.0  0.17998  0.10584  0.02488  1.0000
  H   H57       1.0  0.22564  0.20449  0.04763  1.0000
  H   H58       1.0  0.42838  0.33612  0.26934  1.0000
  S   S10       1.0  0.97962  0.43992  0.33725  1.0000
  H   H59       1.0  0.20149  0.16554  0.10755  1.0000
  H   H60       1.0  0.19339  0.13525  0.07514  1.0000
  C   C30       1.0  0.21043  0.11956  0.01375  1.0000
  H   H61       1.0  0.38400  0.28870  0.02391  1.0000
  H   H62       1.0  0.41463  0.26383  0.28506  1.0000
  H   H63       1.0  0.45483  0.32417  0.31942  1.0000
  C   C31       1.0  0.06235  0.24465  0.31066  1.0000
  H   H64       1.0  0.13036  0.18329  0.03996  1.0000
  H   H65       1.0  0.09112  0.17792  0.06603  1.0000
  C   C32       1.0  0.97789  0.15115  0.27913  1.0000
  C   C33       1.0  0.08495  0.22431  0.32050  1.0000
  H   H66       1.0  0.39848  0.17458  0.05805  1.0000
  C   C34       1.0  0.24353  0.05680  0.32466  1.0000
  H   H67       1.0  0.23261  0.08293  0.03751  1.0000
  C   C35       1.0  0.08536  0.29210  0.00670  1.0000
  H   H68       1.0  0.03094  0.28130  0.32155  1.0000
  C   C36       1.0  0.99517  0.13280  0.05760  1.0000
  H   H69       1.0  0.36799  0.04829  0.22179  1.0000
  H   H70       1.0  0.39318  0.39108  0.10028  1.0000
  H   H71       1.0  0.11195  0.25517  0.05811  1.0000
  H   H72       1.0  0.15682  0.24901  0.06888  1.0000
  H   H73       1.0  0.15157  0.25983  0.03235  1.0000
  C   C37       1.0  0.97005  0.10561  0.08320  1.0000
  C   C38       1.0  0.31518  0.35322  0.31844  1.0000
  H   H74       1.0  0.29856  0.33499  0.29970  1.0000
  C   C39       1.0  0.43496  0.33984  0.31627  1.0000
  S   S11       1.0  0.31769  0.10773  0.01527  1.0000
  H   H75       1.0  0.04046  0.10904  0.05775  1.0000
  H   H76       1.0  0.35568  0.31878  0.02366  1.0000
  H   H77       1.0  0.23442  0.23422  0.08013  1.0000
  C   C40       1.0  0.01904  0.11238  0.04214  1.0000
  H   H78       1.0  0.41009  0.32659  0.33340  1.0000
  H   H79       1.0  0.30596  0.08831  0.26311  1.0000
  C   C41       1.0  0.33263  0.02629  0.21907  1.0000
  C   C42       1.0  0.98515  0.15728  0.24717  1.0000
  H   H80       1.0  0.35956  0.10157  0.25246  1.0000
  C   C43       1.0  0.32492  0.08311  0.24651  1.0000
  C   C44       1.0  0.32936  0.39787  0.32016  1.0000
  H   H81       1.0  0.24590  0.07878  0.30808  1.0000
  N   N2        1.0  0.31704  0.24629  0.06466  1.0000
  C   C45       1.0  0.27674  0.20579  0.07435  1.0000
  C   C46       1.0  0.35516  0.24139  0.07283  1.0000
  C   C47       1.0  0.31886  0.28469  0.07977  1.0000
  C   C48       1.0  0.31391  0.25004  0.03305  1.0000
  C   C49       1.0  0.35349  0.28752  0.01816  1.0000
  C   C50       1.0  0.23346  0.20540  0.07046  1.0000
  C   C51       1.0  0.36412  0.32472  0.08536  1.0000
  C   C52       1.0  0.35730  0.20291  0.05908  1.0000
  C   C53       1.0  0.39814  0.20266  0.06803  1.0000
  C   C54       1.0  0.19627  0.16529  0.08432  1.0000
  C   C55       1.0  0.36039  0.36271  0.09700  1.0000
  H   H82       1.0  0.27970  0.19953  0.09718  1.0000
  H   H83       1.0  0.27254  0.17686  0.06263  1.0000
  H   H84       1.0  0.38613  0.27090  0.06760  1.0000
  H   H85       1.0  0.35571  0.23786  0.09629  1.0000
  H   H86       1.0  0.30372  0.27493  0.10117  1.0000
  H   H87       1.0  0.29941  0.29611  0.06805  1.0000
  H   H88       1.0  0.30664  0.21926  0.02267  1.0000
  H   H89       1.0  0.28615  0.25444  0.02762  1.0000
  H   H90       1.0  0.16373  0.01645  0.02996  1.0000
  H   H91       1.0  0.41337  0.01135  0.14849  1.0000
  H   H92       1.0  0.01812  0.16584  0.06548  1.0000
  C   C56       1.0  0.37235  0.40267  0.00861  1.0000
  H   H93       1.0  0.17067  0.02001  0.28856  1.0000
  H   H94       1.0  0.05511  0.19985  0.02637  1.0000
  S   S12       1.0  0.19351  0.18524  0.33794  1.0000
  C   C57       1.0  0.46446  0.46064  0.30695  1.0000
  H   H95       1.0  0.97709  0.15794  0.33277  1.0000
  H   H96       1.0  0.41022  0.46438  0.28914  1.0000
  H   H97       1.0  0.98311  0.36254  0.06444  1.0000
  H   H98       1.0  0.99223  0.10360  0.09876  1.0000
  C   C58       1.0  0.00997  0.10166  0.32632  1.0000
  C   C59       1.0  0.13706  0.99269  0.01640  1.0000
  H   H99       1.0  0.38736  0.00269  0.19914  1.0000
  H   H100      1.0  0.45267  0.47496  0.26405  1.0000
  H   H101      1.0  0.06236  0.37877  0.00712  1.0000
  N   N3        1.0  0.46266  0.38867  0.31901  1.0000
  H   H102      1.0  0.02511  0.04677  0.01285  1.0000
  C   C60       1.0  0.07073  0.11630  0.00650  1.0000
  C   C61       1.0  0.44567  0.47978  0.28627  1.0000
  Fe  Fe7       1.0  0.32524  0.98115  0.06013  1.0000
  H   H103      1.0  0.02029  0.13225  0.33800  1.0000
  H   H104      1.0  0.96947  0.17536  0.28677  1.0000
  H   H105      1.0  0.40845  0.98213  0.29230  1.0000
  C   C62       1.0  0.35330  0.98050  0.19279  1.0000
  H   H106      1.0  0.23240  0.29391  0.33885  1.0000
  S   S13       1.0  0.31055  0.27789  0.33867  1.0000
  H   H107      1.0  0.06799  0.10143  0.33900  1.0000
  H   H108      1.0  0.23002  0.36965  0.42496  1.0000
  S   S14       1.0  0.03828  0.29207  0.38370  1.0000
  H   H109      1.0  0.30845  0.18337  0.54182  1.0000
  C   C63       1.0  0.31764  0.03491  0.65666  1.0000
  H   H110      1.0  0.44768  0.38067  0.40723  1.0000
  H   H111      1.0  0.42505  0.02234  0.59006  1.0000
  Fe  Fe8       1.0  0.29659  0.23644  0.62739  1.0000
  S   S15       1.0  0.26466  0.26262  0.59848  1.0000
  S   S16       1.0  0.26885  0.16252  0.62604  1.0000
  Fe  Fe9       1.0  0.36396  0.32901  0.64687  1.0000
  S   S17       1.0  0.33627  0.36078  0.61990  1.0000
  C   C64       1.0  0.30650  0.35407  0.44075  1.0000
  Fe  Fe10      1.0  0.27194  0.30617  0.63509  1.0000
  H   H112      1.0  0.08311  0.37954  0.34633  1.0000
  Fe  Fe11      1.0  0.33174  0.31492  0.58554  1.0000
  S   S18       1.0  0.35465  0.33130  0.53920  1.0000
  C   C65       1.0  0.37254  0.99381  0.62098  1.0000
  S   S19       1.0  0.36314  0.28557  0.61180  1.0000
  C   C66       1.0  0.35831  0.02781  0.61598  1.0000
  C   C67       1.0  0.25199  0.12113  0.65239  1.0000
  C   C68       1.0  0.22809  0.07736  0.64396  1.0000
  H   H113      1.0  0.02522  0.46034  0.60130  1.0000
  H   H114      1.0  0.21951  0.06968  0.62190  1.0000
  C   C69       1.0  0.35324  0.42232  0.34367  1.0000
  C   C70       1.0  0.38177  0.38252  0.52168  1.0000
  C   C71       1.0  0.37998  0.41847  0.53173  1.0000
  C   C72       1.0  0.40422  0.38668  0.49623  1.0000
  H   H115      1.0  0.36199  0.41552  0.55083  1.0000
  C   C73       1.0  0.18485  0.31418  0.34376  1.0000
  C   C74       1.0  0.16746  0.28677  0.65651  1.0000
  H   H116      1.0  0.25836  0.42154  0.39223  1.0000
  Fe  Fe12      1.0  0.98807  0.31485  0.38384  1.0000
  C   C75       1.0  0.17520  0.35448  0.39698  1.0000
  C   C76       1.0  0.14459  0.41229  0.36881  1.0000
  H   H117      1.0  0.34103  0.07031  0.65737  1.0000
  C   C77       1.0  0.41975  0.01178  0.61256  1.0000
  H   H118      1.0  0.34915  0.32837  0.44031  1.0000
  S   S20       1.0  0.18239  0.07215  0.34930  1.0000
  C   C78       1.0  0.45972  0.43310  0.59863  1.0000
  H   H119      1.0  0.29511  0.02839  0.58586  1.0000
  H   H120      1.0  0.20765  0.20621  0.42320  1.0000
  H   H121      1.0  0.16497  0.23799  0.62841  1.0000
  H   H122      1.0  0.28313  0.21605  0.54182  1.0000
  H   H123      1.0  0.14839  0.27968  0.42950  1.0000
  H   H124      1.0  0.16254  0.32526  0.45280  1.0000
  H   H125      1.0  0.45942  0.41138  0.61554  1.0000
  H   H126      1.0  0.17240  0.11640  0.63694  1.0000
  C   C79       1.0  0.05434  0.26501  0.35874  1.0000
  C   C80       1.0  0.26402  0.00586  0.34351  1.0000
  H   H127      1.0  0.35825  0.10183  0.60588  1.0000
  H   H128      1.0  0.31739  0.10273  0.62758  1.0000
  H   H129      1.0  0.44258  0.42911  0.46195  1.0000
  H   H130      1.0  0.36889  0.98369  0.64334  1.0000
  H   H131      1.0  0.34060  0.24086  0.53593  1.0000
  C   C81       1.0  0.34633  0.35685  0.36444  1.0000
  C   C82       1.0  0.14663  0.24700  0.64223  1.0000
  H   H132      1.0  0.40581  0.35912  0.48817  1.0000
  H   H133      1.0  0.24519  0.36334  0.36267  1.0000
  S   S21       1.0  0.37483  0.47905  0.34422  1.0000
  H   H134      1.0  0.26351  0.16965  0.44623  1.0000
  H   H135      1.0  0.27499  0.27244  0.42213  1.0000
  H   H136      1.0  0.33754  0.21700  0.44607  1.0000
  H   H137      1.0  0.27829  0.35053  0.45281  1.0000
  C   C83       1.0  0.30874  0.21165  0.53176  1.0000
  C   C84       1.0  0.23757  0.99895  0.36705  1.0000
  H   H138      1.0  0.32956  0.27187  0.49091  1.0000
  H   H139      1.0  0.22916  0.18404  0.46466  1.0000
  H   H140      1.0  0.21306  0.12504  0.40798  1.0000
  C   C85       1.0  0.15145  0.12679  0.64756  1.0000
  C   C86       1.0  0.31872  0.32108  0.45111  1.0000
  H   H141      1.0  0.25268  0.26902  0.45603  1.0000
  H   H142      1.0  0.02307  0.07243  0.36279  1.0000
  C   C87       1.0  0.33212  0.24394  0.43988  1.0000
  C   C88       1.0  0.29880  0.24201  0.48542  1.0000
  C   C89       1.0  0.30101  0.20397  0.49987  1.0000
  H   H143      1.0  0.08598  0.18821  0.63474  1.0000
  H   H144      1.0  0.36102  0.27369  0.44790  1.0000
  H   H145      1.0  0.27287  0.24520  0.49634  1.0000
  H   H146      1.0  0.35335  0.34135  0.38163  1.0000
  C   C90       1.0  0.21322  0.02004  0.36895  1.0000
  H   H147      1.0  0.32775  0.20036  0.49108  1.0000
  H   H148      1.0  0.24737  0.20453  0.40108  1.0000
  H   H149      1.0  0.17356  0.12595  0.43158  1.0000
  C   C91       1.0  0.99125  0.45302  0.60236  1.0000
  S   S22       1.0  0.22362  0.32311  0.65343  1.0000
  C   C92       1.0  0.16381  0.38655  0.35442  1.0000
  H   H150      1.0  0.31175  0.21169  0.39867  1.0000
  H   H151      1.0  0.27046  0.17280  0.49710  1.0000
  C   C93       1.0  0.25330  0.19447  0.44716  1.0000
  C   C94       1.0  0.28240  0.27396  0.44505  1.0000
  C   C95       1.0  0.22686  0.18990  0.41997  1.0000
  H   H152      1.0  0.19607  0.00993  0.65691  1.0000
  C   C96       1.0  0.19528  0.14224  0.41330  1.0000
  H   H153      1.0  0.32757  0.14375  0.58417  1.0000
  C   C97       1.0  0.42496  0.42631  0.48121  1.0000
  H   H154      1.0  0.40146  0.29308  0.40303  1.0000
  H   H155      1.0  0.38380  0.05916  0.62502  1.0000
  C   C98       1.0  0.33329  0.24477  0.40711  1.0000
  C   C99       1.0  0.40091  0.45809  0.51679  1.0000
  H   H156      1.0  0.16482  0.37184  0.41176  1.0000
  H   H157      1.0  0.37812  0.25894  0.37241  1.0000
  C   C100      1.0  0.29689  0.03916  0.60821  1.0000
  H   H158      1.0  0.32458  0.32641  0.47418  1.0000
  C   C101      1.0  0.21627  0.36166  0.35261  1.0000
  H   H159      1.0  0.97018  0.40250  0.57150  1.0000
  H   H160      1.0  0.19589  0.30070  0.45136  1.0000
  C   C102      1.0  0.07648  0.24423  0.36859  1.0000
  C   C103      1.0  0.37864  0.25947  0.39596  1.0000
  N   N4        1.0  0.31441  0.01730  0.62706  1.0000
  H   H161      1.0  0.44131  0.03951  0.62639  1.0000
  H   H162      1.0  0.30017  0.43893  0.62251  1.0000
  H   H163      1.0  0.08203  0.24380  0.39108  1.0000
  H   H164      1.0  0.43325  0.39268  0.35802  1.0000
  H   H165      1.0  0.36783  0.45547  0.59905  1.0000
  C   C104      1.0  0.10185  0.21891  0.64580  1.0000
  C   C105      1.0  0.30985  0.10779  0.58296  1.0000
  N   N5        1.0  0.29169  0.23863  0.45366  1.0000
  S   S23       1.0  0.30020  0.27754  0.66467  1.0000
  H   H166      1.0  0.16988  0.44635  0.37287  1.0000
  H   H167      1.0  0.33397  0.38739  0.44431  1.0000
  H   H168      1.0  0.42867  0.98632  0.61505  1.0000
  H   H169      1.0  0.39004  0.23743  0.40348  1.0000
  H   H170      1.0  0.31768  0.09801  0.56245  1.0000
  H   H171      1.0  0.27476  0.09626  0.58380  1.0000
  C   C106      1.0  0.32314  0.08952  0.60778  1.0000
  H   H172      1.0  0.17512  0.13972  0.39476  1.0000
  H   H173      1.0  0.14466  0.32480  0.39084  1.0000
  H   H174      1.0  0.99621  0.47526  0.39515  1.0000
  H   H175      1.0  0.13581  0.35396  0.34956  1.0000
  H   H176      1.0  0.14957  0.15099  0.63373  1.0000
  H   H177      1.0  0.12879  0.39715  0.38919  1.0000
  C   C107      1.0  0.17562  0.30974  0.43857  1.0000
  H   H178      1.0  0.42318  0.45283  0.62381  1.0000
  H   H179      1.0  0.32347  0.26721  0.39838  1.0000
  N   N6        1.0  0.19714  0.38210  0.37132  1.0000
  H   H180      1.0  0.36037  0.03302  0.59261  1.0000
  H   H181      1.0  0.10808  0.20777  0.35773  1.0000
  C   C108      1.0  0.33128  0.46509  0.63112  1.0000
  C   C109      1.0  0.23306  0.42551  0.38126  1.0000
  H   H182      1.0  0.17130  0.29292  0.36249  1.0000
  C   C110      1.0  0.42385  0.46252  0.49162  1.0000
  C   C111      1.0  0.09139  0.22377  0.34970  1.0000
  S   S24       1.0  0.00566  0.38252  0.39758  1.0000
  C   C112      1.0  0.36063  0.40133  0.36608  1.0000
  H   H183      1.0  0.09699  0.43169  0.36071  1.0000
  H   H184      1.0  0.29893  0.34993  0.41775  1.0000
  H   H185      1.0  0.19212  0.01388  0.38691  1.0000
  C   C113      1.0  0.21466  0.04331  0.66379  1.0000
  H   H186      1.0  0.21584  0.32412  0.40202  1.0000
  H   H187      1.0  0.98430  0.45840  0.62447  1.0000
  C   C114      1.0  0.20268  0.34083  0.41493  1.0000
  H   H188      1.0  0.42765  0.47886  0.57316  1.0000
  H   H189      1.0  0.37750  0.41937  0.38474  1.0000
  H   H190      1.0  0.46298  0.34168  0.36835  1.0000
  C   C115      1.0  0.07780  0.23000  0.66402  1.0000
  H   H191      1.0  0.28591  0.03092  0.66312  1.0000
  H   H192      1.0  0.43280  0.41322  0.58381  1.0000
  H   H193      1.0  0.26313  0.02927  0.61438  1.0000
  C   C116      1.0  0.21583  0.04878  0.34761  1.0000
  C   C117      1.0  0.45389  0.46900  0.61185  1.0000
  H   H194      1.0  0.34144  0.45106  0.64843  1.0000
  H   H195      1.0  0.23435  0.46625  0.34549  1.0000
  H   H196      1.0  0.22106  0.43963  0.39748  1.0000
  H   H197      1.0  0.97943  0.43726  0.51940  1.0000
  H   H198      1.0  0.98617  0.18781  0.38193  1.0000
  C   C118      1.0  0.11021  0.41303  0.35005  1.0000
  H   H199      1.0  0.11879  0.09794  0.64996  1.0000
  H   H200      1.0  0.27365  0.44897  0.34294  1.0000
  C   C119      1.0  0.25690  0.45984  0.35779  1.0000
  H   H201      1.0  0.46577  0.32628  0.63583  1.0000
  S   S25       1.0  0.02226  0.19271  0.66975  1.0000
  C   C120      1.0  0.46542  0.40004  0.35007  1.0000
  H   H202      1.0  0.98769  0.47572  0.58805  1.0000
  H   H203      1.0  0.99326  0.47311  0.43322  1.0000
  C   C121      1.0  0.03244  0.07954  0.34014  1.0000
  C   C122      1.0  0.32394  0.33267  0.34056  1.0000
  H   H204      1.0  0.08077  0.27918  0.69186  1.0000
  H   H205      1.0  0.15635  0.16831  0.76331  1.0000
  C   C123      1.0  0.31041  0.41352  0.88970  1.0000
  C   C124      1.0  0.32095  0.03530  0.94680  1.0000
  C   C125      1.0  0.32970  0.03258  0.70940  1.0000
  S   S26       1.0  0.01276  0.27166  0.72620  1.0000
  Fe  Fe13      1.0  0.20000  0.23232  0.96558  1.0000
  H   H206      1.0  0.37697  0.31103  0.97576  1.0000
  S   S27       1.0  0.18225  0.16748  0.98549  1.0000
  Fe  Fe14      1.0  0.18947  0.27976  0.91426  1.0000
  S   S28       1.0  0.22028  0.34339  0.93789  1.0000
  S   S29       1.0  0.16948  0.27411  0.86731  1.0000
  Fe  Fe15      1.0  0.26930  0.32658  0.95469  1.0000
  S   S30       1.0  0.34312  0.37192  0.95354  1.0000
  Fe  Fe16      1.0  0.17846  0.30366  0.97437  1.0000
  H   H207      1.0  0.01711  0.32777  0.00005  1.0000
  S   S31       1.0  0.24193  0.26572  0.92790  1.0000
  S   S32       1.0  0.14550  0.24133  0.95001  1.0000
  S   S33       1.0  0.20776  0.01105  0.71879  1.0000
  H   H208      1.0  0.22463  0.22155  0.70707  1.0000
  C   C126      1.0  0.24856  0.09630  0.70097  1.0000
  C   C127      1.0  0.32547  0.41603  0.85857  1.0000
  H   H209      1.0  0.25693  0.10387  0.72305  1.0000
  C   C128      1.0  0.35618  0.39636  0.80339  1.0000
  H   H210      1.0  0.11118  0.38136  0.97822  1.0000
  H   H211      1.0  0.36597  0.02341  0.67703  1.0000
  C   C129      1.0  0.25967  0.16850  0.97850  1.0000
  H   H212      1.0  0.97634  0.39759  0.75112  1.0000
  H   H213      1.0  0.18970  0.39345  0.86226  1.0000
  C   C130      1.0  0.38303  0.39890  0.98059  1.0000
  C   C131      1.0  0.42705  0.41772  0.97348  1.0000
  H   H214      1.0  0.28069  0.16374  0.68800  1.0000
  H   H215      1.0  0.38120  0.41823  0.67599  1.0000
  H   H216      1.0  0.13735  0.12406  0.73967  1.0000
  C   C132      1.0  0.26006  0.29798  0.73155  1.0000
  H   H217      1.0  0.00963  0.15112  0.92087  1.0000
  C   C133      1.0  0.04169  0.24570  0.82347  1.0000
  C   C134      1.0  0.07886  0.25639  0.80764  1.0000
  C   C135      1.0  0.11750  0.26507  0.82140  1.0000
  C   C136      1.0  0.11986  0.26361  0.85119  1.0000
  C   C137      1.0  0.08292  0.25357  0.86703  1.0000
  C   C138      1.0  0.04423  0.24463  0.85326  1.0000
  H   H218      1.0  0.07779  0.25795  0.78479  1.0000
  H   H219      1.0  0.14575  0.27293  0.80883  1.0000
  H   H220      1.0  0.08398  0.25227  0.88990  1.0000
  H   H221      1.0  0.01588  0.23654  0.86581  1.0000
  H   H222      1.0  0.30412  0.38280  0.89974  1.0000
  C   C139      1.0  0.01202  0.13114  0.99332  1.0000
  C   C140      1.0  0.23969  0.00189  0.94207  1.0000
  H   H223      1.0  0.26748  0.19268  0.96223  1.0000
  H   H224      1.0  0.06428  0.43580  0.94448  1.0000
  H   H225      1.0  0.19326  0.27702  0.73729  1.0000
  C   C141      1.0  0.21373  0.26174  0.73660  1.0000
  C   C142      1.0  0.20888  0.04862  0.93362  1.0000
  H   H226      1.0  0.99521  0.14898  0.99957  1.0000
  H   H227      1.0  0.13147  0.17734  0.67680  1.0000
  C   C143      1.0  0.97064  0.38250  0.77246  1.0000
  C   C144      1.0  0.18295  0.09849  0.91486  1.0000
  C   C145      1.0  0.34477  0.45088  0.90732  1.0000
  H   H228      1.0  0.11003  0.12820  0.69610  1.0000
  H   H229      1.0  0.16092  0.38590  0.94089  1.0000
  H   H230      1.0  0.22478  0.07462  0.94992  1.0000
  C   C146      1.0  0.22040  0.15131  0.99299  1.0000
  C   C147      1.0  0.22482  0.05253  0.69252  1.0000
  H   H231      1.0  0.99627  0.21440  0.97262  1.0000
  H   H232      1.0  0.99990  0.35283  0.79789  1.0000
  H   H233      1.0  0.28829  0.07175  0.94777  1.0000
  H   H234      1.0  0.09701  0.07420  0.96818  1.0000
  H   H235      1.0  0.33294  0.44847  0.92940  1.0000
  H   H236      1.0  0.99968  0.43360  0.98838  1.0000
  C   C148      1.0  0.17031  0.05155  0.92115  1.0000
  H   H237      1.0  0.19157  0.11771  0.93474  1.0000
  C   C149      1.0  0.20698  0.16191  0.74400  1.0000
  H   H238      1.0  0.04901  0.36430  0.92799  1.0000
  H   H239      1.0  0.23144  0.19405  0.75242  1.0000
  H   H240      1.0  0.15987  0.03326  0.90087  1.0000
  C   C150      1.0  0.26211  0.13037  0.68111  1.0000
  H   H241      1.0  0.97340  0.14833  0.94839  1.0000
  H   H242      1.0  0.06016  0.18214  0.76985  1.0000
  C   C151      1.0  0.07662  0.15853  0.73185  1.0000
  C   C152      1.0  0.41448  0.43900  0.68218  1.0000
  H   H243      1.0  0.06188  0.14697  0.71061  1.0000
  H   H244      1.0  0.13261  0.21360  0.74958  1.0000
  H   H245      1.0  0.23823  0.13196  0.76636  1.0000
  H   H246      1.0  0.36716  0.43366  0.76442  1.0000
  H   H247      1.0  0.29597  0.02372  0.71445  1.0000
  H   H248      1.0  0.17322  0.12182  0.68882  1.0000
  H   H249      1.0  0.12229  0.22041  0.71369  1.0000
  H   H250      1.0  0.33278  0.44795  0.84975  1.0000
  C   C153      1.0  0.19853  0.40179  0.83961  1.0000
  H   H251      1.0  0.07582  0.13116  0.74352  1.0000
  N   N7        1.0  0.15680  0.18536  0.71903  1.0000
  C   C154      1.0  0.03100  0.14802  0.96337  1.0000
  H   H252      1.0  0.15534  0.09952  0.90501  1.0000
  C   C155      1.0  0.19783  0.22725  0.71266  1.0000
  H   H253      1.0  0.12081  0.37383  0.91392  1.0000
  H   H254      1.0  0.28254  0.28504  0.73182  1.0000
  H   H255      1.0  0.26637  0.44069  0.84767  1.0000
  C   C156      1.0  0.31101  0.39081  0.80931  1.0000
  C   C157      1.0  0.33199  0.01492  0.68033  1.0000
  C   C158      1.0  0.12573  0.36857  0.93647  1.0000
  H   H256      1.0  0.01475  0.14490  0.74883  1.0000
  H   H257      1.0  0.11294  0.33345  0.94010  1.0000
  C   C159      1.0  0.20538  0.12746  0.76401  1.0000
  H   H258      1.0  0.31903  0.28171  0.97879  1.0000
  N   N8        1.0  0.29503  0.37952  0.83940  1.0000
  C   C160      1.0  0.29340  0.33829  0.84894  1.0000
  H   H259      1.0  0.23252  0.05857  0.91584  1.0000
  C   C161      1.0  0.24995  0.37260  0.84105  1.0000
  H   H260      1.0  0.34476  0.37601  0.75903  1.0000
  C   C162      1.0  0.27095  0.29905  0.82837  1.0000
  H   H261      1.0  0.26962  0.32269  0.74848  1.0000
  C   C163      1.0  0.26737  0.25830  0.84164  1.0000
  H   H262      1.0  0.05153  0.18375  0.96364  1.0000
  H   H263      1.0  0.27608  0.32738  0.86957  1.0000
  H   H264      1.0  0.32639  0.34401  0.85333  1.0000
  H   H265      1.0  0.25247  0.42175  0.81171  1.0000
  H   H266      1.0  0.31944  0.16789  0.97399  1.0000
  H   H267      1.0  0.23588  0.36042  0.86240  1.0000
  H   H268      1.0  0.22815  0.34670  0.82613  1.0000
  H   H269      1.0  0.07714  0.44109  0.98122  1.0000
  H   H270      1.0  0.34878  0.25292  0.97896  1.0000
  H   H271      1.0  0.23784  0.29158  0.82298  1.0000
  H   H272      1.0  0.28943  0.30539  0.80836  1.0000
  H   H273      1.0  0.26270  0.31393  0.71082  1.0000
  C   C164      1.0  0.00281  0.36660  0.77635  1.0000
  N   N9        1.0  0.02849  0.37634  0.96856  1.0000
  H   H274      1.0  0.29979  0.26366  0.84726  1.0000
  H   H275      1.0  0.24696  0.24910  0.86100  1.0000
  H   H276      1.0  0.25208  0.23099  0.82635  1.0000
  H   H277      1.0  0.19522  0.43030  0.83426  1.0000
  H   H278      1.0  0.15274  0.03618  0.98149  1.0000
  H   H279      1.0  0.18394  0.09448  0.75527  1.0000
  C   C165      1.0  0.01552  0.23643  0.98926  1.0000
  H   H280      1.0  0.07500  0.26254  0.96556  1.0000
  C   C166      1.0  0.12347  0.19687  0.72867  1.0000
  H   H281      1.0  0.31346  0.42202  0.80307  1.0000
  C   C167      1.0  0.36765  0.40437  0.77190  1.0000
  H   H282      1.0  0.98312  0.08667  0.69148  1.0000
  H   H283      1.0  0.19352  0.24271  0.69340  1.0000
  H   H284      1.0  0.99713  0.34139  0.76036  1.0000
  H   H285      1.0  0.21863  0.15776  0.72320  1.0000
  H   H286      1.0  0.40060  0.40960  0.76838  1.0000
  C   C168      1.0  0.16231  0.15892  0.74196  1.0000
  H   H287      1.0  0.21198  0.24701  0.75761  1.0000
  H   H288      1.0  0.17566  0.37398  0.82626  1.0000
  C   C169      1.0  0.98335  0.35477  0.95654  1.0000
  H   H289      1.0  0.35783  0.36734  0.80977  1.0000
  H   H290      1.0  0.19361  0.13007  0.78530  1.0000
  C   C170      1.0  0.04838  0.17240  0.74781  1.0000
  H   H291      1.0  0.98284  0.42579  0.68009  1.0000
  H   H292      1.0  0.21079  0.11358  0.90004  1.0000
  Fe  Fe17      1.0  0.98407  0.21200  0.69902  1.0000
  C   C171      1.0  0.10369  0.38574  0.95613  1.0000
  C   C172      1.0  0.45986  0.43968  0.99395  1.0000
  C   C173      1.0  0.06014  0.26364  0.98525  1.0000
  H   H293      1.0  0.04285  0.32668  0.95497  1.0000
  H   H294      1.0  0.43592  0.41494  0.95199  1.0000
  H   H295      1.0  0.98585  0.09674  0.99135  1.0000
  C   C174      1.0  0.99518  0.13624  0.94164  1.0000
  C   C175      1.0  0.14023  0.15937  0.69206  1.0000
  C   C176      1.0  0.02088  0.44586  0.96960  1.0000
  H   H296      1.0  0.21622  0.03081  0.98834  1.0000
  H   H297      1.0  0.09291  0.19986  0.00249  1.0000
  H   H298      1.0  0.11875  0.42099  0.95204  1.0000
  C   C177      1.0  0.02885  0.36308  0.99885  1.0000
  C   C178      1.0  0.05414  0.36152  0.95102  1.0000
  C   C179      1.0  0.04980  0.42513  0.96597  1.0000
  H   H299      1.0  0.04825  0.19987  0.73680  1.0000
  H   H300      1.0  0.27948  0.03810  0.97819  1.0000
  H   H301      1.0  0.38146  0.42469  0.81516  1.0000
  H   H302      1.0  0.34088  0.01827  0.72590  1.0000
  C   C180      1.0  0.28898  0.15434  0.98514  1.0000
  H   H303      1.0  0.35716  0.41738  0.85961  1.0000
  C   C181      1.0  0.07677  0.05389  0.98608  1.0000
  H   H304      1.0  0.28727  0.36642  0.79430  1.0000
  C   C182      1.0  0.24496  0.41239  0.83431  1.0000
  C   C183      1.0  0.28181  0.03939  0.95484  1.0000
  H   H305      1.0  0.28057  0.41554  0.89097  1.0000
  C   C184      1.0  0.14319  0.29814  0.67420  1.0000
  H   H306      1.0  0.32606  0.03820  0.92350  1.0000
  H   H307      1.0  0.31668  0.00377  0.95403  1.0000
  H   H308      1.0  0.37489  0.44917  0.90808  1.0000
  H   H309      1.0  0.14220  0.03800  0.93558  1.0000
  S   S34       1.0  0.99146  0.23349  0.80737  1.0000
  H   H310      1.0  0.02465  0.06532  0.97745  1.0000
  H   H311      1.0  0.05077  0.13425  0.95557  1.0000
  H   H312      1.0  0.35053  0.06840  0.71007  1.0000
  H   H313      1.0  0.99987  0.43869  0.95069  1.0000
  H   H314      1.0  0.03620  0.39404  0.77354  1.0000
  H   H315      1.0  0.98455  0.36501  0.93409  1.0000
  H   H316      1.0  0.97589  0.10053  0.93886  1.0000
  H   H317      1.0  0.97814  0.40813  0.78832  1.0000
  C   C185      1.0  0.44253  0.42248  0.68277  1.0000
  H   H318      1.0  0.35019  0.06165  0.95722  1.0000
  C   C186      1.0  0.09871  0.26992  0.67801  1.0000
  N   N10       1.0  0.19959  0.00539  0.94569  1.0000
  S   S35       1.0  0.22966  0.29186  0.99297  1.0000
  H   H319      1.0  0.05840  0.01964  0.97891  1.0000
  Fe  Fe18      1.0  0.96998  0.22831  0.76075  1.0000
  C   C187      1.0  0.34909  0.28281  0.98597  1.0000
  H   H320      1.0  0.09383  0.13660  0.98971  1.0000
  H   H321      1.0  0.15896  0.32892  0.68520  1.0000
  C   C188      1.0  0.14799  0.00333  0.98507  1.0000
  C   C189      1.0  0.18966  0.00299  0.97692  1.0000
  H   H322      1.0  0.24564  0.99926  0.91913  1.0000
  C   C190      1.0  0.04556  0.06886  0.99573  1.0000
  S   S36       1.0  0.97089  0.34468  0.69916  1.0000
  H   H323      1.0  0.97436  0.29022  0.94576  1.0000
  S   S37       1.0  0.14173  0.32567  0.00268  1.0000
  C   C191      1.0  0.17033  0.14670  0.67647  1.0000
  S   S38       1.0  0.42530  0.36837  0.67266  1.0000
  H   H324      1.0  0.09825  0.05632  0.00379  1.0000
  H   H325      1.0  0.20286  0.17492  0.67260  1.0000
  H   H326      1.0  0.16995  0.88804  0.22595  1.0000
  S   S39       1.0  0.97643  0.71391  0.32322  1.0000
  C   C192      1.0  0.40122  0.95504  0.00599  1.0000
  C   C193      1.0  0.20219  0.83766  0.28175  1.0000
  C   C194      1.0  0.05052  0.70588  0.32050  1.0000
  H   H327      1.0  0.43805  0.72868  0.31125  1.0000
  C   C195      1.0  0.14706  0.93751  0.30861  1.0000
  H   H328      1.0  0.14305  0.93132  0.26158  1.0000
  H   H329      1.0  0.10578  0.84648  0.26355  1.0000
  H   H330      1.0  0.17236  0.68035  0.33221  1.0000
  H   H331      1.0  0.37127  0.95679  0.13968  1.0000
  H   H332      1.0  0.09012  0.82677  0.31783  1.0000
  S   S40       1.0  0.26272  0.94218  0.08432  1.0000
  H   H333      1.0  0.46022  0.51507  0.29023  1.0000
  H   H334      1.0  0.31319  0.89257  0.00893  1.0000
  H   H335      1.0  0.46027  0.77305  0.26792  1.0000
  H   H336      1.0  0.18976  0.84139  0.04784  1.0000
  C   C196      1.0  0.16512  0.82491  0.03195  1.0000
  H   H337      1.0  0.44953  0.84712  0.31543  1.0000
  C   C197      1.0  0.44141  0.93527  0.33215  1.0000
  H   H338      1.0  0.36649  0.92998  0.28019  1.0000
  H   H339      1.0  0.15822  0.76198  0.03965  1.0000
  C   C198      1.0  0.42744  0.92679  0.04249  1.0000
  Fe  Fe19      1.0  0.23109  0.95100  0.04588  1.0000
  H   H340      1.0  0.42899  0.91956  0.06456  1.0000
  S   S41       1.0  0.17089  0.90429  0.02145  1.0000
  H   H341      1.0  0.10936  0.70301  0.31790  1.0000
  H   H342      1.0  0.02353  0.74697  0.03935  1.0000
  H   H343      1.0  0.33657  0.86031  0.04586  1.0000
  H   H344      1.0  0.26146  0.84385  0.10727  1.0000
  C   C199      1.0  0.27328  0.83888  0.06275  1.0000
  C   C200      1.0  0.40278  0.94596  0.03469  1.0000
  H   H345      1.0  0.30582  0.95817  0.25850  1.0000
  H   H346      1.0  0.31702  0.86198  0.09882  1.0000
  C   C201      1.0  0.27706  0.95216  0.20365  1.0000
  H   H347      1.0  0.24069  0.94825  0.24282  1.0000
  H   H348      1.0  0.03398  0.68141  0.30441  1.0000
  H   H349      1.0  0.20804  0.91397  0.30404  1.0000
  C   C202      1.0  0.28307  0.83706  0.09404  1.0000
  C   C203      1.0  0.14716  0.78004  0.02729  1.0000
  C   C204      1.0  0.17340  0.84369  0.30297  1.0000
  C   C205      1.0  0.02942  0.72559  0.33334  1.0000
  H   H350      1.0  0.17227  0.89096  0.27537  1.0000
  H   H351      1.0  0.32088  0.92675  0.23753  1.0000
  S   S42       1.0  0.37337  0.95601  0.06150  1.0000
  C   C206      1.0  0.32868  0.96071  0.24168  1.0000
  H   H352      1.0  0.19414  0.88638  0.19292  1.0000
  H   H353      1.0  0.23903  0.81454  0.05869  1.0000
  H   H354      1.0  0.27776  0.87159  0.05885  1.0000
  H   H355      1.0  0.27767  0.80447  0.09963  1.0000
  H   H356      1.0  0.25664  0.85884  0.01341  1.0000
  H   H357      1.0  0.99028  0.70529  0.01440  1.0000
  C   C207      1.0  0.45909  0.88074  0.31831  1.0000
  C   C208      1.0  0.20346  0.70054  0.01523  1.0000
  C   C209      1.0  0.16482  0.64648  0.33598  1.0000
  N   N11       1.0  0.14179  0.89340  0.31460  1.0000
  H   H358      1.0  0.19568  0.96798  0.27522  1.0000
  H   H359      1.0  0.13102  0.95963  0.02120  1.0000
  H   H360      1.0  0.07807  0.87667  0.26902  1.0000
  H   H361      1.0  0.14040  0.81567  0.30037  1.0000
  H   H362      1.0  0.98106  0.70132  0.07925  1.0000
  H   H363      1.0  0.18499  0.84244  0.32453  1.0000
  H   H364      1.0  0.18898  0.83377  0.25999  1.0000
  C   C210      1.0  0.09620  0.85790  0.30849  1.0000
  H   H365      1.0  0.34609  0.78888  0.02505  1.0000
  C   C211      1.0  0.03894  0.80799  0.27366  1.0000
  H   H366      1.0  0.34963  0.94762  0.19096  1.0000
  H   H367      1.0  0.30692  0.80438  0.05238  1.0000
  C   C212      1.0  0.09350  0.71847  0.32808  1.0000
  C   C213      1.0  0.44974  0.91639  0.02201  1.0000
  H   H368      1.0  0.01374  0.80882  0.28698  1.0000
  H   H369      1.0  0.07258  0.86468  0.31923  1.0000
  S   S43       1.0  0.37691  0.84962  0.33816  1.0000
  H   H370      1.0  0.23557  0.86577  0.28235  1.0000
  C   C214      1.0  0.17488  0.88752  0.29839  1.0000
  C   C215      1.0  0.30388  0.83135  0.04333  1.0000
  H   H371      1.0  0.20334  0.80796  0.28725  1.0000
  C   C216      1.0  0.08229  0.84980  0.27703  1.0000
  H   H372      1.0  0.98558  0.51945  0.31827  1.0000
  S   S44       1.0  0.27557  0.86575  0.33799  1.0000
  H   H373      1.0  0.42452  0.77083  0.31310  1.0000
  N   N12       1.0  0.29171  0.82398  0.01235  1.0000
  H   H374      1.0  0.02845  0.80385  0.25119  1.0000
  C   C217      1.0  0.45159  0.76414  0.31347  1.0000
  H   H375      1.0  0.04185  0.77952  0.27989  1.0000
  N   N13       1.0  0.32247  0.98012  0.21489  1.0000
  C   C218      1.0  0.16064  0.95586  0.27814  1.0000
  C   C219      1.0  0.37540  0.96439  0.28326  1.0000
  H   H376      1.0  0.19584  0.67381  0.03035  1.0000
  H   H377      1.0  0.27527  0.92638  0.18933  1.0000
  H   H378      1.0  0.02393  0.69670  0.03907  1.0000
  H   H379      1.0  0.17250  0.96250  0.32245  1.0000
  H   H380      1.0  0.26845  0.73838  0.02998  1.0000
  H   H381      1.0  0.31565  0.97520  0.15404  1.0000
  C   C220      1.0  0.19613  0.90774  0.21073  1.0000
  H   H382      1.0  0.11704  0.93785  0.31432  1.0000
  C   C221      1.0  0.15026  0.84818  0.01642  1.0000
  C   C222      1.0  0.00319  0.71139  0.03634  1.0000
  H   H383      1.0  0.19080  0.93379  0.20232  1.0000
  H   H384      1.0  0.09715  0.61854  0.32904  1.0000
  H   H385      1.0  0.23045  0.74849  0.04791  1.0000
  H   H386      1.0  0.24308  0.90042  0.23462  1.0000
  C   C223      1.0  0.24012  0.92738  0.22531  1.0000
  H   H387      1.0  0.16943  0.63328  0.31579  1.0000
  C   C224      1.0  0.42908  0.89160  0.32889  1.0000
  C   C225      1.0  0.24047  0.74300  0.02678  1.0000
  H   H388      1.0  0.26794  0.97177  0.19022  1.0000
  H   H389      1.0  0.17407  0.70311  0.01243  1.0000
  H   H390      1.0  0.35289  0.96597  0.29879  1.0000
  H   H391      1.0  0.97090  0.58724  0.22950  1.0000
  C   C226      1.0  0.25078  0.78149  0.00667  1.0000
  C   C227      1.0  0.11474  0.75835  0.00684  1.0000
  S   S45       1.0  0.29237  0.97759  0.33835  1.0000
  H   H392      1.0  0.22206  0.78568  0.00759  1.0000
  S   S46       1.0  0.44404  0.56460  0.40460  1.0000
  H   H393      1.0  0.04527  0.64741  0.36210  1.0000
  H   H394      1.0  0.18521  0.91397  0.35052  1.0000
  H   H395      1.0  0.36643  0.82802  0.64664  1.0000
  Fe  Fe20      1.0  0.30307  0.88148  0.41816  1.0000
  S   S47       1.0  0.28653  0.82026  0.39426  1.0000
  S   S48       1.0  0.32148  0.88821  0.46566  1.0000
  Fe  Fe21      1.0  0.33030  0.86551  0.36055  1.0000
  C   C228      1.0  0.36519  0.48298  0.60759  1.0000
  Fe  Fe22      1.0  0.23210  0.82495  0.37330  1.0000
  H   H396      1.0  0.38555  0.75369  0.63580  1.0000
  S   S49       1.0  0.24437  0.88276  0.40006  1.0000
  H   H397      1.0  0.16914  0.92012  0.40179  1.0000
  H   H398      1.0  0.39123  0.83257  0.39844  1.0000
  C   C229      1.0  0.11616  0.75087  0.34860  1.0000
  H   H399      1.0  0.10240  0.69518  0.45825  1.0000
  H   H400      1.0  0.39897  0.90734  0.63274  1.0000
  H   H401      1.0  0.42631  0.80997  0.63538  1.0000
  H   H402      1.0  0.34222  0.89335  0.52516  1.0000
  H   H403      1.0  0.11082  0.70160  0.40605  1.0000
  C   C230      1.0  0.07766  0.69628  0.44467  1.0000
  H   H404      1.0  0.99533  0.53936  0.41543  1.0000
  C   C231      1.0  0.37110  0.90254  0.48377  1.0000
  H   H405      1.0  0.39546  0.63697  0.33940  1.0000
  H   H406      1.0  0.46339  0.60636  0.63706  1.0000
  C   C232      1.0  0.40996  0.91366  0.52899  1.0000
  C   C233      1.0  0.37169  0.90233  0.51369  1.0000
  H   H407      1.0  0.39457  0.62807  0.37731  1.0000
  C   C234      1.0  0.00859  0.66645  0.64850  1.0000
  C   C235      1.0  0.38107  0.91017  0.65026  1.0000
  H   H408      1.0  0.41005  0.91475  0.44650  1.0000
  H   H409      1.0  0.41644  0.50941  0.63915  1.0000
  H   H410      1.0  0.21821  0.88547  0.61417  1.0000
  H   H411      1.0  0.98429  0.59863  0.39970  1.0000
  H   H412      1.0  0.08840  0.87877  0.36403  1.0000
  H   H413      1.0  0.25213  0.96296  0.63853  1.0000
  C   C236      1.0  0.97683  0.67749  0.65369  1.0000
  H   H414      1.0  0.40955  0.91330  0.55190  1.0000
  S   S50       1.0  0.25480  0.86024  0.67080  1.0000
  H   H415      1.0  0.27620  0.51646  0.38475  1.0000
  C   C237      1.0  0.05215  0.69796  0.65219  1.0000
  C   C238      1.0  0.44862  0.92562  0.51463  1.0000
  H   H416      1.0  0.11832  0.67027  0.36905  1.0000
  C   C239      1.0  0.40972  0.91429  0.46941  1.0000
  H   H417      1.0  0.12697  0.86390  0.40195  1.0000
  H   H418      1.0  0.31894  0.86628  0.63201  1.0000
  H   H419      1.0  0.35281  0.49515  0.59049  1.0000
  C   C240      1.0  0.02570  0.53843  0.41590  1.0000
  H   H420      1.0  0.45859  0.62471  0.53569  1.0000
  H   H421      1.0  0.11089  0.79357  0.37836  1.0000
  H   H422      1.0  0.08190  0.61730  0.66193  1.0000
  H   H423      1.0  0.43344  0.62409  0.35518  1.0000
  C   C241      1.0  0.11828  0.61851  0.34617  1.0000
  H   H424      1.0  0.03755  0.61358  0.42751  1.0000
  H   H425      1.0  0.26941  0.88880  0.60702  1.0000
  C   C242      1.0  0.37328  0.79719  0.40263  1.0000
  C   C243      1.0  0.45303  0.49931  0.58865  1.0000
  C   C244      1.0  0.29123  0.50284  0.37058  1.0000
  H   H426      1.0  0.32981  0.77156  0.64942  1.0000
  C   C245      1.0  0.15049  0.89142  0.34574  1.0000
  H   H427      1.0  0.04169  0.55166  0.43662  1.0000
  H   H428      1.0  0.39841  0.70622  0.35222  1.0000
  H   H429      1.0  0.11514  0.90559  0.41206  1.0000
  C   C246      1.0  0.07829  0.67971  0.41489  1.0000
  C   C247      1.0  0.24617  0.89852  0.59942  1.0000
  H   H430      1.0  0.04315  0.54604  0.37128  1.0000
  H   H431      1.0  0.30867  0.52646  0.35334  1.0000
  C   C248      1.0  0.36388  0.79697  0.65337  1.0000
  H   H432      1.0  0.07691  0.69000  0.64745  1.0000
  H   H433      1.0  0.29579  0.95963  0.58282  1.0000
  H   H434      1.0  0.34580  0.76599  0.59735  1.0000
  C   C249      1.0  0.09476  0.76995  0.36177  1.0000
  C   C250      1.0  0.03468  0.61323  0.36749  1.0000
  S   S51       1.0  0.99537  0.61314  0.63931  1.0000
  H   H435      1.0  0.42809  0.79540  0.41857  1.0000
  H   H436      1.0  0.05406  0.68289  0.40210  1.0000
  H   H437      1.0  0.40338  0.54691  0.62488  1.0000
  C   C251      1.0  0.03226  0.75038  0.66814  1.0000
  H   H438      1.0  0.40932  0.53158  0.56191  1.0000
  C   C252      1.0  0.40351  0.77863  0.40183  1.0000
  C   C253      1.0  0.43816  0.55627  0.57355  1.0000
  S   S52       1.0  0.34881  0.92636  0.38495  1.0000
  H   H439      1.0  0.18773  0.64670  0.35191  1.0000
  C   C254      1.0  0.40904  0.52001  0.61888  1.0000
  H   H440      1.0  0.14467  0.85877  0.35147  1.0000
  H   H441      1.0  0.38405  0.74390  0.40750  1.0000
  C   C255      1.0  0.33565  0.88716  0.64980  1.0000
  H   H442      1.0  0.29414  0.95104  0.63937  1.0000
  H   H443      1.0  0.32606  0.49100  0.63993  1.0000
  Fe  Fe23      1.0  0.28984  0.92319  0.36514  1.0000
  C   C256      1.0  0.42469  0.71619  0.36809  1.0000
  H   H444      1.0  0.24426  0.95569  0.58813  1.0000
  H   H445      1.0  0.43341  0.57371  0.51652  1.0000
  H   H446      1.0  0.35288  0.96434  0.60804  1.0000
  C   C257      1.0  0.39143  0.78703  0.63256  1.0000
  N   N14       1.0  0.06650  0.61121  0.38737  1.0000
  C   C258      1.0  0.06826  0.63196  0.41569  1.0000
  C   C259      1.0  0.05652  0.56488  0.39126  1.0000
  C   C260      1.0  0.11082  0.63682  0.37418  1.0000
  H   H447      1.0  0.40090  0.78406  0.58735  1.0000
  H   H448      1.0  0.39846  0.77138  0.35628  1.0000
  C   C261      1.0  0.98727  0.59088  0.37745  1.0000
  H   H449      1.0  0.35816  0.79197  0.42391  1.0000
  N   N15       1.0  0.44680  0.53595  0.59885  1.0000
  C   C262      1.0  0.42494  0.78480  0.37221  1.0000
  H   H450      1.0  0.23449  0.88400  0.57815  1.0000
  H   H451      1.0  0.42941  0.58076  0.58037  1.0000
  H   H452      1.0  0.09302  0.63086  0.42941  1.0000
  C   C263      1.0  0.13445  0.89753  0.39746  1.0000
  C   C264      1.0  0.98876  0.71948  0.66323  1.0000
  H   H453      1.0  0.08673  0.56409  0.39553  1.0000
  H   H454      1.0  0.13602  0.64041  0.38958  1.0000
  H   H455      1.0  0.34725  0.78097  0.38663  1.0000
  H   H456      1.0  0.03617  0.77317  0.36424  1.0000
  H   H457      1.0  0.04538  0.67663  0.45457  1.0000
  C   C265      1.0  0.28207  0.96933  0.62715  1.0000
  H   H458      1.0  0.44319  0.82016  0.36763  1.0000
  C   C266      1.0  0.06396  0.73954  0.66237  1.0000
  C   C267      1.0  0.05200  0.75769  0.35403  1.0000
  H   H459      1.0  0.46089  0.89276  0.38456  1.0000
  H   H460      1.0  0.40786  0.70443  0.38873  1.0000
  Fe  Fe24      1.0  0.43623  0.51802  0.36983  1.0000
  H   H461      1.0  0.08509  0.73046  0.44343  1.0000
  H   H462      1.0  0.04361  0.48817  0.41585  1.0000
  C   C268      1.0  0.26795  0.94784  0.59752  1.0000
  H   H463      1.0  0.38550  0.82320  0.59718  1.0000
  H   H464      1.0  0.46337  0.93755  0.40360  1.0000
  S   S53       1.0  0.16938  0.76332  0.35873  1.0000
  H   H465      1.0  0.12954  0.93516  0.36380  1.0000
  C   C269      1.0  0.41565  0.64187  0.35841  1.0000
  H   H466      1.0  0.03385  0.59771  0.34689  1.0000
  H   H467      1.0  0.39896  0.48550  0.52456  1.0000
  C   C270      1.0  0.01411  0.49094  0.41487  1.0000
  C   C271      1.0  0.44805  0.92579  0.48470  1.0000
  C   C272      1.0  0.12338  0.90166  0.36677  1.0000
  C   C273      1.0  0.38005  0.79027  0.60178  1.0000
  S   S54       1.0  0.45271  0.51463  0.47535  1.0000
  H   H468      1.0  0.31522  0.49833  0.38277  1.0000
  H   H469      1.0  0.97245  0.55521  0.37510  1.0000
  H   H470      1.0  0.09762  0.76333  0.66544  1.0000
  H   H471      1.0  0.11205  0.58496  0.34889  1.0000
  C   C274      1.0  0.46330  0.59820  0.52740  1.0000
  H   H472      1.0  0.41855  0.94402  0.34025  1.0000
  C   C275      1.0  0.44792  0.68999  0.36281  1.0000
  H   H473      1.0  0.97007  0.63908  0.36489  1.0000
  H   H474      1.0  0.43124  0.86031  0.67224  1.0000
  C   C276      1.0  0.31180  0.89105  0.67210  1.0000
  N   N16       1.0  0.45324  0.76486  0.36849  1.0000
  S   S55       1.0  0.46347  0.48413  0.39494  1.0000
  H   H475      1.0  0.23569  0.97714  0.38359  1.0000
  Fe  Fe25      1.0  0.11360  0.84475  0.69928  1.0000
  S   S56       1.0  0.15024  0.81489  0.71774  1.0000
  N   N17       1.0  0.37512  0.79910  0.68441  1.0000
  Fe  Fe26      1.0  0.18299  0.93762  0.71607  1.0000
  S   S57       1.0  0.22350  0.91303  0.73686  1.0000
  Fe  Fe27      1.0  0.20880  0.87149  0.69808  1.0000
  H   H476      1.0  0.25683  0.89532  0.94100  1.0000
  Fe  Fe28      1.0  0.16111  0.85843  0.75503  1.0000
  S   S58       1.0  0.15653  0.83384  0.80070  1.0000
  C   C277      1.0  0.16385  0.96824  0.92937  1.0000
  S   S59       1.0  0.12190  0.88632  0.73750  1.0000
  Fe  Fe29      1.0  0.03497  0.66451  0.97260  1.0000
  S   S60       1.0  0.00219  0.69526  0.94995  1.0000
  N   N18       1.0  0.07637  0.66930  0.74196  1.0000
  H   H477      1.0  0.13850  0.72133  0.72829  1.0000
  Fe  Fe30      1.0  0.99654  0.65273  0.91324  1.0000
  S   S61       1.0  0.00022  0.67613  0.86733  1.0000
  S   S62       1.0  0.03311  0.62443  0.93486  1.0000
  C   C278      1.0  0.11200  0.79123  0.81939  1.0000
  C   C279      1.0  0.11902  0.77889  0.84631  1.0000
  C   C280      1.0  0.08519  0.74442  0.86151  1.0000
  C   C281      1.0  0.04370  0.72158  0.84991  1.0000
  C   C282      1.0  0.03653  0.73419  0.82311  1.0000
  C   C283      1.0  0.07032  0.76883  0.80799  1.0000
  H   H478      1.0  0.15102  0.79592  0.85542  1.0000
  H   H479      1.0  0.09138  0.73523  0.88204  1.0000
  H   H480      1.0  0.00459  0.71698  0.81400  1.0000
  H   H481      1.0  0.06421  0.77815  0.78747  1.0000
  C   C284      1.0  0.43562  0.85726  0.71711  1.0000
  H   H482      1.0  0.23562  0.97201  0.95234  1.0000
  H   H483      1.0  0.41063  0.83023  0.99628  1.0000
  H   H484      1.0  0.40471  0.76648  0.73204  1.0000
  C   C285      1.0  0.33379  0.91808  0.69500  1.0000
  H   H485      1.0  0.98561  0.70513  0.76287  1.0000
  H   H486      1.0  0.31580  0.92111  0.71242  1.0000
  H   H487      1.0  0.32118  0.67891  0.72543  1.0000
  C   C286      1.0  0.42208  0.83374  0.68799  1.0000
  H   H488      1.0  0.44356  0.82028  0.68328  1.0000
  H   H489      1.0  0.40733  0.49477  0.68963  1.0000
  H   H490      1.0  0.38266  0.96989  0.99952  1.0000
  Fe  Fe31      1.0  0.96899  0.57268  0.95277  1.0000
  C   C287      1.0  0.42356  0.94469  0.98552  1.0000
  H   H491      1.0  0.28755  0.74687  0.69840  1.0000
  H   H492      1.0  0.38098  0.80617  0.96401  1.0000
  C   C288      1.0  0.18812  0.75528  0.77395  1.0000
  H   H493      1.0  0.13393  0.97014  0.92933  1.0000
  H   H494      1.0  0.01143  0.64658  0.78829  1.0000
  H   H495      1.0  0.35019  0.75551  0.73792  1.0000
  H   H496      1.0  0.20640  0.73812  0.77044  1.0000
  H   H497      1.0  0.35417  0.84471  0.69427  1.0000
  H   H498      1.0  0.23700  0.77165  0.71447  1.0000
  H   H499      1.0  0.13861  0.91735  0.96218  1.0000
  H   H500      1.0  0.10517  0.85462  0.92981  1.0000
  H   H501      1.0  0.19795  0.77234  0.79468  1.0000
  H   H502      1.0  0.05870  0.60742  0.82010  1.0000
  H   H503      1.0  0.21240  0.69233  0.99454  1.0000
  H   H504      1.0  0.08473  0.89078  0.92324  1.0000
  C   C289      1.0  0.26107  0.89385  0.96420  1.0000
  H   H505      1.0  0.37487  0.68882  0.71776  1.0000
  C   C290      1.0  0.06953  0.64852  0.71305  1.0000
  C   C291      1.0  0.32914  0.82666  0.99583  1.0000
  H   H506      1.0  0.08370  0.59706  0.72526  1.0000
  H   H507      1.0  0.06881  0.50411  0.99159  1.0000
  H   H508      1.0  0.00564  0.66990  0.70912  1.0000
  H   H509      1.0  0.25091  0.77071  0.98451  1.0000
  H   H510      1.0  0.97650  0.83384  0.74831  1.0000
  C   C292      1.0  0.04092  0.64456  0.79210  1.0000
  C   C293      1.0  0.44787  0.92513  0.99328  1.0000
  H   H511      1.0  0.17742  0.91530  0.93886  1.0000
  H   H512      1.0  0.28183  0.82558  0.71943  1.0000
  S   S63       1.0  0.04585  0.80185  0.68190  1.0000
  H   H513      1.0  0.17321  0.97038  0.90662  1.0000
  H   H514      1.0  0.39606  0.96218  0.71316  1.0000
  H   H515      1.0  0.31526  0.75954  0.99417  1.0000
  C   C294      1.0  0.27203  0.79069  0.71925  1.0000
  H   H516      1.0  0.06884  0.50937  0.95335  1.0000
  H   H517      1.0  0.03451  0.62700  0.70872  1.0000
  H   H518      1.0  0.12644  0.64146  0.70581  1.0000
  S   S64       1.0  0.46019  0.96712  0.67431  1.0000
  H   H519      1.0  0.19642  0.78011  0.75721  1.0000
  H   H520      1.0  0.45322  0.73857  0.71676  1.0000
  H   H521      1.0  0.12360  0.74243  0.77805  1.0000
  C   C295      1.0  0.11385  0.88737  0.92194  1.0000
  H   H522      1.0  0.05866  0.71276  0.76242  1.0000
  C   C296      1.0  0.09092  0.62054  0.70781  1.0000
  H   H523      1.0  0.35339  0.81425  0.72361  1.0000
  H   H524      1.0  0.06511  0.67574  0.80154  1.0000
  C   C297      1.0  0.37078  0.74730  0.72485  1.0000
  H   H525      1.0  0.22939  0.88263  0.97468  1.0000
  H   H526      1.0  0.02830  0.60457  0.75540  1.0000
  C   C298      1.0  0.15035  0.92191  0.93999  1.0000
  C   C299      1.0  0.27776  0.86274  0.97041  1.0000
  C   C300      1.0  0.37927  0.94116  0.69544  1.0000
  H   H527      1.0  0.28448  0.92691  0.97185  1.0000
  H   H528      1.0  0.03950  0.57212  0.68107  1.0000
  H   H529      1.0  0.35841  0.85893  0.99917  1.0000
  C   C301      1.0  0.38276  0.80098  0.98707  1.0000
  H   H530      1.0  0.42461  0.83438  0.73507  1.0000
  H   H531      1.0  0.30862  0.87490  0.95869  1.0000
  C   C302      1.0  0.36787  0.75513  0.69289  1.0000
  H   H532      1.0  0.00427  0.57722  0.80611  1.0000
  H   H533      1.0  0.00685  0.73519  0.73029  1.0000
  H   H534      1.0  0.07518  0.76571  0.97570  1.0000
  C   C303      1.0  0.05685  0.63403  0.76414  1.0000
  H   H535      1.0  0.08026  0.62339  0.76988  1.0000
  H   H536      1.0  0.98885  0.64258  0.74250  1.0000
  H   H537      1.0  0.32264  0.82413  0.97269  1.0000
  C   C304      1.0  0.12448  0.69766  0.74610  1.0000
  C   C305      1.0  0.13960  0.72333  0.77421  1.0000
  S   S65       1.0  0.97387  0.61082  0.99198  1.0000
  C   C306      1.0  0.04821  0.49513  0.97238  1.0000
  H   H538      1.0  0.42155  0.87868  0.71972  1.0000
  C   C307      1.0  0.98760  0.70227  0.73956  1.0000
  H   H539      1.0  0.07407  0.72535  0.72671  1.0000
  C   C308      1.0  0.09994  0.78177  0.99149  1.0000
  H   H540      1.0  0.36060  0.69522  0.75335  1.0000
  C   C309      1.0  0.02962  0.60920  0.81424  1.0000
  H   H541      1.0  0.12409  0.88989  0.89945  1.0000
  H   H542      1.0  0.27774  0.78149  0.74060  1.0000
  C   C310      1.0  0.29720  0.78155  0.69677  1.0000
  C   C311      1.0  0.35596  0.69964  0.73058  1.0000
  H   H543      1.0  0.02684  0.50921  0.97440  1.0000
  C   C312      1.0  0.05611  0.69759  0.74151  1.0000
  H   H544      1.0  0.13318  0.70085  0.79217  1.0000
  C   C313      1.0  0.00806  0.67480  0.73238  1.0000
  H   H545      1.0  0.38852  0.77337  0.98987  1.0000
  H   H546      1.0  0.25391  0.83040  0.96196  1.0000
  S   S66       1.0  0.17101  0.89813  0.67638  1.0000
  H   H547      1.0  0.14064  0.67803  0.74550  1.0000
  C   C314      1.0  0.07486  0.59497  0.68014  1.0000
  H   H548      1.0  0.08174  0.67390  0.69635  1.0000
  C   C315      1.0  0.34654  0.81156  0.70059  1.0000
  C   C316      1.0  0.42941  0.48240  0.68983  1.0000
  H   H549      1.0  0.98274  0.79058  0.73381  1.0000
  H   H550      1.0  0.98223  0.83054  0.71059  1.0000
  C   C317      1.0  0.34108  0.79136  0.00214  1.0000
  H   H551      1.0  0.09126  0.57598  0.67645  1.0000
  H   H552      1.0  0.31088  0.97931  0.68129  1.0000
  H   H553      1.0  0.10527  0.84391  0.98458  1.0000
  C   C318      1.0  0.40312  0.93725  0.67311  1.0000
  H   H554      1.0  0.18872  0.97414  0.98650  1.0000
  C   C319      1.0  0.96806  0.81117  0.73015  1.0000
  H   H555      1.0  0.42179  0.95167  0.96342  1.0000
  H   H556      1.0  0.01719  0.61680  0.83368  1.0000
  C   C320      1.0  0.28519  0.86071  0.00263  1.0000
  S   S67       1.0  0.09380  0.70226  0.00080  1.0000
  C   C321      1.0  0.11738  0.82633  0.99641  1.0000
  H   H557      1.0  0.33608  0.72910  0.68496  1.0000
  H   H558      1.0  0.35189  0.48260  0.89842  1.0000
  H   H559      1.0  0.11973  0.97925  0.97282  1.0000
  H   H560      1.0  0.28710  0.78734  0.67572  1.0000
  H   H561      1.0  0.39200  0.74883  0.68233  1.0000
  C   C322      1.0  0.86469  0.43615  0.33007  1.0000
  S   S68       1.0  0.68279  0.03360  0.28111  1.0000
  C   C323      1.0  0.76020  0.20348  0.28172  1.0000
  C   C324      1.0  0.62780  0.00487  0.06274  1.0000
  H   H562      1.0  0.85848  0.45130  0.17950  1.0000
  H   H563      1.0  0.83486  0.19993  0.21660  1.0000
  H   H564      1.0  0.50076  0.42030  0.26432  1.0000
  Fe  Fe32      1.0  0.80040  0.18933  0.02896  1.0000
  S   S69       1.0  0.82816  0.15734  0.05558  1.0000
  S   S70       1.0  0.86393  0.24052  0.01093  1.0000
  Fe  Fe33      1.0  0.86782  0.28183  0.04811  1.0000
  S   S71       1.0  0.89936  0.25532  0.07721  1.0000
  S   S72       1.0  0.89492  0.35580  0.04798  1.0000
  Fe  Fe34      1.0  0.89245  0.21203  0.04039  1.0000
  Fe  Fe35      1.0  0.83207  0.20281  0.08995  1.0000
  S   S73       1.0  0.80566  0.18371  0.13545  1.0000
  H   H565      1.0  0.93360  0.44849  0.04979  1.0000
  S   S74       1.0  0.80137  0.23292  0.06378  1.0000
  H   H566      1.0  0.88333  0.99718  0.31045  1.0000
  C   C325      1.0  0.92689  0.43911  0.02776  1.0000
  H   H567      1.0  0.57908  0.98685  0.16601  1.0000
  C   C326      1.0  0.77725  0.13252  0.15296  1.0000
  C   C327      1.0  0.75406  0.12917  0.17785  1.0000
  C   C328      1.0  0.73363  0.09045  0.19380  1.0000
  C   C329      1.0  0.73560  0.05408  0.18480  1.0000
  C   C330      1.0  0.75801  0.05709  0.15955  1.0000
  C   C331      1.0  0.77869  0.09597  0.14372  1.0000
  H   H568      1.0  0.75140  0.15667  0.18458  1.0000
  H   H569      1.0  0.71586  0.08853  0.21282  1.0000
  H   H570      1.0  0.75966  0.02918  0.15229  1.0000
  H   H571      1.0  0.79643  0.09793  0.12468  1.0000
  H   H572      1.0  0.79323  0.43476  0.26864  1.0000
  H   H573      1.0  0.95390  0.22948  0.27589  1.0000
  C   C332      1.0  0.68847  0.01285  0.09151  1.0000
  C   C333      1.0  0.90756  0.39490  0.02048  1.0000
  C   C334      1.0  0.61885  0.99023  0.11358  1.0000
  C   C335      1.0  0.93773  0.47136  0.00685  1.0000
  H   H574      1.0  0.70218  0.47359  0.22186  1.0000
  H   H575      1.0  0.58277  0.02916  0.07094  1.0000
  C   C336      1.0  0.74750  0.23008  0.30069  1.0000
  H   H576      1.0  0.59086  0.02893  0.01838  1.0000
  H   H577      1.0  0.69092  0.07969  0.11333  1.0000
  H   H578      1.0  0.83513  0.42110  0.26774  1.0000
  H   H579      1.0  0.64820  0.02640  0.04545  1.0000
  C   C337      1.0  0.94355  0.13094  0.33585  1.0000
  H   H580      1.0  0.49853  0.36875  0.26890  1.0000
  H   H581      1.0  0.95527  0.15149  0.23624  1.0000
  H   H582      1.0  0.70435  0.02123  0.11255  1.0000
  C   C338      1.0  0.63703  0.99650  0.14418  1.0000
  H   H583      1.0  0.72554  0.15457  0.09539  1.0000
  C   C339      1.0  0.51404  0.40283  0.27621  1.0000
  H   H584      1.0  0.74193  0.07473  0.07671  1.0000
  C   C340      1.0  0.94122  0.10481  0.28655  1.0000
  H   H585      1.0  0.77047  0.36344  0.29045  1.0000
  H   H586      1.0  0.70304  0.16675  0.06502  1.0000
  H   H587      1.0  0.91159  0.10253  0.27712  1.0000
  S   S75       1.0  0.70915  0.00370  0.20340  1.0000
  H   H588      1.0  0.94721  0.08161  0.27428  1.0000
  C   C341      1.0  0.80340  0.41319  0.25865  1.0000
  C   C342      1.0  0.80698  0.41903  0.22599  1.0000
  C   C343      1.0  0.80995  0.44320  0.13409  1.0000
  C   C344      1.0  0.82173  0.26065  0.19322  1.0000
  H   H589      1.0  0.69968  0.09689  0.05860  1.0000
  Fe  Fe36      1.0  0.70637  0.00092  0.31072  1.0000
  H   H590      1.0  0.78044  0.42759  0.12074  1.0000
  H   H591      1.0  0.83098  0.47683  0.12632  1.0000
  H   H592      1.0  0.95213  0.23100  0.31416  1.0000
  H   H593      1.0  0.71190  0.21561  0.30052  1.0000
  C   C345      1.0  0.66335  0.06599  0.09814  1.0000
  H   H594      1.0  0.64716  0.09070  0.06003  1.0000
  H   H595      1.0  0.71272  0.03676  0.04853  1.0000
  C   C346      1.0  0.67593  0.09812  0.07293  1.0000
  H   H596      1.0  0.74430  0.99186  0.06245  1.0000
  S   S76       1.0  0.48905  0.47128  0.04903  1.0000
  H   H597      1.0  0.74941  0.20478  0.25995  1.0000
  H   H598      1.0  0.77566  0.40911  0.17134  1.0000
  N   N19       1.0  0.82713  0.20206  0.26202  1.0000
  C   C347      1.0  0.87545  0.22445  0.26559  1.0000
  C   C348      1.0  0.80632  0.15391  0.26705  1.0000
  C   C349      1.0  0.82444  0.13007  0.24909  1.0000
  C   C350      1.0  0.89186  0.21518  0.29368  1.0000
  C   C351      1.0  0.82922  0.25643  0.22464  1.0000
  H   H599      1.0  0.86651  0.07385  0.31692  1.0000
  C   C352      1.0  0.80221  0.08201  0.25669  1.0000
  C   C353      1.0  0.50798  0.40437  0.30856  1.0000
  H   H600      1.0  0.88969  0.26022  0.26464  1.0000
  H   H601      1.0  0.89051  0.21653  0.24762  1.0000
  H   H602      1.0  0.80808  0.14705  0.28988  1.0000
  C   C354      1.0  0.93968  0.45414  0.33093  1.0000
  H   H603      1.0  0.85949  0.14376  0.25257  1.0000
  H   H604      1.0  0.81899  0.13230  0.22616  1.0000
  H   H605      1.0  0.88114  0.22650  0.31223  1.0000
  H   H606      1.0  0.88025  0.18016  0.29642  1.0000
  H   H607      1.0  0.80905  0.26625  0.23689  1.0000
  H   H608      1.0  0.86361  0.27973  0.22919  1.0000
  C   C355      1.0  0.81748  0.20936  0.23207  1.0000
  H   H609      1.0  0.81603  0.06575  0.24387  1.0000
  H   H610      1.0  0.80670  0.07770  0.27949  1.0000
  H   H611      1.0  0.76721  0.06603  0.25194  1.0000
  H   H612      1.0  0.49268  0.00152  0.32716  1.0000
  N   N20       1.0  0.93409  0.09224  0.31761  1.0000
  C   C356      1.0  0.58282  0.00120  0.06065  1.0000
  H   H613      1.0  0.95390  0.04447  0.31198  1.0000
  H   H614      1.0  0.82953  0.29431  0.18853  1.0000
  C   C357      1.0  0.75889  0.02591  0.06989  1.0000
  H   H615      1.0  0.64558  0.07543  0.33241  1.0000
  H   H616      1.0  0.78069  0.34386  0.25778  1.0000
  H   H617      1.0  0.78754  0.23825  0.18737  1.0000
  H   H618      1.0  0.77116  0.13756  0.26232  1.0000
  H   H619      1.0  0.57714  0.40765  0.27940  1.0000
  S   S77       1.0  0.76678  0.04029  0.33715  1.0000
  H   H620      1.0  0.82697  0.25687  0.28189  1.0000
  H   H621      1.0  0.63699  0.06775  0.10950  1.0000
  H   H622      1.0  0.87789  0.02483  0.28024  1.0000
  H   H623      1.0  0.52118  0.38506  0.31827  1.0000
  H   H624      1.0  0.81566  0.21407  0.30510  1.0000
  S   S78       1.0  0.56635  0.99840  0.30623  1.0000
  H   H625      1.0  0.74213  0.16932  0.28911  1.0000
  H   H626      1.0  0.53009  0.43816  0.31584  1.0000
  H   H627      1.0  0.56556  0.42236  0.24535  1.0000
  H   H628      1.0  0.95328  0.12094  0.09375  1.0000
  H   H629      1.0  0.77293  0.02895  0.09132  1.0000
  C   C358      1.0  0.75719  0.46356  0.22298  1.0000
  H   H630      1.0  0.67212  0.14815  0.09732  1.0000
  N   N21       1.0  0.65002  0.01949  0.09114  1.0000
  C   C359      1.0  0.79737  0.44328  0.16509  1.0000
  C   C360      1.0  0.72512  0.04010  0.07032  1.0000
  H   H631      1.0  0.82341  0.40153  0.21802  1.0000
  C   C361      1.0  0.82061  0.98946  0.30492  1.0000
  H   H632      1.0  0.80520  0.00682  0.29542  1.0000
  Fe  Fe37      1.0  0.61664  0.98041  0.29434  1.0000
  H   H633      1.0  0.77398  0.40070  0.21715  1.0000
  C   C362      1.0  0.94111  0.23900  0.29426  1.0000
  H   H634      1.0  0.82708  0.42464  0.13157  1.0000
  H   H635      1.0  0.76250  0.26397  0.29291  1.0000
  S   S79       1.0  0.94146  0.19678  0.02081  1.0000
  H   H636      1.0  0.65550  0.03128  0.15011  1.0000
  H   H637      1.0  0.73820  0.35738  0.25967  1.0000
  H   H638      1.0  0.74546  0.44612  0.24342  1.0000
  H   H639      1.0  0.74355  0.43901  0.20598  1.0000
  H   H640      1.0  0.84286  0.25325  0.17992  1.0000
  C   C363      1.0  0.80948  0.22085  0.28324  1.0000
  H   H641      1.0  0.92261  0.14425  0.32922  1.0000
  H   H642      1.0  0.75798  0.23046  0.32288  1.0000
  H   H643      1.0  0.94535  0.07242  0.07647  1.0000
  H   H644      1.0  0.77956  0.46130  0.16590  1.0000
  H   H645      1.0  0.78528  0.04693  0.05506  1.0000
  C   C364      1.0  0.86966  0.01728  0.30296  1.0000
  C   C365      1.0  0.56192  0.42428  0.26861  1.0000
  H   H646      1.0  0.78277  0.18774  0.22715  1.0000
  C   C366      1.0  0.77114  0.36650  0.26700  1.0000
  H   H647      1.0  0.88996  0.46737  0.22788  1.0000
  C   C367      1.0  0.69529  0.14470  0.08345  1.0000
  H   H648      1.0  0.72138  0.08864  0.33538  1.0000
  H   H649      1.0  0.57909  0.45903  0.27486  1.0000
  C   C368      1.0  0.88685  0.05893  0.32136  1.0000
  H   H650      1.0  0.81002  0.98147  0.32733  1.0000
  H   H651      1.0  0.53574  0.99465  0.02918  1.0000
  H   H652      1.0  0.65861  0.98263  0.14608  1.0000
  Fe  Fe38      1.0  0.68024  0.98662  0.24835  1.0000
  H   H653      1.0  0.95447  0.27460  0.29349  1.0000
  H   H654      1.0  0.59047  0.99499  0.11482  1.0000
  C   C369      1.0  0.56855  0.99868  0.02986  1.0000
  C   C370      1.0  0.89594  0.42410  0.33492  1.0000
  H   H655      1.0  0.83094  0.41268  0.33331  1.0000
  C   C371      1.0  0.96034  0.07178  0.32638  1.0000
  C   C372      1.0  0.87685  0.47836  0.32139  1.0000
  C   C373      1.0  0.83789  0.46585  0.18416  1.0000
  N   N22       1.0  0.83057  0.46540  0.21574  1.0000
  H   H656      1.0  0.49952  0.47616  0.30269  1.0000
  H   H657      1.0  0.87854  0.42432  0.41504  1.0000
  S   S80       1.0  0.90279  0.35293  0.39248  1.0000
  C   C374      1.0  0.83593  0.34323  0.59396  1.0000
  H   H658      1.0  0.49079  0.44697  0.58700  1.0000
  Fe  Fe39      1.0  0.89288  0.28766  0.37913  1.0000
  H   H659      1.0  0.84714  0.11106  0.35702  1.0000
  H   H660      1.0  0.91267  0.20434  0.58568  1.0000
  H   H661      1.0  0.91033  0.41718  0.57972  1.0000
  H   H662      1.0  0.74452  0.16482  0.34795  1.0000
  H   H663      1.0  0.53412  0.99555  0.42192  1.0000
  S   S81       1.0  0.66824  0.04424  0.62408  1.0000
  S   S82       1.0  0.54294  0.00402  0.60761  1.0000
  H   H664      1.0  0.51657  0.38776  0.36504  1.0000
  C   C375      1.0  0.63807  0.09494  0.34728  1.0000
  C   C376      1.0  0.70944  0.06740  0.65078  1.0000
  C   C377      1.0  0.75144  0.10001  0.64305  1.0000
  C   C378      1.0  0.89447  0.14459  0.60831  1.0000
  H   H665      1.0  0.75778  0.11080  0.62126  1.0000
  H   H666      1.0  0.90095  0.03028  0.65531  1.0000
  C   C379      1.0  0.62249  0.98598  0.40697  1.0000
  H   H667      1.0  0.66090  0.45712  0.63404  1.0000
  H   H668      1.0  0.49213  0.37209  0.41498  1.0000
  C   C380      1.0  0.91379  0.12587  0.62979  1.0000
  H   H669      1.0  0.77015  0.38326  0.57012  1.0000
  H   H670      1.0  0.67732  0.02713  0.37951  1.0000
  C   C381      1.0  0.89106  0.44977  0.51679  1.0000
  H   H671      1.0  0.95009  0.05666  0.34769  1.0000
  H   H672      1.0  0.58095  0.00270  0.47088  1.0000
  H   H673      1.0  0.83354  0.34982  0.61680  1.0000
  C   C382      1.0  0.93012  0.45435  0.52625  1.0000
  N   N23       1.0  0.88897  0.07723  0.63375  1.0000
  H   H674      1.0  0.76032  0.45890  0.50067  1.0000
  C   C383      1.0  0.60563  0.45182  0.67233  1.0000
  C   C384      1.0  0.52704  0.38507  0.64281  1.0000
  C   C385      1.0  0.80944  0.18170  0.35894  1.0000
  C   C386      1.0  0.64422  0.47437  0.59410  1.0000
  C   C387      1.0  0.67157  0.01348  0.40126  1.0000
  H   H675      1.0  0.95616  0.19342  0.59047  1.0000
  H   H676      1.0  0.89275  0.01409  0.55790  1.0000
  C   C388      1.0  0.87249  0.42561  0.49192  1.0000
  C   C389      1.0  0.89206  0.40541  0.47715  1.0000
  C   C390      1.0  0.93062  0.40914  0.48700  1.0000
  H   H677      1.0  0.73448  0.47317  0.35864  1.0000
  H   H678      1.0  0.95845  0.11008  0.37628  1.0000
  H   H679      1.0  0.87672  0.38594  0.45858  1.0000
  C   C391      1.0  0.48105  0.38957  0.40099  1.0000
  H   H680      1.0  0.51137  0.40484  0.64554  1.0000
  C   C392      1.0  0.63688  0.07997  0.37777  1.0000
  H   H681      1.0  0.66890  0.08407  0.38265  1.0000
  S   S83       1.0  0.93252  0.28453  0.41505  1.0000
  H   H682      1.0  0.87093  0.18807  0.36850  1.0000
  H   H683      1.0  0.94549  0.47380  0.54481  1.0000
  C   C393      1.0  0.85753  0.29280  0.51351  1.0000
  N   N24       1.0  0.87968  0.34825  0.58808  1.0000
  C   C394      1.0  0.84798  0.27535  0.61641  1.0000
  H   H684      1.0  0.83428  0.25993  0.50545  1.0000
  H   H685      1.0  0.90393  0.09986  0.37395  1.0000
  C   C395      1.0  0.88488  0.33978  0.55740  1.0000
  C   C396      1.0  0.88769  0.31916  0.60746  1.0000
  C   C397      1.0  0.63522  0.06111  0.48563  1.0000
  S   S84       1.0  0.81431  0.46799  0.60912  1.0000
  H   H686      1.0  0.92151  0.47622  0.42735  1.0000
  H   H687      1.0  0.63189  0.10211  0.39184  1.0000
  Fe  Fe40      1.0  0.94699  0.35252  0.42587  1.0000
  H   H688      1.0  0.48697  0.43537  0.35335  1.0000
  C   C398      1.0  0.85159  0.29488  0.54547  1.0000
  H   H689      1.0  0.81802  0.28755  0.54900  1.0000
  H   H690      1.0  0.91438  0.01648  0.60848  1.0000
  H   H691      1.0  0.88445  0.12611  0.58819  1.0000
  H   H692      1.0  0.85160  0.31667  0.50226  1.0000
  C   C399      1.0  0.91532  0.06580  0.65316  1.0000
  H   H693      1.0  0.75456  0.32733  0.57593  1.0000
  C   C400      1.0  0.92731  0.19150  0.60073  1.0000
  H   H694      1.0  0.82765  0.25705  0.59814  1.0000
  C   C401      1.0  0.77753  0.36121  0.58241  1.0000
  C   C402      1.0  0.49720  0.34558  0.62479  1.0000
  C   C403      1.0  0.94953  0.43391  0.51160  1.0000
  H   H695      1.0  0.84971  0.45918  0.38472  1.0000
  H   H696      1.0  0.86577  0.14412  0.61767  1.0000
  H   H697      1.0  0.90195  0.33595  0.62790  1.0000
  H   H698      1.0  0.56638  0.41390  0.60600  1.0000
  H   H699      1.0  0.80969  0.30946  0.59043  1.0000
  H   H700      1.0  0.89075  0.29977  0.50855  1.0000
  H   H701      1.0  0.64953  0.06861  0.42982  1.0000
  C   C404      1.0  0.83839  0.16641  0.36131  1.0000
  C   C405      1.0  0.81593  0.01623  0.65312  1.0000
  H   H702      1.0  0.82690  0.07368  0.63162  1.0000
  C   C406      1.0  0.59961  0.03259  0.38208  1.0000
  H   H703      1.0  0.91697  0.34287  0.55378  1.0000
  H   H704      1.0  0.91223  0.31238  0.59800  1.0000
  H   H705      1.0  0.84502  0.40710  0.58231  1.0000
  Fe  Fe41      1.0  0.59584  0.99108  0.62228  1.0000
  C   C407      1.0  0.86177  0.24637  0.63149  1.0000
  C   C408      1.0  0.69300  0.98573  0.40295  1.0000
  H   H706      1.0  0.72790  0.00604  0.39794  1.0000
  C   C409      1.0  0.88388  0.05646  0.60486  1.0000
  S   S85       1.0  0.94726  0.31468  0.34746  1.0000
  H   H707      1.0  0.84230  0.42177  0.48434  1.0000
  C   C410      1.0  0.82398  0.37255  0.57652  1.0000
  H   H708      1.0  0.82056  0.44669  0.43193  1.0000
  H   H709      1.0  0.85451  0.05267  0.59408  1.0000
  H   H710      1.0  0.83279  0.21668  0.63931  1.0000
  H   H711      1.0  0.66970  0.08354  0.48047  1.0000
  H   H712      1.0  0.61782  0.07957  0.48649  1.0000
  H   H713      1.0  0.59709  0.06042  0.43482  1.0000
  H   H714      1.0  0.77837  0.46078  0.39708  1.0000
  H   H715      1.0  0.91145  0.07798  0.59078  1.0000
  H   H716      1.0  0.77310  0.36523  0.60532  1.0000
  H   H717      1.0  0.85631  0.26938  0.55539  1.0000
  H   H718      1.0  0.63291  0.44088  0.58644  1.0000
  H   H719      1.0  0.76987  0.46665  0.44840  1.0000
  H   H720      1.0  0.82762  0.28138  0.63143  1.0000
  H   H721      1.0  0.63255  0.00687  0.46420  1.0000
  C   C411      1.0  0.91310  0.39469  0.59463  1.0000
  H   H722      1.0  0.83251  0.00348  0.66643  1.0000
  H   H723      1.0  0.82679  0.36878  0.55342  1.0000
  C   C412      1.0  0.61566  0.04302  0.43371  1.0000
  C   C413      1.0  0.57226  0.41193  0.62896  1.0000
  H   H724      1.0  0.91646  0.14289  0.65005  1.0000
  H   H725      1.0  0.56958  0.03433  0.37937  1.0000
  C   C414      1.0  0.93794  0.12292  0.36831  1.0000
  C   C415      1.0  0.78531  0.11876  0.66316  1.0000
  H   H726      1.0  0.58855  0.39231  0.63042  1.0000
  S   S86       1.0  0.86448  0.47390  0.53489  1.0000
  H   H727      1.0  0.93773  0.21222  0.61997  1.0000
  H   H728      1.0  0.50276  0.42496  0.40419  1.0000
  H   H729      1.0  0.90713  0.40370  0.61605  1.0000
  H   H730      1.0  0.59999  0.01294  0.36380  1.0000
  H   H731      1.0  0.88481  0.36497  0.54361  1.0000
  C   C416      1.0  0.82492  0.12292  0.35468  1.0000
  C   C417      1.0  0.96103  0.40608  0.59337  1.0000
  C   C418      1.0  0.84556  0.06490  0.64632  1.0000
  S   S87       1.0  0.83796  0.40584  0.66629  1.0000
  H   H732      1.0  0.88283  0.26349  0.64987  1.0000
  C   C419      1.0  0.78275  0.09471  0.34516  1.0000
  H   H733      1.0  0.63336  0.04705  0.50695  1.0000
  H   H734      1.0  0.87946  0.23667  0.61667  1.0000
  H   H735      1.0  0.91959  0.46063  0.39085  1.0000
  H   H736      1.0  0.81724  0.14352  0.65674  1.0000
  H   H737      1.0  0.51153  0.32460  0.62143  1.0000
  C   C420      1.0  0.89965  0.45893  0.40934  1.0000
  H   H738      1.0  0.75669  0.01902  0.65623  1.0000
  H   H739      1.0  0.49095  0.35584  0.60396  1.0000
  N   N25       1.0  0.60093  0.45685  0.64096  1.0000
  C   C421      1.0  0.88204  0.01202  0.60357  1.0000
  H   H740      1.0  0.80494  0.99738  0.63313  1.0000
  C   C422      1.0  0.76717  0.15332  0.34965  1.0000
  S   S88       1.0  0.82499  0.23627  0.36620  1.0000
  C   C423      1.0  0.61457  0.02468  0.46374  1.0000
  N   N26       1.0  0.59844  0.01047  0.40976  1.0000
  H   H741      1.0  0.94767  0.13665  0.62327  1.0000
  H   H742      1.0  0.68804  0.04013  0.41679  1.0000
  H   H743      1.0  0.96730  0.38517  0.60766  1.0000
  H   H744      1.0  0.94798  0.07766  0.64381  1.0000
  C   C424      1.0  0.64463  0.47521  0.62701  1.0000
  C   C425      1.0  0.48250  0.37746  0.37007  1.0000
  H   H745      1.0  0.93317  0.18078  0.37645  1.0000
  Fe  Fe42      1.0  0.85968  0.46868  0.64228  1.0000
  H   H746      1.0  0.94404  0.15810  0.40728  1.0000
  H   H747      1.0  0.93170  0.45085  0.66736  1.0000
  C   C426      1.0  0.95109  0.16500  0.38435  1.0000
  H   H748      1.0  0.56031  0.47327  0.61585  1.0000
  H   H749      1.0  0.87968  0.04737  0.34363  1.0000
  H   H750      1.0  0.52973  0.37286  0.66391  1.0000
  Fe  Fe43      1.0  0.96023  0.37966  0.36370  1.0000
  S   S89       1.0  0.95508  0.38158  0.47062  1.0000
  H   H751      1.0  0.84944  0.08415  0.66585  1.0000
  H   H752      1.0  0.55620  0.47825  0.65277  1.0000
  H   H753      1.0  0.88613  0.39148  0.34163  1.0000
  C   C427      1.0  0.75398  0.11015  0.34250  1.0000
  C   C428      1.0  0.86944  0.99201  0.57400  1.0000
  C   C429      1.0  0.77550  0.00822  0.66909  1.0000
  H   H754      1.0  0.85863  0.98837  0.61883  1.0000
  C   C430      1.0  0.87231  0.47931  0.40174  1.0000
  H   H755      1.0  0.83650  0.98528  0.56845  1.0000
  H   H756      1.0  0.60652  0.09153  0.34131  1.0000
  H   H757      1.0  0.66343  0.12950  0.34509  1.0000
  C   C431      1.0  0.88885  0.33081  0.68875  1.0000
  H   H758      1.0  0.65583  0.00733  0.84942  1.0000
  C   C432      1.0  0.83166  0.27291  0.77642  1.0000
  C   C433      1.0  0.73858  0.03635  0.99177  1.0000
  Fe  Fe44      1.0  0.89128  0.18050  0.71907  1.0000
  S   S90       1.0  0.81989  0.12573  0.71762  1.0000
  S   S91       1.0  0.91411  0.23797  0.74866  1.0000
  H   H759      1.0  0.60925  0.46472  0.73068  1.0000
  C   C434      1.0  0.91040  0.41568  0.97090  1.0000
  H   H760      1.0  0.86878  0.40866  0.85038  1.0000
  H   H761      1.0  0.90392  0.40629  0.94886  1.0000
  C   C435      1.0  0.77786  0.10508  0.69144  1.0000
  C   C436      1.0  0.73585  0.07266  0.69923  1.0000
  C   C437      1.0  0.58758  0.01776  0.91592  1.0000
  H   H762      1.0  0.72949  0.06167  0.72097  1.0000
  H   H763      1.0  0.73310  0.99931  0.88530  1.0000
  H   H764      1.0  0.60392  0.98194  0.88686  1.0000
  H   H765      1.0  0.84716  0.36169  0.80769  1.0000
  H   H766      1.0  0.78428  0.02573  0.68967  1.0000
  C   C438      1.0  0.66578  0.02170  0.98390  1.0000
  H   H767      1.0  0.85299  0.31619  0.74018  1.0000
  H   H768      1.0  0.69475  0.05530  0.79743  1.0000
  H   H769      1.0  0.78556  0.20517  0.76803  1.0000
  C   C439      1.0  0.79835  0.12247  0.92751  1.0000
  H   H770      1.0  0.72872  0.03335  0.78805  1.0000
  C   C440      1.0  0.95025  0.07115  0.70088  1.0000
  S   S92       1.0  0.94364  0.16754  0.73434  1.0000
  C   C441      1.0  0.61749  0.01606  0.89339  1.0000
  H   H771      1.0  0.85799  0.26548  0.77895  1.0000
  C   C442      1.0  0.92146  0.08320  0.68393  1.0000
  C   C443      1.0  0.89929  0.38341  0.99185  1.0000
  H   H772      1.0  0.89414  0.29882  0.95512  1.0000
  H   H773      1.0  0.89717  0.45370  0.72096  1.0000
  H   H774      1.0  0.80847  0.12575  0.95005  1.0000
  H   H775      1.0  0.61657  0.03469  0.87482  1.0000
  H   H776      1.0  0.83802  0.38549  0.74230  1.0000
  H   H777      1.0  0.73040  0.01302  0.83794  1.0000
  H   H778      1.0  0.63255  0.99949  0.97826  1.0000
  N   N27       1.0  0.88778  0.35550  0.77619  1.0000
  C   C444      1.0  0.70154  0.99471  0.89270  1.0000
  H   H779      1.0  0.73171  0.08123  0.93765  1.0000
  C   C445      1.0  0.69559  0.00730  0.98433  1.0000
  C   C446      1.0  0.75575  0.08009  0.92345  1.0000
  H   H780      1.0  0.82414  0.12293  0.91417  1.0000
  N   N28       1.0  0.69777  0.03412  0.88590  1.0000
  C   C447      1.0  0.68754  0.03575  0.85507  1.0000
  C   C448      1.0  0.66431  0.03601  0.90475  1.0000
  C   C449      1.0  0.74087  0.07395  0.89205  1.0000
  H   H781      1.0  0.81994  0.32405  0.76462  1.0000
  C   C450      1.0  0.91324  0.28674  0.94379  1.0000
  C   C451      1.0  0.72119  0.03781  0.83340  1.0000
  H   H782      1.0  0.81050  0.23666  0.73675  1.0000
  H   H783      1.0  0.93717  0.11887  0.68429  1.0000
  C   C452      1.0  0.84771  0.31838  0.76317  1.0000
  C   C453      1.0  0.85987  0.34519  0.68179  1.0000
  C   C454      1.0  0.70361  0.03054  0.80315  1.0000
  H   H784      1.0  0.59822  0.05185  0.92179  1.0000
  H   H785      1.0  0.68405  0.06468  0.85119  1.0000
  H   H786      1.0  0.92232  0.42998  0.86450  1.0000
  H   H787      1.0  0.66255  0.02083  0.92566  1.0000
  H   H788      1.0  0.67399  0.07030  0.90974  1.0000
  H   H789      1.0  0.74040  0.10370  0.88535  1.0000
  H   H790      1.0  0.76709  0.07353  0.87966  1.0000
  H   H791      1.0  0.95306  0.08292  0.72301  1.0000
  C   C455      1.0  0.87515  0.38852  0.67402  1.0000
  H   H792      1.0  0.91652  0.29644  0.92116  1.0000
  C   C456      1.0  0.92963  0.45989  0.97819  1.0000
  H   H793      1.0  0.75079  0.07026  0.83394  1.0000
  C   C457      1.0  0.91279  0.39883  0.82343  1.0000
  H   H794      1.0  0.96307  0.36555  0.96762  1.0000
  H   H795      1.0  0.79451  0.15065  0.92208  1.0000
  C   C458      1.0  0.89981  0.39554  0.75880  1.0000
  H   H796      1.0  0.76068  0.05316  0.93040  1.0000
  C   C459      1.0  0.94848  0.40310  0.68041  1.0000
  C   C460      1.0  0.93326  0.35992  0.68843  1.0000
  H   H797      1.0  0.65812  0.46509  0.71998  1.0000
  S   S93       1.0  0.93015  0.22074  0.68200  1.0000
  H   H798      1.0  0.88411  0.34964  0.98590  1.0000
  H   H799      1.0  0.89536  0.25078  0.94496  1.0000
  C   C461      1.0  0.87738  0.36015  0.80653  1.0000
  C   C462      1.0  0.92342  0.34437  0.77468  1.0000
  H   H800      1.0  0.87683  0.29746  0.69489  1.0000
  H   H801      1.0  0.76910  0.24228  0.75513  1.0000
  H   H802      1.0  0.67484  0.99773  0.80093  1.0000
  H   H803      1.0  0.92937  0.42406  0.76705  1.0000
  H   H804      1.0  0.87027  0.33068  0.81883  1.0000
  C   C463      1.0  0.95761  0.30447  0.95746  1.0000
  C   C464      1.0  0.79706  0.23723  0.75790  1.0000
  H   H805      1.0  0.70192  0.99054  0.91607  1.0000
  H   H806      1.0  0.66994  0.02930  0.68557  1.0000
  Fe  Fe45      1.0  0.95558  0.27714  0.71210  1.0000
  H   H807      1.0  0.81726  0.27094  0.79760  1.0000
  H   H808      1.0  0.85726  0.46125  0.73905  1.0000
  H   H809      1.0  0.49336  0.45303  0.98811  1.0000
  H   H810      1.0  0.89002  0.06941  0.69511  1.0000
  H   H811      1.0  0.92153  0.32402  0.79313  1.0000
  C   C465      1.0  0.48537  0.44955  0.69161  1.0000
  H   H812      1.0  0.55413  0.00252  0.90757  1.0000
  H   H813      1.0  0.82548  0.32270  0.68248  1.0000
  H   H814      1.0  0.76181  0.02542  0.99211  1.0000
  C   C466      1.0  0.70192  0.05405  0.67915  1.0000
  H   H815      1.0  0.57376  0.43682  0.68309  1.0000
  H   H816      1.0  0.85176  0.41055  0.77692  1.0000
  H   H817      1.0  0.91924  0.32422  0.75554  1.0000
  H   H818      1.0  0.94056  0.39387  0.82715  1.0000
  C   C467      1.0  0.86490  0.40890  0.75598  1.0000
  H   H819      1.0  0.90835  0.39092  0.73689  1.0000
  C   C468      1.0  0.89613  0.40251  0.85257  1.0000
  H   H820      1.0  0.88542  0.37239  0.86504  1.0000
  C   C469      1.0  0.67933  0.06533  0.99003  1.0000
  H   H821      1.0  0.58712  0.99987  0.93528  1.0000
  H   H822      1.0  0.50682  0.43658  0.69302  1.0000
  C   C470      1.0  0.72235  0.09439  0.99748  1.0000
  H   H823      1.0  0.95247  0.29267  0.97967  1.0000
  H   H824      1.0  0.65646  0.07668  0.98900  1.0000
  H   H825      1.0  0.92385  0.43005  0.81239  1.0000
  C   C471      1.0  0.75186  0.07966  0.99857  1.0000
  C   C472      1.0  0.88336  0.45345  0.74209  1.0000
  H   H826      1.0  0.93630  0.03545  0.70140  1.0000
  H   H827      1.0  0.61830  0.42928  0.67574  1.0000
  S   S94       1.0  0.73860  0.14912  0.00425  1.0000
  C   C473      1.0  0.91959  0.41736  0.67319  1.0000
  H   H828      1.0  0.78516  0.10186  0.00400  1.0000
  H   H829      1.0  0.90882  0.47892  0.75561  1.0000
  Fe  Fe46      1.0  0.85026  0.55960  0.30508  1.0000
  H   H830      1.0  0.68629  0.80511  0.04867  1.0000
  H   H831      1.0  0.63145  0.71180  0.16212  1.0000
  Fe  Fe47      1.0  0.84270  0.61344  0.25753  1.0000
  S   S95       1.0  0.86160  0.67033  0.28691  1.0000
  S   S96       1.0  0.82664  0.60724  0.20976  1.0000
  Fe  Fe48      1.0  0.91263  0.65744  0.30540  1.0000
  Fe  Fe49      1.0  0.81563  0.62035  0.31782  1.0000
  H   H832      1.0  0.86025  0.57475  0.04179  1.0000
  S   S97       1.0  0.89805  0.60488  0.27311  1.0000
  S   S98       1.0  0.79444  0.56465  0.28775  1.0000
  Fe  Fe50      1.0  0.63183  0.61243  0.04331  1.0000
  H   H833      1.0  0.95274  0.50511  0.01288  1.0000
  S   S99       1.0  0.65033  0.67957  0.02733  1.0000
  Fe  Fe51      1.0  0.63815  0.56475  0.09601  1.0000
  H   H834      1.0  0.96479  0.53442  0.23521  1.0000
  S   S100      1.0  0.65636  0.57708  0.14348  1.0000
  Fe  Fe52      1.0  0.65669  0.54315  0.03704  1.0000
  H   H835      1.0  0.87080  0.49092  0.25316  1.0000
  Fe  Fe53      1.0  0.56314  0.51705  0.05133  1.0000
  H   H836      1.0  0.52423  0.90440  0.30336  1.0000
  S   S101      1.0  0.68530  0.60477  0.06213  1.0000
  S   S102      1.0  0.58614  0.57680  0.07873  1.0000
  Fe  Fe54      1.0  0.63889  0.90862  0.29112  1.0000
  S   S103      1.0  0.61158  0.93566  0.25910  1.0000
  S   S104      1.0  0.60961  0.83428  0.29144  1.0000
  C   C474      1.0  0.64659  0.77754  0.08647  1.0000
  C   C475      1.0  0.51351  0.95682  0.31439  1.0000
  C   C476      1.0  0.68707  0.77423  0.15705  1.0000
  H   H837      1.0  0.60119  0.67359  0.08625  1.0000
  C   C477      1.0  0.64425  0.73685  0.14520  1.0000
  H   H838      1.0  0.58937  0.60944  0.32757  1.0000
  H   H839      1.0  0.56754  0.97060  0.01888  1.0000
  H   H840      1.0  0.92995  0.54059  0.30987  1.0000
  C   C478      1.0  0.87199  0.57409  0.06351  1.0000
  H   H841      1.0  0.73212  0.68079  0.14953  1.0000
  H   H842      1.0  0.46812  0.90134  0.02844  1.0000
  H   H843      1.0  0.93742  0.65556  0.11055  1.0000
  H   H844      1.0  0.87617  0.65690  0.05138  1.0000
  C   C479      1.0  0.47992  0.78554  0.28748  1.0000
  H   H845      1.0  0.88928  0.67230  0.08748  1.0000
  C   C480      1.0  0.94844  0.55381  0.23703  1.0000
  C   C481      1.0  0.87440  0.64366  0.07308  1.0000
  H   H846      1.0  0.74824  0.61551  0.01723  1.0000
  C   C482      1.0  0.70370  0.58471  0.16160  1.0000
  C   C483      1.0  0.73702  0.58240  0.14767  1.0000
  C   C484      1.0  0.77405  0.58929  0.16275  1.0000
  C   C485      1.0  0.77862  0.59856  0.19201  1.0000
  C   C486      1.0  0.74507  0.60036  0.20605  1.0000
  C   C487      1.0  0.70804  0.59361  0.19094  1.0000
  H   H847      1.0  0.73404  0.57494  0.12528  1.0000
  H   H848      1.0  0.79908  0.58685  0.15170  1.0000
  H   H849      1.0  0.74768  0.60713  0.22854  1.0000
  H   H850      1.0  0.68250  0.59526  0.20208  1.0000
  C   C488      1.0  0.86218  0.50049  0.05102  1.0000
  H   H851      1.0  0.50937  0.67277  0.03285  1.0000
  C   C489      1.0  0.61373  0.69856  0.02223  1.0000
  C   C490      1.0  0.57051  0.67460  0.03060  1.0000
  H   H852      1.0  0.80936  0.95873  0.29305  1.0000
  H   H853      1.0  0.55849  0.64328  0.04050  1.0000
  H   H854      1.0  0.62318  0.97242  0.05708  1.0000
  S   S105      1.0  0.83634  0.49201  0.31621  1.0000
  H   H855      1.0  0.89322  0.55516  0.21993  1.0000
  H   H856      1.0  0.51017  0.63851  0.11560  1.0000
  H   H857      1.0  0.77091  0.62681  0.08649  1.0000
  C   C491      1.0  0.82524  0.61710  0.07955  1.0000
  C   C492      1.0  0.68019  0.79108  0.27650  1.0000
  H   H858      1.0  0.92200  0.55996  0.04805  1.0000
  H   H859      1.0  0.77351  0.70580  0.12286  1.0000
  C   C493      1.0  0.64916  0.53650  0.33341  1.0000
  C   C494      1.0  0.80626  0.64677  0.08327  1.0000
  H   H860      1.0  0.69826  0.79009  0.25765  1.0000
  C   C495      1.0  0.73813  0.68782  0.12652  1.0000
  H   H861      1.0  0.73533  0.74632  0.12733  1.0000
  H   H862      1.0  0.84236  0.55577  0.07642  1.0000
  C   C496      1.0  0.59143  0.79314  0.31805  1.0000
  C   C497      1.0  0.50129  0.91315  0.31136  1.0000
  H   H863      1.0  0.66158  0.67498  0.14217  1.0000
  H   H864      1.0  0.53229  0.58135  0.00669  1.0000
  C   C498      1.0  0.80744  0.48995  0.22287  1.0000
  S   S106      1.0  0.60718  0.55405  0.01495  1.0000
  C   C499      1.0  0.66835  0.75076  0.09446  1.0000
  S   S107      1.0  0.61128  0.50178  0.07181  1.0000
  H   H865      1.0  0.85220  0.50246  0.02902  1.0000
  C   C500      1.0  0.71850  0.71480  0.11628  1.0000
  N   N29       1.0  0.89958  0.61997  0.07415  1.0000
  H   H866      1.0  0.66902  0.77066  0.31989  1.0000
  C   C501      1.0  0.91692  0.62145  0.10349  1.0000
  C   C502      1.0  0.88315  0.59917  0.12724  1.0000
  C   C503      1.0  0.57299  0.64733  0.12731  1.0000
  H   H867      1.0  0.94754  0.70929  0.05446  1.0000
  C   C504      1.0  0.90427  0.59653  0.15469  1.0000
  C   C505      1.0  0.66884  0.69080  0.12095  1.0000
  H   H868      1.0  0.72416  0.65676  0.11472  1.0000
  H   H869      1.0  0.92653  0.63654  0.03198  1.0000
  H   H870      1.0  0.91971  0.57649  0.15163  1.0000
  C   C506      1.0  0.89362  0.54578  0.06236  1.0000
  C   C507      1.0  0.57069  0.74928  0.30963  1.0000
  H   H871      1.0  0.85815  0.56573  0.12147  1.0000
  H   H872      1.0  0.86780  0.61884  0.13192  1.0000
  H   H873      1.0  0.80808  0.59481  0.06162  1.0000
  H   H874      1.0  0.80426  0.75671  0.29436  1.0000
  H   H875      1.0  0.54308  0.55696  0.29194  1.0000
  H   H876      1.0  0.72573  0.72099  0.09327  1.0000
  H   H877      1.0  0.82046  0.66795  0.10211  1.0000
  H   H878      1.0  0.70852  0.76173  0.16353  1.0000
  H   H879      1.0  0.90389  0.54190  0.08380  1.0000
  H   H880      1.0  0.63243  0.50820  0.32003  1.0000
  H   H881      1.0  0.91750  0.53251  0.19714  1.0000
  S   S108      1.0  0.70720  0.95598  0.27750  1.0000
  C   C508      1.0  0.55786  0.73195  0.01328  1.0000
  H   H882      1.0  0.96731  0.60393  0.33655  1.0000
  H   H883      1.0  0.50892  0.59043  0.12877  1.0000
  H   H884      1.0  0.64578  0.77766  0.27069  1.0000
  C   C509      1.0  0.95183  0.49618  0.32168  1.0000
  C   C510      1.0  0.64834  0.64312  0.30174  1.0000
  C   C511      1.0  0.66216  0.71667  0.29400  1.0000
  C   C512      1.0  0.60080  0.68661  0.10768  1.0000
  C   C513      1.0  0.73993  0.70229  0.28548  1.0000
  C   C514      1.0  0.59846  0.61769  0.30500  1.0000
  C   C515      1.0  0.54275  0.69136  0.02624  1.0000
  H   H885      1.0  0.58747  0.62632  0.12959  1.0000
  H   H886      1.0  0.62709  0.70547  0.29401  1.0000
  C   C516      1.0  0.78871  0.72194  0.28842  1.0000
  C   C517      1.0  0.57846  0.57512  0.28843  1.0000
  N   N30       1.0  0.64647  0.71708  0.11737  1.0000
  H   H887      1.0  0.70235  0.77409  0.09994  1.0000
  S   S109      1.0  0.64044  0.95134  0.32690  1.0000
  C   C518      1.0  0.68462  0.76561  0.30103  1.0000
  H   H888      1.0  0.66039  0.62316  0.31212  1.0000
  H   H889      1.0  0.65538  0.64314  0.27874  1.0000
  H   H890      1.0  0.66947  0.71288  0.27163  1.0000
  H   H891      1.0  0.67038  0.73486  0.07467  1.0000
  H   H892      1.0  0.79628  0.70440  0.30477  1.0000
  H   H893      1.0  0.58203  0.93792  0.16120  1.0000
  H   H894      1.0  0.72669  0.66840  0.27804  1.0000
  H   H895      1.0  0.73438  0.72103  0.26898  1.0000
  H   H896      1.0  0.58354  0.63644  0.29727  1.0000
  H   H897      1.0  0.69345  0.82547  0.28288  1.0000
  H   H898      1.0  0.65593  0.66340  0.10549  1.0000
  H   H899      1.0  0.95988  0.62948  0.05665  1.0000
  H   H900      1.0  0.58251  0.70405  0.10538  1.0000
  C   C519      1.0  0.93776  0.64272  0.05435  1.0000
  C   C520      1.0  0.69416  0.56330  0.33088  1.0000
  H   H901      1.0  0.93890  0.60786  0.10335  1.0000
  H   H902      1.0  0.87930  0.58146  0.17148  1.0000
  H   H903      1.0  0.60582  0.95552  0.10779  1.0000
  H   H904      1.0  0.81220  0.66709  0.06411  1.0000
  C   C521      1.0  0.48340  0.96778  0.32469  1.0000
  H   H905      1.0  0.53974  0.68201  0.32288  1.0000
  H   H906      1.0  0.58464  0.58143  0.26537  1.0000
  H   H907      1.0  0.59186  0.55466  0.29569  1.0000
  H   H908      1.0  0.62067  0.74846  0.14383  1.0000
  C   C522      1.0  0.52734  0.61981  0.11548  1.0000
  H   H909      1.0  0.81771  0.59710  0.09884  1.0000
  H   H910      1.0  0.56959  0.65804  0.14872  1.0000
  H   H911      1.0  0.75073  0.51900  0.23558  1.0000
  H   H912      1.0  0.80253  0.71927  0.26794  1.0000
  H   H913      1.0  0.56576  0.74140  0.28730  1.0000
  H   H914      1.0  0.85567  0.49966  0.17614  1.0000
  C   C523      1.0  0.90730  0.53364  0.21918  1.0000
  H   H915      1.0  0.71184  0.55566  0.31557  1.0000
  C   C524      1.0  0.92048  0.50829  0.31700  1.0000
  H   H916      1.0  0.50658  0.77817  0.28644  1.0000
  H   H917      1.0  0.81816  0.51806  0.20826  1.0000
  C   C525      1.0  0.76915  0.60380  0.00993  1.0000
  H   H918      1.0  0.81684  0.50504  0.24431  1.0000
  H   H919      1.0  0.61647  0.75716  0.07433  1.0000
  C   C526      1.0  0.87435  0.48757  0.22995  1.0000
  H   H920      1.0  0.92884  0.62945  0.16199  1.0000
  H   H921      1.0  0.74514  0.50760  0.19800  1.0000
  H   H922      1.0  0.55822  0.97115  0.07140  1.0000
  S   S110      1.0  0.69850  0.52140  0.01433  1.0000
  H   H923      1.0  0.94106  0.55547  0.25966  1.0000
  H   H924      1.0  0.70383  0.80079  0.14149  1.0000
  H   H925      1.0  0.67769  0.97795  0.08794  1.0000
  H   H926      1.0  0.52806  0.60929  0.09343  1.0000
  H   H927      1.0  0.61511  0.97742  0.18742  1.0000
  H   H928      1.0  0.63865  0.79041  0.10551  1.0000
  H   H929      1.0  0.66283  0.76909  0.20026  1.0000
  H   H930      1.0  0.71017  0.82014  0.19199  1.0000
  S   S111      1.0  0.52218  0.75213  0.00822  1.0000
  H   H931      1.0  0.65853  0.80837  0.17829  1.0000
  C   C527      1.0  0.67897  0.79401  0.18350  1.0000
  H   H932      1.0  0.65836  0.83252  0.06040  1.0000
  C   C528      1.0  0.73779  0.49285  0.21945  1.0000
  C   C529      1.0  0.60092  0.97317  0.16592  1.0000
  H   H933      1.0  0.49400  0.82127  0.28816  1.0000
  C   C530      1.0  0.55591  0.71545  0.32976  1.0000
  C   C531      1.0  0.67602  0.81608  0.06765  1.0000
  H   H934      1.0  0.70507  0.83980  0.07959  1.0000
  H   H935      1.0  0.71954  0.77984  0.30509  1.0000
  N   N31       1.0  0.67162  0.68882  0.31339  1.0000
  C   C532      1.0  0.71915  0.70332  0.31415  1.0000
  H   H936      1.0  0.72474  0.68255  0.32919  1.0000
  H   H937      1.0  0.83305  0.48398  0.06468  1.0000
  H   H938      1.0  0.73855  0.73656  0.32274  1.0000
  H   H939      1.0  0.87804  0.48057  0.05067  1.0000
  S   S112      1.0  0.86705  0.61093  0.33804  1.0000
  C   C533      1.0  0.62880  0.73914  0.00942  1.0000
  C   C534      1.0  0.75291  0.55930  0.00670  1.0000
  H   H940      1.0  0.82484  0.66766  0.00607  1.0000
  C   C535      1.0  0.96634  0.69270  0.05788  1.0000
  H   H941      1.0  0.60941  0.87267  0.64278  1.0000
  H   H942      1.0  0.68973  0.97223  0.42460  1.0000
  C   C536      1.0  0.75476  0.50868  0.36199  1.0000
  C   C537      1.0  0.93108  0.62213  0.43923  1.0000
  C   C538      1.0  0.54345  0.83560  0.42327  1.0000
  C   C539      1.0  0.86019  0.67321  0.62310  1.0000
  Fe  Fe55      1.0  0.83199  0.53451  0.62505  1.0000
  S   S113      1.0  0.78206  0.55726  0.62671  1.0000
  S   S114      1.0  0.88702  0.56657  0.59364  1.0000
  H   H943      1.0  0.53426  0.67324  0.64211  1.0000
  C   C540      1.0  0.71612  0.59969  0.34831  1.0000
  H   H944      1.0  0.76017  0.50967  0.49901  1.0000
  S   S115      1.0  0.57363  0.93404  0.59225  1.0000
  C   C541      1.0  0.64760  0.58297  0.37019  1.0000
  Fe  Fe56      1.0  0.53174  0.89361  0.62840  1.0000
  S   S116      1.0  0.51484  0.82688  0.64479  1.0000
  H   H945      1.0  0.92257  0.55952  0.43001  1.0000
  S   S117      1.0  0.49929  0.56536  0.34917  1.0000
  S   S118      1.0  0.91687  0.49685  0.61323  1.0000
  Fe  Fe57      1.0  0.51024  0.60936  0.38622  1.0000
  S   S119      1.0  0.54156  0.58063  0.41348  1.0000
  H   H946      1.0  0.53867  0.92235  0.38950  1.0000
  Fe  Fe58      1.0  0.52742  0.53471  0.37702  1.0000
  H   H947      1.0  0.86775  0.48981  0.44653  1.0000
  S   S120      1.0  0.47476  0.89919  0.61397  1.0000
  H   H948      1.0  0.52306  0.82315  0.44258  1.0000
  C   C542      1.0  0.62727  0.82711  0.65925  1.0000
  H   H949      1.0  0.70149  0.75621  0.35513  1.0000
  C   C543      1.0  0.66304  0.72293  0.39138  1.0000
  C   C544      1.0  0.71773  0.60748  0.66947  1.0000
  H   H950      1.0  0.56354  0.82005  0.42126  1.0000
  H   H951      1.0  0.48383  0.51219  0.57669  1.0000
  C   C545      1.0  0.53884  0.76996  0.66431  1.0000
  C   C546      1.0  0.48992  0.61176  0.62245  1.0000
  S   S121      1.0  0.55663  0.94943  0.65877  1.0000
  H   H952      1.0  0.49683  0.84354  0.39983  1.0000
  C   C547      1.0  0.48710  0.56822  0.61434  1.0000
  H   H953      1.0  0.48846  0.62925  0.60346  1.0000
  C   C548      1.0  0.55344  0.81179  0.65367  1.0000
  H   H954      1.0  0.90507  0.73110  0.64482  1.0000
  H   H955      1.0  0.71239  0.71651  0.37017  1.0000
  H   H956      1.0  0.66675  0.50901  0.63387  1.0000
  C   C549      1.0  0.59724  0.80267  0.34703  1.0000
  H   H957      1.0  0.60603  0.59223  0.62924  1.0000
  H   H958      1.0  0.78093  0.52228  0.34596  1.0000
  H   H959      1.0  0.70208  0.53753  0.58820  1.0000
  C   C550      1.0  0.76097  0.57474  0.65478  1.0000
  C   C551      1.0  0.73592  0.59387  0.64804  1.0000
  H   H960      1.0  0.87077  0.56691  0.40031  1.0000
  H   H961      1.0  0.73068  0.59837  0.62604  1.0000
  H   H962      1.0  0.79343  0.77511  0.65300  1.0000
  H   H963      1.0  0.63901  0.73309  0.38690  1.0000
  Fe  Fe59      1.0  0.92690  0.56133  0.62852  1.0000
  H   H964      1.0  0.63321  0.54759  0.65023  1.0000
  C   C552      1.0  0.61255  0.78556  0.67056  1.0000
  H   H965      1.0  0.48063  0.48723  0.62704  1.0000
  H   H966      1.0  0.46813  0.76232  0.41272  1.0000
  C   C553      1.0  0.52590  0.94455  0.39310  1.0000
  H   H967      1.0  0.66155  0.84929  0.65712  1.0000
  H   H968      1.0  0.50549  0.60268  0.56100  1.0000
  H   H969      1.0  0.86954  0.96092  0.57349  1.0000
  H   H970      1.0  0.79579  0.50352  0.52306  1.0000
  H   H971      1.0  0.68668  0.74604  0.40689  1.0000
  C   C554      1.0  0.79641  0.50115  0.44891  1.0000
  H   H972      1.0  0.50457  0.74752  0.66601  1.0000
  H   H973      1.0  0.91414  0.63700  0.45013  1.0000
  H   H974      1.0  0.70943  0.63754  0.38149  1.0000
  H   H975      1.0  0.47486  0.89960  0.42162  1.0000
  H   H976      1.0  0.84656  0.57740  0.42949  1.0000
  H   H977      1.0  0.61325  0.83609  0.35394  1.0000
  H   H978      1.0  0.89369  0.51210  0.39296  1.0000
  H   H979      1.0  0.49052  0.55388  0.63446  1.0000
  H   H980      1.0  0.46915  0.70160  0.34395  1.0000
  H   H981      1.0  0.56539  0.55135  0.65175  1.0000
  C   C555      1.0  0.56157  0.72500  0.35875  1.0000
  C   C556      1.0  0.81600  0.51114  0.47907  1.0000
  C   C557      1.0  0.90328  0.57273  0.43956  1.0000
  C   C558      1.0  0.68925  0.50323  0.58181  1.0000
  H   H982      1.0  0.83626  0.54670  0.48206  1.0000
  H   H983      1.0  0.64621  0.65694  0.35370  1.0000
  C   C559      1.0  0.69265  0.60944  0.36792  1.0000
  H   H984      1.0  0.79337  0.55433  0.39416  1.0000
  C   C560      1.0  0.86074  0.55725  0.42272  1.0000
  C   C561      1.0  0.47817  0.78130  0.34114  1.0000
  H   H985      1.0  0.78075  0.52116  0.44686  1.0000
  H   H986      1.0  0.82487  0.65264  0.61988  1.0000
  H   H987      1.0  0.96425  0.72789  0.66719  1.0000
  C   C562      1.0  0.86966  0.70896  0.64459  1.0000
  C   C563      1.0  0.78070  0.49475  0.50171  1.0000
  H   H988      1.0  0.56125  0.54495  0.61355  1.0000
  Fe  Fe60      1.0  0.87273  0.49952  0.58068  1.0000
  H   H989      1.0  0.64633  0.69008  0.40104  1.0000
  H   H990      1.0  0.93860  0.63444  0.41713  1.0000
  H   H991      1.0  0.48973  0.61201  0.51148  1.0000
  H   H992      1.0  0.61718  0.96548  0.42599  1.0000
  H   H993      1.0  0.74012  0.73470  0.66436  1.0000
  H   H994      1.0  0.71166  0.49230  0.58924  1.0000
  H   H995      1.0  0.87521  0.68781  0.60241  1.0000
  H   H996      1.0  0.62988  0.59062  0.38549  1.0000
  H   H997      1.0  0.87346  0.65257  0.63032  1.0000
  Fe  Fe61      1.0  0.51796  0.94418  0.57999  1.0000
  H   H998      1.0  0.60932  0.96267  0.38903  1.0000
  C   C564      1.0  0.77360  0.51859  0.39187  1.0000
  C   C565      1.0  0.59782  0.84041  0.65110  1.0000
  C   C566      1.0  0.80082  0.49654  0.39755  1.0000
  H   H999      1.0  0.94319  0.65354  0.65069  1.0000
  H   H1000     1.0  0.53438  0.62734  0.65776  1.0000
  N   N32       1.0  0.82710  0.50965  0.42456  1.0000
  Fe  Fe62      1.0  0.47435  0.53231  0.42905  1.0000
  H   H1001     1.0  0.85423  0.72715  0.63666  1.0000
  C   C567      1.0  0.58252  0.76884  0.36715  1.0000
  H   H1002     1.0  0.51635  0.57597  0.60172  1.0000
  C   C568      1.0  0.51535  0.82660  0.39699  1.0000
  S   S122      1.0  0.49848  0.94093  0.53272  1.0000
  Fe  Fe63      1.0  0.50212  0.95754  0.64209  1.0000
  H   H1003     1.0  0.74586  0.50621  0.40672  1.0000
  C   C569      1.0  0.68629  0.72320  0.36415  1.0000
  H   H1004     1.0  0.62885  0.54151  0.61271  1.0000
  H   H1005     1.0  0.56522  0.87109  0.42572  1.0000
  C   C570      1.0  0.77448  0.75394  0.67094  1.0000
  C   C571      1.0  0.58388  0.55681  0.63175  1.0000
  C   C572      1.0  0.47504  0.57721  0.55136  1.0000
  S   S123      1.0  0.56930  0.51211  0.35536  1.0000
  H   H1006     1.0  0.82228  0.50395  0.37876  1.0000
  S   S124      1.0  0.77256  0.63436  0.34599  1.0000
  S   S125      1.0  0.54247  0.68392  0.38542  1.0000
  H   H1007     1.0  0.56042  0.64832  0.62390  1.0000
  C   C573      1.0  0.53242  0.64185  0.63744  1.0000
  C   C574      1.0  0.60996  0.53361  0.63264  1.0000
  H   H1008     1.0  0.54945  0.95868  0.43562  1.0000
  H   H1009     1.0  0.53728  0.84111  0.37855  1.0000
  H   H1010     1.0  0.67841  0.95877  0.38737  1.0000
  H   H1011     1.0  0.69887  0.62240  0.66389  1.0000
  H   H1012     1.0  0.96186  0.63225  0.45052  1.0000
  H   H1013     1.0  0.73444  0.52369  0.35890  1.0000
  C   C575      1.0  0.62573  0.54635  0.35298  1.0000
  H   H1014     1.0  0.68792  0.50145  0.55831  1.0000
  H   H1015     1.0  0.89749  0.56213  0.46192  1.0000
  C   C576      1.0  0.47843  0.91700  0.40139  1.0000
  H   H1016     1.0  0.92632  0.58367  0.36360  1.0000
  S   S126      1.0  0.87306  0.53279  0.66061  1.0000
  H   H1017     1.0  0.58743  0.77670  0.38948  1.0000
  H   H1018     1.0  0.52712  0.96049  0.37277  1.0000
  H   H1019     1.0  0.46771  0.69260  0.38154  1.0000
  H   H1020     1.0  0.83552  0.49564  0.48321  1.0000
  H   H1021     1.0  0.62232  0.48506  0.58541  1.0000
  H   H1022     1.0  0.78678  0.70279  0.66027  1.0000
  H   H1023     1.0  0.48104  0.55238  0.54158  1.0000
  C   C577      1.0  0.48506  0.77721  0.39247  1.0000
  C   C578      1.0  0.57984  0.48384  0.63565  1.0000
  H   H1024     1.0  0.50661  0.76360  0.38887  1.0000
  C   C579      1.0  0.96124  0.60527  0.35949  1.0000
  H   H1025     1.0  0.47755  0.93499  0.47326  1.0000
  H   H1026     1.0  0.50495  0.77404  0.34012  1.0000
  C   C580      1.0  0.55185  0.97814  0.41658  1.0000
  C   C581      1.0  0.84643  0.48074  0.42772  1.0000
  H   H1027     1.0  0.85815  0.77213  0.67152  1.0000
  H   H1028     1.0  0.49443  0.81732  0.34026  1.0000
  H   H1029     1.0  0.62448  0.68932  0.34220  1.0000
  C   C582      1.0  0.65496  0.68808  0.34303  1.0000
  Fe  Fe64      1.0  0.65274  0.64189  0.72607  1.0000
  S   S127      1.0  0.59517  0.60963  0.75555  1.0000
  S   S128      1.0  0.70251  0.61884  0.72609  1.0000
  Fe  Fe65      1.0  0.62688  0.70817  0.70675  1.0000
  S   S129      1.0  0.56760  0.68009  0.73397  1.0000
  C   C583      1.0  0.48045  0.74115  0.72941  1.0000
  Fe  Fe66      1.0  0.60944  0.67691  0.76816  1.0000
  S   S130      1.0  0.61383  0.69975  0.81441  1.0000
  Fe  Fe67      1.0  0.55797  0.61545  0.71908  1.0000
  N   N33       1.0  0.54926  0.64454  0.92850  1.0000
  S   S131      1.0  0.66986  0.70851  0.74157  1.0000
  H   H1030     1.0  0.77195  0.71566  0.94557  1.0000
  Fe  Fe68      1.0  0.55297  0.84053  0.91974  1.0000
  H   H1031     1.0  0.49581  0.91320  0.70408  1.0000
  S   S132      1.0  0.54743  0.81837  0.87320  1.0000
  Fe  Fe69      1.0  0.61143  0.90332  0.96591  1.0000
  N   N34       1.0  0.82383  0.63190  0.89973  1.0000
  Fe  Fe70      1.0  0.54230  0.81256  0.98165  1.0000
  S   S133      1.0  0.49024  0.56510  0.70484  1.0000
  Fe  Fe71      1.0  0.51716  0.88038  0.96448  1.0000
  H   H1032     1.0  0.60799  0.87041  0.81499  1.0000
  S   S134      1.0  0.59796  0.83747  0.95134  1.0000
  S   S135      1.0  0.57080  0.90880  0.93195  1.0000
  S   S136      1.0  0.93208  0.59792  0.92810  1.0000
  C   C584      1.0  0.52312  0.61604  0.90412  1.0000
  Fe  Fe72      1.0  0.94085  0.63883  0.96639  1.0000
  H   H1033     1.0  0.51237  0.57984  0.84986  1.0000
  C   C585      1.0  0.59883  0.88782  0.79943  1.0000
  C   C586      1.0  0.79599  0.68035  0.92130  1.0000
  H   H1034     1.0  0.59612  0.92810  0.83302  1.0000
  H   H1035     1.0  0.95416  0.72413  0.88338  1.0000
  C   C587      1.0  0.91902  0.78328  0.72755  1.0000
  C   C588      1.0  0.83373  0.59703  0.90822  1.0000
  C   C589      1.0  0.47269  0.51001  0.69749  1.0000
  S   S137      1.0  0.65020  0.77038  0.68178  1.0000
  H   H1036     1.0  0.56979  0.58816  0.96068  1.0000
  H   H1037     1.0  0.66043  0.51439  0.73151  1.0000
  C   C590      1.0  0.65772  0.93601  0.70393  1.0000
  C   C591      1.0  0.79422  0.55195  0.91513  1.0000
  C   C592      1.0  0.74931  0.58291  0.70476  1.0000
  H   H1038     1.0  0.90602  0.80549  0.72493  1.0000
  H   H1039     1.0  0.77041  0.53951  0.89765  1.0000
  H   H1040     1.0  0.60954  0.67724  0.90539  1.0000
  H   H1041     1.0  0.83881  0.67753  0.78145  1.0000
  C   C593      1.0  0.59466  0.73235  0.83046  1.0000
  C   C594      1.0  0.56281  0.73852  0.81791  1.0000
  C   C595      1.0  0.54845  0.76447  0.83140  1.0000
  C   C596      1.0  0.56526  0.78420  0.85781  1.0000
  C   C597      1.0  0.59642  0.77719  0.87069  1.0000
  C   C598      1.0  0.61095  0.75145  0.85710  1.0000
  H   H1042     1.0  0.54900  0.72284  0.79794  1.0000
  H   H1043     1.0  0.52372  0.76884  0.82149  1.0000
  H   H1044     1.0  0.60972  0.79202  0.89098  1.0000
  H   H1045     1.0  0.63527  0.74660  0.86722  1.0000
  H   H1046     1.0  0.61364  0.81500  0.78878  1.0000
  C   C599      1.0  0.50065  0.49334  0.69856  1.0000
  H   H1047     1.0  0.68563  0.70789  0.92391  1.0000
  H   H1048     1.0  0.79746  0.63083  0.76279  1.0000
  C   C600      1.0  0.72409  0.60184  0.69803  1.0000
  H   H1049     1.0  0.66696  0.95087  0.85703  1.0000
  H   H1050     1.0  0.77110  0.67261  0.90482  1.0000
  H   H1051     1.0  0.75422  0.57803  0.72673  1.0000
  H   H1052     1.0  0.64649  0.88248  0.88174  1.0000
  N   N35       1.0  0.59007  0.83896  0.75538  1.0000
  C   C601      1.0  0.62612  0.83561  0.76950  1.0000
  C   C602      1.0  0.56955  0.85592  0.77606  1.0000
  C   C603      1.0  0.55607  0.79373  0.74669  1.0000
  C   C604      1.0  0.60516  0.86649  0.72901  1.0000
  C   C605      1.0  0.64281  0.91347  0.73265  1.0000
  C   C606      1.0  0.64919  0.81709  0.75118  1.0000
  C   C607      1.0  0.51398  0.78892  0.73385  1.0000
  H   H1053     1.0  0.85087  0.64439  0.72383  1.0000
  C   C608      1.0  0.68627  0.81772  0.76754  1.0000
  H   H1054     1.0  0.83367  0.62439  0.83940  1.0000
  H   H1055     1.0  0.65169  0.86757  0.77731  1.0000
  H   H1056     1.0  0.55386  0.87151  0.76441  1.0000
  H   H1057     1.0  0.54690  0.77144  0.76515  1.0000
  H   H1058     1.0  0.56885  0.78057  0.73039  1.0000
  H   H1059     1.0  0.61437  0.85043  0.71247  1.0000
  H   H1060     1.0  0.57833  0.86928  0.71939  1.0000
  H   H1061     1.0  0.67115  0.91448  0.74283  1.0000
  H   H1062     1.0  0.86999  0.67209  0.68041  1.0000
  H   H1063     1.0  0.62687  0.78286  0.74524  1.0000
  H   H1064     1.0  0.66286  0.83642  0.73161  1.0000
  H   H1065     1.0  0.52057  0.80510  0.71292  1.0000
  H   H1066     1.0  0.95458  0.68680  0.73057  1.0000
  H   H1067     1.0  0.62876  0.91507  0.79059  1.0000
  H   H1068     1.0  0.78803  0.64469  0.86811  1.0000
  H   H1069     1.0  0.92315  0.73278  0.70451  1.0000
  H   H1070     1.0  0.67102  0.65685  0.94113  1.0000
  H   H1071     1.0  0.67383  0.79669  0.78662  1.0000
  H   H1072     1.0  0.70272  0.80515  0.75377  1.0000
  C   C609      1.0  0.94001  0.73405  0.90078  1.0000
  H   H1073     1.0  0.51988  0.52994  0.99208  1.0000
  C   C610      1.0  0.85289  0.68977  0.67452  1.0000
  S   S138      1.0  0.68105  0.95401  0.97439  1.0000
  H   H1074     1.0  0.91084  0.67276  0.92186  1.0000
  H   H1075     1.0  0.73656  0.55818  0.83526  1.0000
  C   C611      1.0  0.80478  0.64226  0.92500  1.0000
  C   C612      1.0  0.62668  0.68078  0.94917  1.0000
  C   C613      1.0  0.79177  0.61724  0.87573  1.0000
  H   H1076     1.0  0.77653  0.57132  0.80804  1.0000
  H   H1077     1.0  0.77345  0.61354  0.93110  1.0000
  H   H1078     1.0  0.82569  0.71067  0.91527  1.0000
  C   C614      1.0  0.53549  0.57971  0.96051  1.0000
  H   H1079     1.0  0.62960  0.71297  0.95227  1.0000
  C   C615      1.0  0.83281  0.65161  0.76596  1.0000
  H   H1080     1.0  0.90680  0.76550  0.74780  1.0000
  H   H1081     1.0  0.47008  0.59281  0.85603  1.0000
  C   C616      1.0  0.85542  0.67137  0.73787  1.0000
  H   H1082     1.0  0.80414  0.69952  0.96577  1.0000
  H   H1083     1.0  0.77961  0.48696  0.92638  1.0000
  C   C617      1.0  0.83986  0.61859  0.99353  1.0000
  H   H1084     1.0  0.56477  0.70530  0.94855  1.0000
  H   H1085     1.0  0.52478  0.66513  0.87463  1.0000
  H   H1086     1.0  0.92154  0.77237  0.68303  1.0000
  H   H1087     1.0  0.56441  0.70691  0.91123  1.0000
  H   H1088     1.0  0.77641  0.77434  0.68932  1.0000
  C   C618      1.0  0.80317  0.59916  0.84919  1.0000
  H   H1089     1.0  0.70409  0.91839  0.88313  1.0000
  H   H1090     1.0  0.77768  0.55367  0.93457  1.0000
  C   C619      1.0  0.67189  0.68828  0.94342  1.0000
  H   H1091     1.0  0.84486  0.56259  0.98304  1.0000
  H   H1092     1.0  0.52894  0.58833  0.90173  1.0000
  H   H1093     1.0  0.53387  0.51409  0.70489  1.0000
  C   C620      1.0  0.86517  0.67111  0.89004  1.0000
  C   C621      1.0  0.53098  0.62026  0.95584  1.0000
  C   C622      1.0  0.78041  0.54459  0.99693  1.0000
  H   H1094     1.0  0.66668  0.51297  0.67966  1.0000
  H   H1095     1.0  0.71031  0.85123  0.77407  1.0000
  H   H1096     1.0  0.63212  0.93250  0.74542  1.0000
  C   C623      1.0  0.67255  0.91361  0.89048  1.0000
  H   H1097     1.0  0.56662  0.92598  0.80156  1.0000
  H   H1098     1.0  0.54546  0.64223  0.97437  1.0000
  S   S139      1.0  0.89339  0.65709  0.98452  1.0000
  H   H1099     1.0  0.83541  0.71982  0.74005  1.0000
  H   H1100     1.0  0.49331  0.90007  0.74098  1.0000
  H   H1101     1.0  0.51844  0.55524  0.94369  1.0000
  S   S140      1.0  0.55939  0.87833  0.99913  1.0000
  H   H1102     1.0  0.54302  0.82867  0.78810  1.0000
  H   H1103     1.0  0.84544  0.63138  0.77492  1.0000
  N   N36       1.0  0.85870  0.72203  0.69728  1.0000
  S   S141      1.0  0.61448  0.64415  0.68896  1.0000
  H   H1104     1.0  0.59778  0.62669  0.91976  1.0000
  C   C624      1.0  0.76779  0.58429  0.82674  1.0000
  C   C625      1.0  0.59563  0.65619  0.92435  1.0000
  C   C626      1.0  0.54723  0.68573  0.92963  1.0000
  C   C627      1.0  0.50268  0.72279  0.92857  1.0000
  S   S142      1.0  0.94455  0.49935  0.95064  1.0000
  H   H1105     1.0  0.88823  0.70641  0.93072  1.0000
  C   C628      1.0  0.76776  0.56959  0.68334  1.0000
  H   H1106     1.0  0.69323  0.70604  0.96159  1.0000
  C   C629      1.0  0.80810  0.51838  0.92026  1.0000
  H   H1107     1.0  0.85850  0.69533  0.87995  1.0000
  H   H1108     1.0  0.48077  0.54727  0.98959  1.0000
  H   H1109     1.0  0.66949  0.91872  0.69023  1.0000
  H   H1110     1.0  0.56658  0.65208  0.86864  1.0000
  C   C630      1.0  0.57517  0.90668  0.81582  1.0000
  H   H1111     1.0  0.82245  0.51340  0.90074  1.0000
  H   H1112     1.0  0.85359  0.59283  0.89171  1.0000
  C   C631      1.0  0.82381  0.57416  0.99036  1.0000
  H   H1113     1.0  0.50105  0.86737  0.71495  1.0000
  H   H1114     1.0  0.74941  0.65981  0.95606  1.0000
  C   C632      1.0  0.83891  0.74900  0.68866  1.0000
  C   C633      1.0  0.83650  0.69759  0.72391  1.0000
  H   H1115     1.0  0.61535  0.66224  0.96915  1.0000
  H   H1116     1.0  0.49457  0.72416  0.71769  1.0000
  H   H1117     1.0  0.75901  0.59254  0.88320  1.0000
  H   H1118     1.0  0.78676  0.55482  0.68892  1.0000
  H   H1119     1.0  0.76385  0.61182  0.81967  1.0000
  H   H1120     1.0  0.84008  0.76978  0.70663  1.0000
  H   H1121     1.0  0.82571  0.64913  0.94386  1.0000
  H   H1122     1.0  0.93162  0.75807  0.89260  1.0000
  H   H1123     1.0  0.88078  0.66181  0.87318  1.0000
  H   H1124     1.0  0.68458  0.96973  0.70703  1.0000
  H   H1125     1.0  0.63394  0.94342  0.88760  1.0000
  C   C634      1.0  0.90642  0.75176  0.70203  1.0000
  H   H1126     1.0  0.80684  0.57092  0.85455  1.0000
  C   C635      1.0  0.66620  0.95080  0.88052  1.0000
  H   H1127     1.0  0.63092  0.93721  0.69293  1.0000
  H   H1128     1.0  0.85409  0.60704  0.92763  1.0000
  S   S143      1.0  0.47345  0.91082  0.96610  1.0000
  C   C636      1.0  0.56821  0.75706  0.67306  1.0000
  H   H1129     1.0  0.83213  0.52885  0.93763  1.0000
  S   S144      1.0  0.49571  0.81236  0.94937  1.0000
  H   H1130     1.0  0.89026  0.69200  0.74248  1.0000
  C   C637      1.0  0.90018  0.69466  0.91309  1.0000
  C   C638      1.0  0.77932  0.68923  0.94889  1.0000
  H   H1131     1.0  0.80212  0.67375  0.71952  1.0000
  C   C639      1.0  0.48452  0.88605  0.71935  1.0000
  H   H1132     1.0  0.67109  0.91132  0.91398  1.0000
  C   C640      1.0  0.63431  0.49381  0.68927  1.0000
  H   H1133     1.0  0.49587  0.60881  0.95727  1.0000
  H   H1134     1.0  0.54533  0.88030  0.82569  1.0000
  H   H1135     1.0  0.49922  0.80315  0.74767  1.0000
  C   C641      1.0  0.51582  0.55846  0.98894  1.0000
  H   H1136     1.0  0.61851  0.51372  0.69061  1.0000
  H   H1137     1.0  0.76802  0.51017  0.99440  1.0000
  C   C642      1.0  0.64079  0.48362  0.71970  1.0000
  H   H1138     1.0  0.96481  0.74976  0.91759  1.0000
  C   C643      1.0  0.53230  0.63851  0.87471  1.0000
  H   H1139     1.0  0.76992  0.70228  0.69625  1.0000
  C   C644      1.0  0.81252  0.63328  0.00349  1.0000
  C   C645      1.0  0.79100  0.72334  0.67901  1.0000
  C   C646      1.0  0.50498  0.60652  0.85155  1.0000
  C   C647      1.0  0.50123  0.67957  0.93151  1.0000
  H   H1140     1.0  0.48794  0.60071  0.90848  1.0000
  H   H1141     1.0  0.51251  0.62364  0.83084  1.0000
  H   H1142     1.0  0.55652  0.72500  0.68165  1.0000
  H   H1143     1.0  0.51426  0.73662  0.90717  1.0000
  H   H1144     1.0  0.75468  0.97305  0.67339  1.0000
  H   H1145     1.0  0.47967  0.65797  0.91466  1.0000
  H   H1146     1.0  0.61324  0.78718  0.99520  1.0000
  H   H1147     1.0  0.46804  0.72481  0.75014  1.0000
  H   H1148     1.0  0.52438  0.74593  0.94480  1.0000
  H   H1149     1.0  0.48655  0.66585  0.95245  1.0000
  H   H1150     1.0  0.81840  0.66420  0.67270  1.0000
  H   H1151     1.0  0.46985  0.71803  0.93164  1.0000
  C   C648      1.0  0.60104  0.75573  0.00488  1.0000
  H   H1152     1.0  0.66219  0.75787  0.00287  1.0000
