data_image0
_chemical_formula_structural       HSCFeHC3FeHSC2SCHFeC2H2CHC6SH2SNC3HC2H15CHSH3C4HC2H2CH8CNC2HCH7CH12CSCH4CH2FeS2H2SFeCSHC2HCSH3C3HC5HCHC2HN2C6HCHC2H4C2H22C2HC2H9SH4FeCH3CHSHSFeS2FeS2FeSFeS3FeHSCH4SC2FeHSCHSH2CHCHC2HC6H4C6H3CHCH2C2H4C2HSNCH3C2HC3H10FeH2NCH5C2HCHCHFeH2CH3SH3CH5C3H7CSCHC2NHCNC2HC2H5C2H3CH2C2H3C2SH2CHC2H7SFeSHSH2SHFeSHC6H4CHC2H2NSFeHCSCH2CHSHFeC3HSHCH4CH2NC10H25SCHCHCH2CHCHCHFe2H2CH2CH2C2H2CHC3HCH3SH3CHCH3CFeH2CH2CNCH3CH2SH3CH3CH3CHCH4C2HC2HCH4CH2C3HCH3CH2SFeSCHNH2C7H6CSH3CH2C3SH5C2H4SC2H3CH3CH4Fe2SFeH3CHCH2C2HC2HCH11CH3CH2CH3C2H6CH14CH2C4HC2HCHCH3C2H2C2H2CH3CH2NH5CH2CHC2HSHCHCHCH4CH4C2FeHSH2S2FeSHFeC7H9C2H4CH8SCHCHCH3SHNC7SC2H8CFeH7CH4CH5C3H2CHC3HCH3C2SFeSH2SH2CHC6H4FeC3H2CH3C2HCH2CH3C3H10CHCH2CH4SHC2H3CH2NH2CH4C4H4FeS2FeSHFeSFeS3FeS2C6H5CHC4H4CH3C2HCHCHCH4C2HC4H3N2H9CH4CH6CHCSHSH2C2HCHFeHNC2HCH2C2HCH2C3H4SHC2HC2H3C2H4CFeH3CHSH5SHC2HCH2SC2HNH2FeH2CSFeSFeS2FeSHFeSFeCS2C2HC2FeC3H3C6H8CH4FeSCHS2HCH2CH2CHCNCHC2HC4H5C2H4CH10CHSHCSH3CHCH3C2H3CH4CH2NCHSH2CHCH3C2SCH2CSCHNHCHCHSHFeH4C2HNSHNH6CH2CHSC4H3CH2CH4CH2CFeSCHC2HCH8
_chemical_formula_sum              "H768 S96 C432 Fe48 N24"
_cell_length_a       36.1998
_cell_length_b       36.3197
_cell_length_c       41.4959
_cell_angle_alpha    90.1923
_cell_angle_beta     89.906
_cell_angle_gamma    119.908

_space_group_name_H-M_alt    "P 1"
_space_group_IT_number       1

loop_
  _space_group_symop_operation_xyz
  'x, y, z'

loop_
  _atom_site_type_symbol
  _atom_site_label
  _atom_site_symmetry_multiplicity
  _atom_site_fract_x
  _atom_site_fract_y
  _atom_site_fract_z
  _atom_site_occupancy
  H   H1        1.0  0.46373  0.43201  0.26691  1.0000
  S   S1        1.0  0.30815  0.32462  0.29112  1.0000
  C   C1        1.0  0.26256  0.06247  0.22124  1.0000
  Fe  Fe1       1.0  0.36266  0.38847  0.30586  1.0000
  H   H2        1.0  0.34926  0.18837  0.19586  1.0000
  C   C2        1.0  0.43068  0.38842  0.14653  1.0000
  C   C3        1.0  0.08631  0.43386  0.31794  1.0000
  C   C4        1.0  0.33829  0.21164  0.19992  1.0000
  Fe  Fe2       1.0  0.34086  0.01233  0.26025  1.0000
  H   H3        1.0  0.11973  0.45839  0.31201  1.0000
  S   S2        1.0  0.32181  0.05583  0.28835  1.0000
  C   C5        1.0  0.13420  0.35561  0.27340  1.0000
  C   C6        1.0  0.43958  0.39047  0.11036  1.0000
  S   S3        1.0  0.40562  0.02449  0.24427  1.0000
  C   C7        1.0  0.46551  0.45265  0.24757  1.0000
  H   H4        1.0  0.37234  0.32713  0.14401  1.0000
  Fe  Fe3       1.0  0.34006  0.29665  0.32147  1.0000
  C   C8        1.0  0.98897  0.44268  0.05647  1.0000
  C   C9        1.0  0.22500  0.01712  0.21899  1.0000
  H   H5        1.0  0.19615  0.01904  0.21355  1.0000
  H   H6        1.0  0.02834  0.35258  0.31797  1.0000
  C   C10       1.0  0.43427  0.46436  0.24492  1.0000
  H   H7        1.0  0.98113  0.35360  0.25648  1.0000
  C   C11       1.0  0.34622  0.19443  0.29586  1.0000
  C   C12       1.0  0.36983  0.18428  0.27404  1.0000
  C   C13       1.0  0.36289  0.14237  0.27126  1.0000
  C   C14       1.0  0.33235  0.10971  0.29051  1.0000
  C   C15       1.0  0.30902  0.11990  0.31252  1.0000
  C   C16       1.0  0.31576  0.16174  0.31515  1.0000
  S   S4        1.0  0.39115  0.44611  0.27243  1.0000
  H   H8        1.0  0.16386  0.38422  0.26529  1.0000
  H   H9        1.0  0.28535  0.09518  0.32765  1.0000
  S   S5        1.0  0.99328  0.39567  0.00595  1.0000
  N   N1        1.0  0.39383  0.33561  0.19371  1.0000
  C   C17       1.0  0.36081  0.28990  0.19999  1.0000
  C   C18       1.0  0.37697  0.36352  0.20604  1.0000
  C   C19       1.0  0.44556  0.06557  0.33073  1.0000
  H   H10       1.0  0.11660  0.33614  0.25213  1.0000
  C   C20       1.0  0.33609  0.35786  0.18937  1.0000
  C   C21       1.0  0.32406  0.38992  0.20232  1.0000
  H   H11       1.0  0.41468  0.40723  0.15107  1.0000
  H   H12       1.0  0.06415  0.48082  0.31908  1.0000
  H   H13       1.0  0.33183  0.28066  0.18525  1.0000
  H   H14       1.0  0.34970  0.28564  0.22552  1.0000
  H   H15       1.0  0.36928  0.35793  0.23214  1.0000
  H   H16       1.0  0.40188  0.39747  0.20431  1.0000
  H   H17       1.0  0.29732  0.16870  0.33211  1.0000
  H   H18       1.0  0.14327  0.33639  0.28877  1.0000
  H   H19       1.0  0.41755  0.35406  0.26075  1.0000
  H   H20       1.0  0.22317  0.01197  0.27139  1.0000
  H   H21       1.0  0.34041  0.36253  0.16297  1.0000
  H   H22       1.0  0.30869  0.32571  0.19406  1.0000
  H   H23       1.0  0.29477  0.38530  0.19010  1.0000
  H   H24       1.0  0.31769  0.38554  0.22864  1.0000
  H   H25       1.0  0.35008  0.42292  0.19779  1.0000
  C   C22       1.0  0.98982  0.43904  0.02270  1.0000
  H   H26       1.0  0.45709  0.37344  0.10444  1.0000
  S   S6        1.0  0.35621  0.24818  0.29773  1.0000
  H   H27       1.0  0.45961  0.42419  0.10297  1.0000
  H   H28       1.0  0.02538  0.43600  0.27329  1.0000
  H   H29       1.0  0.08601  0.43839  0.21999  1.0000
  C   C23       1.0  0.05340  0.42781  0.22925  1.0000
  C   C24       1.0  0.40264  0.34168  0.15797  1.0000
  C   C25       1.0  0.99516  0.33880  0.27191  1.0000
  C   C26       1.0  0.10635  0.36838  0.29276  1.0000
  H   H30       1.0  0.42253  0.05505  0.31035  1.0000
  C   C27       1.0  0.37445  0.25649  0.19242  1.0000
  C   C28       1.0  0.43514  0.34768  0.21081  1.0000
  H   H31       1.0  0.07937  0.37770  0.24957  1.0000
  H   H32       1.0  0.00207  0.44032  0.21746  1.0000
  C   C29       1.0  0.02251  0.37035  0.29872  1.0000
  H   H33       1.0  0.00144  0.38062  0.31028  1.0000
  H   H34       1.0  0.41182  0.30317  0.25156  1.0000
  H   H35       1.0  0.99046  0.41920  0.07152  1.0000
  H   H36       1.0  0.07803  0.33874  0.30110  1.0000
  H   H37       1.0  0.41073  0.11284  0.32622  1.0000
  H   H38       1.0  0.38261  0.25727  0.16657  1.0000
  H   H39       1.0  0.39368  0.20908  0.25907  1.0000
  H   H40       1.0  0.12524  0.38642  0.31405  1.0000
  C   C30       1.0  0.09326  0.39566  0.27215  1.0000
  N   N2        1.0  0.06379  0.40844  0.28816  1.0000
  C   C31       1.0  0.05538  0.43660  0.26606  1.0000
  C   C32       1.0  0.43168  0.33764  0.24735  1.0000
  H   H41       1.0  0.38126  0.13541  0.25423  1.0000
  C   C33       1.0  0.98800  0.46970  0.00355  1.0000
  H   H42       1.0  0.29296  0.06215  0.22360  1.0000
  H   H43       1.0  0.12314  0.42468  0.26459  1.0000
  H   H44       1.0  0.14664  0.00655  0.24814  1.0000
  H   H45       1.0  0.31042  0.20310  0.18409  1.0000
  H   H46       1.0  0.40243  0.26199  0.20695  1.0000
  H   H47       1.0  0.98638  0.47926  0.09696  1.0000
  H   H48       1.0  0.32819  0.20934  0.22549  1.0000
  C   C34       1.0  0.03592  0.45233  0.21094  1.0000
  H   H49       1.0  0.47272  0.47387  0.31864  1.0000
  H   H50       1.0  0.45172  0.33229  0.19912  1.0000
  H   H51       1.0  0.40935  0.37631  0.09646  1.0000
  H   H52       1.0  0.08107  0.47041  0.26856  1.0000
  H   H53       1.0  0.03764  0.44797  0.18458  1.0000
  H   H54       1.0  0.03324  0.39380  0.22321  1.0000
  H   H55       1.0  0.46193  0.40432  0.15901  1.0000
  H   H56       1.0  0.41917  0.32438  0.14990  1.0000
  H   H57       1.0  0.01389  0.32875  0.25690  1.0000
  H   H58       1.0  0.45756  0.38229  0.20853  1.0000
  H   H59       1.0  0.25886  0.07946  0.24221  1.0000
  H   H60       1.0  0.26432  0.08019  0.19900  1.0000
  C   C35       1.0  0.98667  0.47671  0.07100  1.0000
  S   S7        1.0  0.39232  0.98749  0.15022  1.0000
  C   C36       1.0  0.22007  0.99157  0.25026  1.0000
  H   H61       1.0  0.23121  0.00166  0.19814  1.0000
  H   H62       1.0  0.47182  0.34439  0.28820  1.0000
  H   H63       1.0  0.24930  0.98879  0.25108  1.0000
  H   H64       1.0  0.07147  0.98490  0.25654  1.0000
  C   C37       1.0  0.47542  0.35150  0.26199  1.0000
  H   H65       1.0  0.09627  0.98482  0.29413  1.0000
  H   H66       1.0  0.41563  0.98244  0.08460  1.0000
  Fe  Fe4       1.0  0.35745  0.36163  0.37637  1.0000
  S   S8        1.0  0.32733  0.39322  0.34893  1.0000
  S   S9        1.0  0.37527  0.38319  0.42885  1.0000
  H   H67       1.0  0.25553  0.44963  0.40156  1.0000
  H   H68       1.0  0.21036  0.38186  0.43097  1.0000
  S   S10       1.0  0.30318  0.29523  0.36609  1.0000
  Fe  Fe5       1.0  0.01044  0.34995  0.40599  1.0000
  C   C38       1.0  0.99740  0.46342  0.51645  1.0000
  S   S11       1.0  0.08210  0.37193  0.39865  1.0000
  H   H69       1.0  0.29524  0.47196  0.43318  1.0000
  C   C39       1.0  0.46547  0.46648  0.49156  1.0000
  C   C40       1.0  0.38258  0.04306  0.36525  1.0000
  H   H70       1.0  0.08760  0.30252  0.48756  1.0000
  C   C41       1.0  0.23835  0.38443  0.44397  1.0000
  S   S12       1.0  0.99340  0.40235  0.40452  1.0000
  H   H71       1.0  0.30625  0.41020  0.43028  1.0000
  H   H72       1.0  0.36883  0.05127  0.38618  1.0000
  H   H73       1.0  0.44888  0.03756  0.33612  1.0000
  C   C42       1.0  0.27631  0.40669  0.42018  1.0000
  C   C43       1.0  0.42533  0.42068  0.44594  1.0000
  C   C44       1.0  0.45657  0.99391  0.61148  1.0000
  H   H74       1.0  0.43483  0.08068  0.41125  1.0000
  C   C45       1.0  0.12527  0.29675  0.35751  1.0000
  C   C46       1.0  0.09793  0.31048  0.37054  1.0000
  C   C47       1.0  0.11441  0.35255  0.38086  1.0000
  C   C48       1.0  0.15853  0.38068  0.37727  1.0000
  C   C49       1.0  0.18575  0.36706  0.36389  1.0000
  H   H75       1.0  0.06416  0.28832  0.37295  1.0000
  C   C50       1.0  0.42665  0.11729  0.35012  1.0000
  H   H76       1.0  0.32071  0.31119  0.48661  1.0000
  C   C51       1.0  0.45481  0.08638  0.38936  1.0000
  C   C52       1.0  0.28469  0.45110  0.41154  1.0000
  H   H77       1.0  0.41420  0.13215  0.39924  1.0000
  N   N3        1.0  0.42797  0.07766  0.35928  1.0000
  N   N4        1.0  0.22901  0.34154  0.45638  1.0000
  C   C53       1.0  0.19439  0.32802  0.48151  1.0000
  C   C54       1.0  0.26965  0.34675  0.47110  1.0000
  C   C55       1.0  0.46374  0.43458  0.42945  1.0000
  C   C56       1.0  0.21506  0.31106  0.42827  1.0000
  C   C57       1.0  0.20090  0.26429  0.43623  1.0000
  C   C58       1.0  0.15097  0.32195  0.46957  1.0000
  H   H78       1.0  0.24455  0.40663  0.46454  1.0000
  C   C59       1.0  0.26535  0.31708  0.49942  1.0000
  H   H79       1.0  0.17175  0.41343  0.38474  1.0000
  C   C60       1.0  0.18203  0.23581  0.40662  1.0000
  C   C61       1.0  0.11805  0.30605  0.49671  1.0000
  H   H80       1.0  0.11203  0.26398  0.35005  1.0000
  H   H81       1.0  0.98385  0.46223  0.33849  1.0000
  H   H82       1.0  0.18730  0.29768  0.49298  1.0000
  H   H83       1.0  0.28957  0.34340  0.45211  1.0000
  C   C62       1.0  0.16950  0.32474  0.35436  1.0000
  C   C63       1.0  0.30843  0.32111  0.50752  1.0000
  H   H84       1.0  0.12922  0.32908  0.51705  1.0000
  H   H85       1.0  0.18892  0.31177  0.41487  1.0000
  H   H86       1.0  0.24126  0.32119  0.41038  1.0000
  H   H87       1.0  0.17622  0.25146  0.45529  1.0000
  H   H88       1.0  0.22887  0.26170  0.44385  1.0000
  H   H89       1.0  0.15413  0.35229  0.46099  1.0000
  H   H90       1.0  0.13768  0.29830  0.44974  1.0000
  H   H91       1.0  0.26904  0.38819  0.39755  1.0000
  H   H92       1.0  0.33211  0.35445  0.51393  1.0000
  H   H93       1.0  0.39185  0.99850  0.39512  1.0000
  H   H94       1.0  0.24268  0.28331  0.49408  1.0000
  H   H95       1.0  0.45923  0.02713  0.38793  1.0000
  H   H96       1.0  0.28969  0.37949  0.48097  1.0000
  H   H97       1.0  0.44662  0.20025  0.36909  1.0000
  H   H98       1.0  0.20624  0.24566  0.38717  1.0000
  H   H99       1.0  0.17157  0.20237  0.41304  1.0000
  H   H100      1.0  0.15404  0.23738  0.39741  1.0000
  H   H101      1.0  0.11186  0.27462  0.50550  1.0000
  H   H102      1.0  0.25392  0.32610  0.52132  1.0000
  H   H103      1.0  0.30490  0.30044  0.52831  1.0000
  H   H104      1.0  0.40262  0.17790  0.34089  1.0000
  H   H105      1.0  0.20570  0.35173  0.50152  1.0000
  C   C64       1.0  0.37539  0.99827  0.37260  1.0000
  C   C65       1.0  0.42647  0.43677  0.47707  1.0000
  H   H106      1.0  0.36858  0.11046  0.37264  1.0000
  C   C66       1.0  0.41227  0.17663  0.36607  1.0000
  C   C67       1.0  0.40364  0.13197  0.37412  1.0000
  H   H107      1.0  0.39358  0.18542  0.38244  1.0000
  H   H108      1.0  0.39702  0.42625  0.49011  1.0000
  H   H109      1.0  0.45953  0.14458  0.34709  1.0000
  H   H110      1.0  0.21927  0.38938  0.36074  1.0000
  H   H111      1.0  0.43254  0.45952  0.36557  1.0000
  H   H112      1.0  0.46329  0.42177  0.40583  1.0000
  H   H113      1.0  0.36236  0.04014  0.34405  1.0000
  H   H114      1.0  0.01551  0.46258  0.49598  1.0000
  H   H115      1.0  0.09221  0.45847  0.38247  1.0000
  S   S13       1.0  0.20272  0.30491  0.33902  1.0000
  H   H116      1.0  0.38645  0.98632  0.35233  1.0000
  H   H117      1.0  0.37719  0.46079  0.39754  1.0000
  H   H118      1.0  0.44625  0.01355  0.59934  1.0000
  H   H119      1.0  0.08858  0.41302  0.33650  1.0000
  Fe  Fe6       1.0  0.27497  0.32767  0.33662  1.0000
  C   C68       1.0  0.06552  0.45710  0.33506  1.0000
  H   H120      1.0  0.03272  0.43421  0.34283  1.0000
  H   H121      1.0  0.46089  0.32507  0.65468  1.0000
  H   H122      1.0  0.31016  0.46527  0.39302  1.0000
  C   C69       1.0  0.09083  0.48087  0.36500  1.0000
  H   H123      1.0  0.46579  0.47845  0.51553  1.0000
  S   S14       1.0  0.40435  0.99114  0.66070  1.0000
  H   H124      1.0  0.47007  0.05122  0.44512  1.0000
  S   S15       1.0  0.39650  0.36136  0.33407  1.0000
  Fe  Fe7       1.0  0.34610  0.27652  0.83560  1.0000
  S   S16       1.0  0.32082  0.30479  0.79942  1.0000
  S   S17       1.0  0.34809  0.21414  0.83846  1.0000
  Fe  Fe8       1.0  0.39318  0.36129  0.87379  1.0000
  S   S18       1.0  0.37340  0.39563  0.83876  1.0000
  S   S19       1.0  0.42775  0.38087  0.92258  1.0000
  Fe  Fe9       1.0  0.30796  0.33693  0.84154  1.0000
  S   S20       1.0  0.25378  0.35322  0.84475  1.0000
  Fe  Fe10      1.0  0.38743  0.36159  0.79898  1.0000
  S   S21       1.0  0.41670  0.37769  0.74812  1.0000
  S   S22       1.0  0.32759  0.30367  0.87766  1.0000
  S   S23       1.0  0.41270  0.33228  0.83395  1.0000
  Fe  Fe11      1.0  0.02738  0.32428  0.91544  1.0000
  H   H125      1.0  0.11913  0.22697  0.85333  1.0000
  S   S24       1.0  0.07758  0.30254  0.91769  1.0000
  C   C70       1.0  0.35443  0.26701  0.72258  1.0000
  H   H126      1.0  0.33830  0.20498  0.74044  1.0000
  H   H127      1.0  0.15569  0.23511  0.78498  1.0000
  H   H128      1.0  0.46063  0.25251  0.69902  1.0000
  H   H129      1.0  0.32866  0.32326  0.95211  1.0000
  S   S25       1.0  0.04204  0.39212  0.91710  1.0000
  C   C71       1.0  0.98969  0.47658  0.76123  1.0000
  C   C72       1.0  0.34160  0.03250  0.92175  1.0000
  Fe  Fe12      1.0  0.32017  0.99928  0.75441  1.0000
  H   H130      1.0  0.30934  0.05647  0.87714  1.0000
  S   S26       1.0  0.29257  0.04408  0.75707  1.0000
  C   C73       1.0  0.46523  0.42559  0.97801  1.0000
  H   H131      1.0  0.42390  0.13594  0.70089  1.0000
  S   S27       1.0  0.39005  0.02310  0.74989  1.0000
  H   H132      1.0  0.43870  0.32319  0.71166  1.0000
  H   H133      1.0  0.26711  0.43287  0.88935  1.0000
  C   C74       1.0  0.45672  0.42024  0.69252  1.0000
  H   H134      1.0  0.28071  0.16831  0.78999  1.0000
  C   C75       1.0  0.46009  0.31069  0.70575  1.0000
  H   H135      1.0  0.01245  0.27015  0.82762  1.0000
  C   C76       1.0  0.38943  0.12522  0.70327  1.0000
  C   C77       1.0  0.27798  0.44849  0.91340  1.0000
  H   H136      1.0  0.06071  0.23604  0.87398  1.0000
  C   C78       1.0  0.20557  0.33927  0.86622  1.0000
  C   C79       1.0  0.18354  0.36122  0.85935  1.0000
  C   C80       1.0  0.14494  0.35109  0.87517  1.0000
  C   C81       1.0  0.12754  0.31860  0.89812  1.0000
  C   C82       1.0  0.14973  0.29684  0.90512  1.0000
  C   C83       1.0  0.18842  0.30708  0.88940  1.0000
  H   H137      1.0  0.19632  0.38621  0.84150  1.0000
  H   H138      1.0  0.12852  0.36827  0.86943  1.0000
  H   H139      1.0  0.13671  0.27160  0.92276  1.0000
  H   H140      1.0  0.20474  0.28977  0.89502  1.0000
  C   C84       1.0  0.33362  0.16866  0.81375  1.0000
  C   C85       1.0  0.35677  0.14715  0.81679  1.0000
  C   C86       1.0  0.34530  0.10955  0.79923  1.0000
  C   C87       1.0  0.31002  0.09260  0.77861  1.0000
  C   C88       1.0  0.28734  0.11457  0.77510  1.0000
  C   C89       1.0  0.29908  0.15239  0.79245  1.0000
  H   H141      1.0  0.38395  0.15998  0.83277  1.0000
  H   H142      1.0  0.36359  0.09359  0.80172  1.0000
  H   H143      1.0  0.26003  0.10184  0.75920  1.0000
  C   C90       1.0  0.40276  0.19331  0.73104  1.0000
  H   H144      1.0  0.05268  0.17859  0.77782  1.0000
  C   C91       1.0  0.06769  0.31404  0.80060  1.0000
  H   H145      1.0  0.09352  0.19164  0.82026  1.0000
  H   H146      1.0  0.38457  0.17589  0.75285  1.0000
  C   C92       1.0  0.98638  0.43720  0.81028  1.0000
  C   C93       1.0  0.09774  0.25486  0.81608  1.0000
  H   H147      1.0  0.30361  0.28202  0.71945  1.0000
  H   H148      1.0  0.28901  0.23327  0.74038  1.0000
  H   H149      1.0  0.28173  0.39298  0.96072  1.0000
  H   H150      1.0  0.39396  0.24048  0.77974  1.0000
  C   C94       1.0  0.30637  0.33595  0.95305  1.0000
  C   C95       1.0  0.36087  0.22801  0.72250  1.0000
  H   H151      1.0  0.41136  0.10927  0.90134  1.0000
  S   S28       1.0  0.97612  0.30404  0.87751  1.0000
  N   N5        1.0  0.40535  0.23614  0.72914  1.0000
  C   C96       1.0  0.41969  0.25728  0.76169  1.0000
  H   H152      1.0  0.45262  0.22688  0.78403  1.0000
  H   H153      1.0  0.34680  0.14994  0.70222  1.0000
  H   H154      1.0  0.36630  0.44780  0.98348  1.0000
  C   C97       1.0  0.47025  0.46873  0.93222  1.0000
  C   C98       1.0  0.15851  0.23892  0.81158  1.0000
  H   H155      1.0  0.33390  0.37460  0.91117  1.0000
  C   C99       1.0  0.30722  0.25338  0.71957  1.0000
  C   C100      1.0  0.23754  0.43019  0.93507  1.0000
  C   C101      1.0  0.11505  0.22527  0.82670  1.0000
  H   H156      1.0  0.41059  0.04497  0.88603  1.0000
  H   H157      1.0  0.02446  0.44321  0.76850  1.0000
  H   H158      1.0  0.17135  0.21900  0.82113  1.0000
  H   H159      1.0  0.38749  0.04208  0.84778  1.0000
  H   H160      1.0  0.27470  0.01132  0.93195  1.0000
  H   H161      1.0  0.11880  0.28525  0.82886  1.0000
  H   H162      1.0  0.24550  0.44019  0.96053  1.0000
  H   H163      1.0  0.23447  0.03026  0.86222  1.0000
  H   H164      1.0  0.22099  0.47957  0.92710  1.0000
  H   H165      1.0  0.18149  0.27260  0.81747  1.0000
  Fe  Fe13      1.0  0.98906  0.37165  0.88029  1.0000
  H   H166      1.0  0.98866  0.46739  0.97758  1.0000
  H   H167      1.0  0.06016  0.29515  0.85046  1.0000
  N   N6        1.0  0.05143  0.24037  0.82317  1.0000
  C   C102      1.0  0.04671  0.27930  0.82698  1.0000
  H   H168      1.0  0.10454  0.26204  0.78994  1.0000
  H   H169      1.0  0.10291  0.32871  0.80083  1.0000
  H   H170      1.0  0.03327  0.23317  0.77295  1.0000
  H   H171      1.0  0.45451  0.15804  0.85813  1.0000
  H   H172      1.0  0.04096  0.18728  0.85366  1.0000
  C   C103      1.0  0.29629  0.39762  0.93633  1.0000
  C   C104      1.0  0.34511  0.45298  0.89811  1.0000
  H   H173      1.0  0.36598  0.28542  0.74522  1.0000
  C   C105      1.0  0.38187  0.16304  0.70189  1.0000
  H   H174      1.0  0.44106  0.38908  0.68151  1.0000
  C   C106      1.0  0.38630  0.04993  0.87362  1.0000
  H   H175      1.0  0.39480  0.17982  0.67874  1.0000
  Fe  Fe14      1.0  0.98972  0.37102  0.95437  1.0000
  H   H176      1.0  0.32956  0.00631  0.98641  1.0000
  H   H177      1.0  0.22010  0.39490  0.93423  1.0000
  C   C107      1.0  0.44954  0.42443  0.72539  1.0000
  H   H178      1.0  0.32828  0.43079  0.87770  1.0000
  H   H179      1.0  0.36854  0.03278  0.93492  1.0000
  H   H180      1.0  0.02272  0.33737  0.80459  1.0000
  S   S29       1.0  0.42711  0.99736  0.82582  1.0000
  H   H181      1.0  0.17667  0.42829  0.93756  1.0000
  H   H182      1.0  0.34739  0.06551  0.92399  1.0000
  H   H183      1.0  0.24957  0.02030  0.82295  1.0000
  C   C108      1.0  0.33475  0.47359  0.95368  1.0000
  H   H184      1.0  0.37864  0.10634  0.86785  1.0000
  H   H185      1.0  0.42494  0.29010  0.76157  1.0000
  H   H186      1.0  0.26991  0.37606  0.91984  1.0000
  H   H187      1.0  0.31629  0.04790  0.98115  1.0000
  H   H188      1.0  0.35749  0.39999  0.94831  1.0000
  C   C109      1.0  0.45601  0.42850  0.94546  1.0000
  C   C110      1.0  0.32676  0.37913  0.93638  1.0000
  C   C111      1.0  0.98337  0.17860  0.89860  1.0000
  H   H189      1.0  0.31184  0.46511  0.97393  1.0000
  H   H190      1.0  0.34955  0.21292  0.69847  1.0000
  H   H191      1.0  0.45415  0.39461  0.98854  1.0000
  H   H192      1.0  0.46354  0.47154  0.90724  1.0000
  H   H193      1.0  0.05601  0.30093  0.77621  1.0000
  H   H194      1.0  0.37142  0.44706  0.90456  1.0000
  H   H195      1.0  0.32324  0.03832  0.84203  1.0000
  C   C112      1.0  0.40285  0.09833  0.87600  1.0000
  S   S30       1.0  0.00446  0.40658  0.83166  1.0000
  C   C113      1.0  0.00227  0.45158  0.77904  1.0000
  H   H196      1.0  0.39842  0.47896  0.94986  1.0000
  C   C114      1.0  0.20681  0.44479  0.92355  1.0000
  C   C115      1.0  0.02310  0.21454  0.79563  1.0000
  N   N7        1.0  0.31445  0.44325  0.92576  1.0000
  H   H197      1.0  0.37210  0.10283  0.68324  1.0000
  C   C116      1.0  0.31134  0.02899  0.86717  1.0000
  N   N8        1.0  0.34211  0.02118  0.88685  1.0000
  C   C117      1.0  0.30566  0.01391  0.97643  1.0000
  C   C118      1.0  0.05759  0.34971  0.80629  1.0000
  H   H198      1.0  0.29962  0.33902  0.97872  1.0000
  C   C119      1.0  0.26515  0.99151  0.86291  1.0000
  C   C120      1.0  0.99247  0.20222  0.86657  1.0000
  H   H199      1.0  0.06885  0.36433  0.83046  1.0000
  H   H200      1.0  0.37093  0.28776  0.70171  1.0000
  H   H201      1.0  0.46980  0.05566  0.70869  1.0000
  H   H202      1.0  0.00618  0.19948  0.91737  1.0000
  H   H203      1.0  0.07369  0.37484  0.78782  1.0000
  C   C121      1.0  0.23672  0.00626  0.84697  1.0000
  C   C122      1.0  0.29971  0.00440  0.94030  1.0000
  H   H204      1.0  0.01387  0.15174  0.80950  1.0000
  H   H205      1.0  0.27631  0.31306  0.94069  1.0000
  H   H206      1.0  0.45358  0.27761  0.82411  1.0000
  C   C123      1.0  0.46030  0.25893  0.77554  1.0000
  H   H207      1.0  0.37745  0.10783  0.72636  1.0000
  H   H208      1.0  0.29373  0.23548  0.69682  1.0000
  C   C124      1.0  0.02162  0.17216  0.78792  1.0000
  C   C125      1.0  0.43557  0.26151  0.70220  1.0000
  H   H209      1.0  0.19905  0.43713  0.89765  1.0000
  H   H210      1.0  0.43574  0.11480  0.82967  1.0000
  H   H211      1.0  0.43514  0.19730  0.73386  1.0000
  C   C126      1.0  0.03824  0.21630  0.85461  1.0000
  C   C127      1.0  0.44287  0.12352  0.85552  1.0000
  S   S31       1.0  0.97858  0.30411  0.95544  1.0000
  H   H212      1.0  0.46485  0.46881  0.76441  1.0000
  H   H213      1.0  0.27493  0.99414  0.98912  1.0000
  C   C128      1.0  0.46985  0.46500  0.73920  1.0000
  H   H214      1.0  0.41822  0.25345  0.67878  1.0000
  C   C129      1.0  0.98773  0.14685  0.76248  1.0000
  C   C130      1.0  0.37530  0.47627  0.96847  1.0000
  H   H215      1.0  0.47108  0.00671  0.75757  1.0000
  H   H216      1.0  0.98988  0.20781  0.79965  1.0000
  H   H217      1.0  0.99436  0.16547  0.73989  1.0000
  H   H218      1.0  0.98821  0.22997  0.87085  1.0000
  H   H219      1.0  0.98787  0.11699  0.75689  1.0000
  H   H220      1.0  0.46848  0.11715  0.86343  1.0000
  H   H221      1.0  0.98580  0.14944  0.89595  1.0000
  S   S32       1.0  0.36176  0.92108  0.23004  1.0000
  Fe  Fe15      1.0  0.29927  0.91533  0.24546  1.0000
  S   S33       1.0  0.23775  0.85061  0.25079  1.0000
  H   H222      1.0  0.29081  0.91476  0.10769  1.0000
  S   S34       1.0  0.03704  0.60118  0.15599  1.0000
  H   H223      1.0  0.19372  0.92546  0.20903  1.0000
  H   H224      1.0  0.29384  0.94374  0.14372  1.0000
  S   S35       1.0  0.99993  0.54460  0.24050  1.0000
  H   H225      1.0  0.45433  0.52682  0.30600  1.0000
  Fe  Fe16      1.0  0.02641  0.65701  0.16094  1.0000
  S   S36       1.0  0.08142  0.72685  0.15879  1.0000
  H   H226      1.0  0.37710  0.51379  0.01032  1.0000
  C   C131      1.0  0.19388  0.81717  0.22514  1.0000
  C   C132      1.0  0.16446  0.77571  0.23536  1.0000
  C   C133      1.0  0.13009  0.74751  0.21549  1.0000
  C   C134      1.0  0.12454  0.76043  0.18500  1.0000
  C   C135      1.0  0.15404  0.80191  0.17480  1.0000
  C   C136      1.0  0.18819  0.83019  0.19475  1.0000
  H   H227      1.0  0.16835  0.76509  0.25878  1.0000
  H   H228      1.0  0.10782  0.71580  0.22379  1.0000
  H   H229      1.0  0.15014  0.81228  0.15128  1.0000
  H   H230      1.0  0.20992  0.86205  0.18665  1.0000
  C   C137      1.0  0.21765  0.90579  0.32609  1.0000
  H   H231      1.0  0.47280  0.52757  0.17797  1.0000
  C   C138      1.0  0.46506  0.97965  0.15323  1.0000
  C   C139      1.0  0.43735  0.49170  0.21982  1.0000
  H   H232      1.0  0.98443  0.52732  0.00302  1.0000
  H   H233      1.0  0.23958  0.89785  0.31303  1.0000
  N   N9        1.0  0.18054  0.94814  0.25333  1.0000
  S   S37       1.0  0.97740  0.62691  0.20016  1.0000
  Fe  Fe17      1.0  0.98565  0.56959  0.19393  1.0000
  H   H234      1.0  0.11164  0.95686  0.22782  1.0000
  C   C140      1.0  0.29341  0.88463  0.15229  1.0000
  S   S38       1.0  0.44818  0.97063  0.30044  1.0000
  C   C141      1.0  0.27954  0.91145  0.13299  1.0000
  H   H235      1.0  0.15931  0.94639  0.20406  1.0000
  H   H236      1.0  0.47242  0.82776  0.04499  1.0000
  C   C142      1.0  0.19187  0.92058  0.27348  1.0000
  H   H237      1.0  0.09683  0.88596  0.17662  1.0000
  S   S39       1.0  0.30770  0.97123  0.21658  1.0000
  H   H238      1.0  0.13744  0.87171  0.16971  1.0000
  Fe  Fe18      1.0  0.98280  0.57430  0.12019  1.0000
  C   C143      1.0  0.16677  0.92714  0.22067  1.0000
  C   C144      1.0  0.98561  0.50366  0.01807  1.0000
  C   C145      1.0  0.12776  0.88144  0.22031  1.0000
  H   H239      1.0  0.28404  0.88461  0.17775  1.0000
  S   S40       1.0  0.98268  0.55154  0.06852  1.0000
  H   H240      1.0  0.08645  0.83316  0.18594  1.0000
  C   C146      1.0  0.11123  0.86736  0.18602  1.0000
  H   H241      1.0  0.13679  0.85854  0.22999  1.0000
  H   H242      1.0  0.18999  0.94545  0.32190  1.0000
  H   H243      1.0  0.41334  0.50100  0.21758  1.0000
  H   H244      1.0  0.18673  0.87613  0.32977  1.0000
  C   C147      1.0  0.21122  0.93827  0.30724  1.0000
  H   H245      1.0  0.01480  0.52753  0.30498  1.0000
  H   H246      1.0  0.24265  0.96771  0.30509  1.0000
  N   N10       1.0  0.28788  0.81067  0.15322  1.0000
  C   C148      1.0  0.27246  0.83869  0.13884  1.0000
  C   C149      1.0  0.26653  0.76867  0.13555  1.0000
  C   C150      1.0  0.27670  0.80478  0.18853  1.0000
  C   C151      1.0  0.33560  0.83039  0.14992  1.0000
  C   C152      1.0  0.35424  0.84671  0.11583  1.0000
  C   C153      1.0  0.28716  0.77399  0.20691  1.0000
  C   C154      1.0  0.21761  0.74045  0.14080  1.0000
  C   C155      1.0  0.19951  0.69943  0.12114  1.0000
  C   C156      1.0  0.40225  0.86329  0.11515  1.0000
  C   C157      1.0  0.27228  0.76913  0.24192  1.0000
  H   H247      1.0  0.23769  0.82481  0.14290  1.0000
  H   H248      1.0  0.27627  0.84024  0.11216  1.0000
  H   H249      1.0  0.27146  0.77395  0.10912  1.0000
  H   H250      1.0  0.28161  0.74941  0.14188  1.0000
  H   H251      1.0  0.24238  0.79390  0.19195  1.0000
  H   H252      1.0  0.29378  0.83566  0.20151  1.0000
  H   H253      1.0  0.35246  0.85733  0.16717  1.0000
  H   H254      1.0  0.34560  0.80709  0.15686  1.0000
  H   H255      1.0  0.34938  0.87331  0.10839  1.0000
  H   H256      1.0  0.33913  0.82101  0.09761  1.0000
  H   H257      1.0  0.32855  0.90059  0.15129  1.0000
  H   H258      1.0  0.32204  0.78633  0.20721  1.0000
  H   H259      1.0  0.27121  0.74191  0.19584  1.0000
  H   H260      1.0  0.20984  0.73119  0.16643  1.0000
  H   H261      1.0  0.20035  0.75707  0.13329  1.0000
  H   H262      1.0  0.16459  0.68004  0.12537  1.0000
  H   H263      1.0  0.20482  0.70653  0.09497  1.0000
  H   H264      1.0  0.21446  0.68046  0.12847  1.0000
  H   H265      1.0  0.41521  0.87654  0.09097  1.0000
  H   H266      1.0  0.41882  0.88905  0.13321  1.0000
  H   H267      1.0  0.40909  0.83729  0.12021  1.0000
  H   H268      1.0  0.28025  0.74723  0.25477  1.0000
  H   H269      1.0  0.28824  0.80037  0.25448  1.0000
  H   H270      1.0  0.23721  0.75583  0.24305  1.0000
  H   H271      1.0  0.05463  0.48685  0.21653  1.0000
  S   S41       1.0  0.32859  0.95536  0.29008  1.0000
  C   C158      1.0  0.14539  0.95137  0.27041  1.0000
  H   H272      1.0  0.10096  0.87906  0.23484  1.0000
  C   C159      1.0  0.99028  0.49774  0.29498  1.0000
  H   H273      1.0  0.21516  0.91451  0.26029  1.0000
  C   C160      1.0  0.12385  0.97227  0.25153  1.0000
  H   H274      1.0  0.12010  0.91948  0.27862  1.0000
  H   H275      1.0  0.47402  0.90378  0.18156  1.0000
  C   C161      1.0  0.08591  0.96900  0.27025  1.0000
  H   H276      1.0  0.24431  0.89688  0.13328  1.0000
  C   C162      1.0  0.98517  0.50757  0.05184  1.0000
  H   H277      1.0  0.16335  0.88882  0.27759  1.0000
  C   C163      1.0  0.47102  0.50686  0.19733  1.0000
  H   H278      1.0  0.45632  0.56683  0.25640  1.0000
  Fe  Fe19      1.0  0.37212  0.97905  0.20322  1.0000
  Fe  Fe20      1.0  0.39149  0.96559  0.27226  1.0000
  H   H279      1.0  0.06116  0.93519  0.27378  1.0000
  H   H280      1.0  0.15765  0.97034  0.29291  1.0000
  C   C164      1.0  0.47266  0.97739  0.08593  1.0000
  H   H281      1.0  0.46655  0.83825  0.15744  1.0000
  H   H282      1.0  0.45177  0.86057  0.20981  1.0000
  C   C165      1.0  0.97592  0.49677  0.26331  1.0000
  H   H283      1.0  0.46515  0.77902  0.06279  1.0000
  H   H284      1.0  0.47539  0.97669  0.05999  1.0000
  C   C166      1.0  0.43874  0.98058  0.09998  1.0000
  C   C167      1.0  0.43479  0.98191  0.13370  1.0000
  H   H285      1.0  0.46274  0.98096  0.17917  1.0000
  H   H286      1.0  0.42657  0.51509  0.00162  1.0000
  C   C168      1.0  0.33338  0.86776  0.60375  1.0000
  H   H287      1.0  0.07502  0.49677  0.37695  1.0000
  C   C169      1.0  0.21499  0.80271  0.63336  1.0000
  C   C170      1.0  0.36611  0.89209  0.54824  1.0000
  C   C171      1.0  0.99388  0.49778  0.56655  1.0000
  H   H288      1.0  0.32450  0.91559  0.65002  1.0000
  C   C172      1.0  0.32447  0.86944  0.56734  1.0000
  H   H289      1.0  0.25394  0.89517  0.60016  1.0000
  H   H290      1.0  0.35907  0.89187  0.52217  1.0000
  H   H291      1.0  0.12377  0.50541  0.35834  1.0000
  S   S42       1.0  0.01977  0.54014  0.59478  1.0000
  H   H292      1.0  0.34608  0.84541  0.60482  1.0000
  H   H293      1.0  0.37513  0.86424  0.65436  1.0000
  H   H294      1.0  0.25867  0.79377  0.60299  1.0000
  C   C173      1.0  0.28333  0.91641  0.61376  1.0000
  H   H295      1.0  0.41576  0.49264  0.34583  1.0000
  C   C174      1.0  0.42272  0.77282  0.42677  1.0000
  H   H296      1.0  0.36044  0.89938  0.61108  1.0000
  H   H297      1.0  0.16944  0.78711  0.59406  1.0000
  H   H298      1.0  0.30560  0.83660  0.55764  1.0000
  C   C175      1.0  0.42163  0.93293  0.36096  1.0000
  Fe  Fe21      1.0  0.99065  0.56212  0.63426  1.0000
  H   H299      1.0  0.42385  0.77176  0.49539  1.0000
  H   H300      1.0  0.30899  0.96634  0.35688  1.0000
  C   C176      1.0  0.00201  0.60192  0.52793  1.0000
  H   H301      1.0  0.36385  0.71481  0.43884  1.0000
  H   H302      1.0  0.32346  0.93421  0.38092  1.0000
  C   C177      1.0  0.25527  0.82105  0.61162  1.0000
  N   N11       1.0  0.29648  0.85400  0.62700  1.0000
  C   C178      1.0  0.17518  0.77124  0.61472  1.0000
  H   H303      1.0  0.17844  0.74413  0.60578  1.0000
  H   H304      1.0  0.14695  0.75849  0.63086  1.0000
  H   H305      1.0  0.30636  0.97467  0.64174  1.0000
  C   C179      1.0  0.01695  0.49585  0.53987  1.0000
  H   H306      1.0  0.43242  0.80794  0.54785  1.0000
  H   H307      1.0  0.40292  0.90281  0.40758  1.0000
  S   S43       1.0  0.98096  0.61797  0.62519  1.0000
  H   H308      1.0  0.38504  0.87590  0.55146  1.0000
  H   H309      1.0  0.38933  0.91879  0.35203  1.0000
  H   H310      1.0  0.27038  0.88243  0.65922  1.0000
  C   C180      1.0  0.42946  0.92380  0.39243  1.0000
  H   H311      1.0  0.02764  0.59512  0.53491  1.0000
  H   H312      1.0  0.05014  0.51979  0.53718  1.0000
  H   H313      1.0  0.41785  0.79143  0.44574  1.0000
  C   C181      1.0  0.32810  0.96663  0.37786  1.0000
  H   H314      1.0  0.00868  0.63220  0.53960  1.0000
  H   H315      1.0  0.31054  0.93301  0.59693  1.0000
  H   H316      1.0  0.38555  0.92567  0.55628  1.0000
  C   C182      1.0  0.29376  0.89180  0.63912  1.0000
  H   H317      1.0  0.35807  0.74792  0.40937  1.0000
  C   C183      1.0  0.45397  0.95231  0.65761  1.0000
  H   H318      1.0  0.30630  0.88586  0.56257  1.0000
  H   H319      1.0  0.31635  0.97504  0.39985  1.0000
  H   H320      1.0  0.24786  0.83360  0.58977  1.0000
  H   H321      1.0  0.29989  0.80164  0.64886  1.0000
  C   C184      1.0  0.45369  0.75703  0.43735  1.0000
  C   C185      1.0  0.40867  0.49027  0.39693  1.0000
  H   H322      1.0  0.00259  0.60533  0.50132  1.0000
  C   C186      1.0  0.45568  0.95931  0.34085  1.0000
  C   C187      1.0  0.45579  0.79823  0.50217  1.0000
  H   H323      1.0  0.45939  0.82843  0.49293  1.0000
  C   C188      1.0  0.37905  0.73562  0.41766  1.0000
  H   H324      1.0  0.20936  0.82823  0.64251  1.0000
  H   H325      1.0  0.21798  0.78531  0.65418  1.0000
  H   H326      1.0  0.26841  0.96724  0.61085  1.0000
  H   H327      1.0  0.43608  0.72944  0.45378  1.0000
  C   C189      1.0  0.44053  0.97784  0.64231  1.0000
  H   H328      1.0  0.40348  0.51793  0.39675  1.0000
  H   H329      1.0  0.38208  0.71668  0.39782  1.0000
  C   C190      1.0  0.45692  0.80045  0.53902  1.0000
  C   C191      1.0  0.30455  0.83340  0.65571  1.0000
  C   C192      1.0  0.27665  0.95071  0.62954  1.0000
  H   H330      1.0  0.43540  0.79361  0.40532  1.0000
  C   C193      1.0  0.47132  0.94096  0.40426  1.0000
  H   H331      1.0  0.23152  0.91897  0.35009  1.0000
  H   H332      1.0  0.45019  0.76956  0.54941  1.0000
  H   H333      1.0  0.42621  0.49154  0.41921  1.0000
  C   C194      1.0  0.43328  0.49046  0.36687  1.0000
  H   H334      1.0  0.25022  0.93651  0.64735  1.0000
  H   H335      1.0  0.45967  0.74330  0.41524  1.0000
  S   S44       1.0  0.36777  0.92397  0.74468  1.0000
  Fe  Fe22      1.0  0.29772  0.90504  0.74750  1.0000
  S   S45       1.0  0.24998  0.83323  0.74098  1.0000
  C   C195      1.0  0.07360  0.58667  0.77162  1.0000
  H   H336      1.0  0.10203  0.65948  0.83202  1.0000
  N   N12       1.0  0.06756  0.61796  0.79180  1.0000
  H   H337      1.0  0.20089  0.74728  0.79362  1.0000
  H   H338      1.0  0.02098  0.52650  0.88281  1.0000
  C   C196      1.0  0.46065  0.92079  0.87484  1.0000
  C   C197      1.0  0.19810  0.80125  0.72343  1.0000
  C   C198      1.0  0.18158  0.75708  0.72025  1.0000
  C   C199      1.0  0.14042  0.73014  0.70736  1.0000
  C   C200      1.0  0.11479  0.74686  0.69753  1.0000
  C   C201      1.0  0.13161  0.79114  0.70019  1.0000
  C   C202      1.0  0.17286  0.81813  0.71294  1.0000
  H   H339      1.0  0.20083  0.74355  0.72783  1.0000
  H   H340      1.0  0.12857  0.69646  0.70492  1.0000
  H   H341      1.0  0.00287  0.57222  0.80595  1.0000
  H   H342      1.0  0.18480  0.85190  0.71506  1.0000
  H   H343      1.0  0.42926  0.84888  0.75370  1.0000
  H   H344      1.0  0.07766  0.58086  0.84772  1.0000
  C   C203      1.0  0.44167  0.87591  0.77091  1.0000
  S   S46       1.0  0.30397  0.95435  0.71215  1.0000
  H   H345      1.0  0.12341  0.71183  0.78874  1.0000
  H   H346      1.0  0.02155  0.57641  0.88453  1.0000
  H   H347      1.0  0.41678  0.91257  0.83644  1.0000
  C   C204      1.0  0.35331  0.83470  0.70016  1.0000
  H   H348      1.0  0.13065  0.58353  0.70462  1.0000
  H   H349      1.0  0.13958  0.62366  0.75483  1.0000
  C   C205      1.0  0.03103  0.69799  0.76652  1.0000
  C   C206      1.0  0.10865  0.64947  0.80829  1.0000
  C   C207      1.0  0.03394  0.66619  0.78884  1.0000
  S   S47       1.0  0.02708  0.58928  0.68079  1.0000
  H   H350      1.0  0.03001  0.61465  0.83360  1.0000
  H   H351      1.0  0.28113  0.82753  0.67526  1.0000
  H   H352      1.0  0.08370  0.56807  0.78673  1.0000
  H   H353      1.0  0.45640  0.86849  0.79153  1.0000
  H   H354      1.0  0.04263  0.56326  0.76057  1.0000
  C   C208      1.0  0.01510  0.54907  0.86876  1.0000
  C   C209      1.0  0.45011  0.97716  0.85348  1.0000
  H   H355      1.0  0.42162  0.49752  0.86460  1.0000
  H   H356      1.0  0.32917  0.82946  0.71886  1.0000
  H   H357      1.0  0.19846  0.69903  0.80716  1.0000
  H   H358      1.0  0.06313  0.72153  0.75742  1.0000
  S   S48       1.0  0.06193  0.71440  0.68168  1.0000
  C   C210      1.0  0.04416  0.56403  0.83919  1.0000
  C   C211      1.0  0.10655  0.56959  0.72414  1.0000
  H   H359      1.0  0.35249  0.91260  0.87055  1.0000
  H   H360      1.0  0.17669  0.72491  0.83192  1.0000
  H   H361      1.0  0.11416  0.54906  0.73928  1.0000
  C   C212      1.0  0.34765  0.91647  0.89652  1.0000
  H   H362      1.0  0.41449  0.87916  0.77988  1.0000
  H   H363      1.0  0.03835  0.53509  0.82580  1.0000
  H   H364      1.0  0.11237  0.80469  0.69257  1.0000
  C   C213      1.0  0.10714  0.60515  0.74439  1.0000
  H   H365      1.0  0.10123  0.62558  0.72795  1.0000
  H   H366      1.0  0.12773  0.63400  0.81420  1.0000
  H   H367      1.0  0.34904  0.80353  0.69234  1.0000
  H   H368      1.0  0.14429  0.68542  0.76500  1.0000
  Fe  Fe23      1.0  0.37863  0.97063  0.78454  1.0000
  Fe  Fe24      1.0  0.37366  0.97451  0.71061  1.0000
  S   S49       1.0  0.30846  0.94819  0.79051  1.0000
  Fe  Fe25      1.0  0.01372  0.64286  0.67346  1.0000
  H   H369      1.0  0.02155  0.61444  0.75679  1.0000
  H   H370      1.0  0.05537  0.68404  0.80917  1.0000
  H   H371      1.0  0.35531  0.89007  0.68021  1.0000
  C   C214      1.0  0.39651  0.50472  0.85687  1.0000
  H   H372      1.0  0.38546  0.85363  0.71094  1.0000
  C   C215      1.0  0.04946  0.63893  0.77067  1.0000
  H   H373      1.0  0.38598  0.52221  0.90386  1.0000
  H   H374      1.0  0.00987  0.68140  0.74573  1.0000
  C   C216      1.0  0.44009  0.93469  0.85329  1.0000
  C   C217      1.0  0.13810  0.69138  0.78997  1.0000
  H   H375      1.0  0.07478  0.54965  0.71288  1.0000
  C   C218      1.0  0.18111  0.71706  0.80683  1.0000
  C   C219      1.0  0.03457  0.59288  0.81728  1.0000
  H   H376      1.0  0.31389  0.89426  0.90298  1.0000
  C   C220      1.0  0.36662  0.49898  0.88487  1.0000
  H   H377      1.0  0.07249  0.65887  0.75183  1.0000
  H   H378      1.0  0.36835  0.90805  0.91077  1.0000
  H   H379      1.0  0.28861  0.48264  0.90949  1.0000
  H   H380      1.0  0.01777  0.71534  0.77987  1.0000
  H   H381      1.0  0.45308  0.88796  0.87425  1.0000
  H   H382      1.0  0.00163  0.64506  0.79891  1.0000
  H   H383      1.0  0.35347  0.96423  0.92982  1.0000
  H   H384      1.0  0.34239  0.50620  0.94667  1.0000
  H   H385      1.0  0.00217  0.48718  0.73726  1.0000
  H   H386      1.0  0.44127  0.93907  0.68100  1.0000
  H   H387      1.0  0.41224  0.53808  0.84829  1.0000
  C   C221      1.0  0.39846  0.51488  0.99064  1.0000
  H   H388      1.0  0.33752  0.97026  0.85704  1.0000
  H   H389      1.0  0.41003  0.54476  0.97677  1.0000
  H   H390      1.0  0.34265  0.50688  0.87574  1.0000
  C   C222      1.0  0.47443  0.91670  0.75408  1.0000
  H   H391      1.0  0.45776  0.92313  0.73445  1.0000
  H   H392      1.0  0.29916  0.95268  0.88818  1.0000
  C   C223      1.0  0.35945  0.96234  0.90380  1.0000
  H   H393      1.0  0.46907  0.95487  0.79182  1.0000
  H   H394      1.0  0.98108  0.53243  0.86136  1.0000
  H   H395      1.0  0.26520  0.96687  0.84698  1.0000
  C   C224      1.0  0.33287  0.97597  0.88273  1.0000
  C   C225      1.0  0.34933  0.85876  0.67148  1.0000
  H   H396      1.0  0.20417  0.97873  0.84351  1.0000
  H   H397      1.0  0.25036  0.97639  0.88609  1.0000
  H   H398      1.0  0.28829  0.97009  0.93708  1.0000
  H   H399      1.0  0.39403  0.98229  0.89940  1.0000
  H   H400      1.0  0.37832  0.48353  0.83646  1.0000
  H   H401      1.0  0.49215  0.06462  0.27721  1.0000
  C   C226      1.0  0.91389  0.27641  0.03179  1.0000
  H   H402      1.0  0.77263  0.44418  0.24268  1.0000
  H   H403      1.0  0.91180  0.28252  0.05774  1.0000
  H   H404      1.0  0.87594  0.31705  0.11206  1.0000
  H   H405      1.0  0.70905  0.15809  0.01538  1.0000
  H   H406      1.0  0.93338  0.45653  0.22627  1.0000
  H   H407      1.0  0.48762  0.41481  0.32738  1.0000
  H   H408      1.0  0.52879  0.41185  0.06318  1.0000
  H   H409      1.0  0.77373  0.21412  0.04371  1.0000
  H   H410      1.0  0.85030  0.22530  0.02939  1.0000
  H   H411      1.0  0.52339  0.45883  0.22745  1.0000
  H   H412      1.0  0.83724  0.26833  0.06671  1.0000
  H   H413      1.0  0.57812  0.44828  0.08280  1.0000
  H   H414      1.0  0.96568  0.26360  0.03975  1.0000
  H   H415      1.0  0.79384  0.36983  0.31843  1.0000
  C   C227      1.0  0.85325  0.43392  0.17602  1.0000
  H   H416      1.0  0.57358  0.40310  0.06095  1.0000
  H   H417      1.0  0.48984  0.33391  0.25059  1.0000
  C   C228      1.0  0.92723  0.42083  0.26965  1.0000
  C   C229      1.0  0.97305  0.46067  0.31398  1.0000
  C   C230      1.0  0.94414  0.45803  0.25076  1.0000
  C   C231      1.0  0.62763  0.47919  0.02760  1.0000
  H   H418      1.0  0.81136  0.29480  0.05131  1.0000
  C   C232      1.0  0.82122  0.40155  0.31246  1.0000
  C   C233      1.0  0.95802  0.29851  0.28604  1.0000
  H   H419      1.0  0.84678  0.45222  0.15768  1.0000
  C   C234      1.0  0.94167  0.42184  0.30133  1.0000
  H   H420      1.0  0.48348  0.12293  0.30199  1.0000
  C   C235      1.0  0.86929  0.25546  0.01603  1.0000
  H   H421      1.0  0.93687  0.30630  0.30039  1.0000
  H   H422      1.0  0.84742  0.39698  0.30310  1.0000
  H   H423      1.0  0.78526  0.18755  0.01186  1.0000
  C   C236      1.0  0.72839  0.19033  0.00489  1.0000
  C   C237      1.0  0.84464  0.46865  0.27962  1.0000
  H   H424      1.0  0.91326  0.21773  0.04418  1.0000
  H   H425      1.0  0.90350  0.34068  0.00346  1.0000
  C   C238      1.0  0.51218  0.08375  0.29778  1.0000
  C   C239      1.0  0.84138  0.29348  0.04937  1.0000
  H   H426      1.0  0.83745  0.40018  0.16819  1.0000
  H   H427      1.0  0.78003  0.42473  0.29700  1.0000
  C   C240      1.0  0.93276  0.24700  0.02990  1.0000
  H   H428      1.0  0.90300  0.39096  0.25957  1.0000
  H   H429      1.0  0.90961  0.34195  0.05812  1.0000
  H   H430      1.0  0.89787  0.37340  0.10676  1.0000
  C   C241      1.0  0.77420  0.21043  0.01720  1.0000
  H   H431      1.0  0.52013  0.06348  0.31292  1.0000
  H   H432      1.0  0.87591  0.36355  0.05037  1.0000
  N   N13       1.0  0.84690  0.28113  0.01558  1.0000
  H   H433      1.0  0.84289  0.41780  0.22590  1.0000
  H   H434      1.0  0.49710  0.38613  0.25877  1.0000
  H   H435      1.0  0.84104  0.33843  0.10397  1.0000
  H   H436      1.0  0.82893  0.34456  0.00734  1.0000
  H   H437      1.0  0.71794  0.44893  0.21024  1.0000
  C   C242      1.0  0.87729  0.33704  0.06238  1.0000
  H   H438      1.0  0.79695  0.40247  0.26558  1.0000
  H   H439      1.0  0.93412  0.23784  0.00455  1.0000
  C   C243      1.0  0.87254  0.34155  0.09855  1.0000
  H   H440      1.0  0.80106  0.42305  0.20627  1.0000
  C   C244      1.0  0.49930  0.46801  0.22522  1.0000
  C   C245      1.0  0.57849  0.45403  0.03025  1.0000
  H   H441      1.0  0.96991  0.28179  0.30160  1.0000
  S   S50       1.0  0.91912  0.37392  0.32401  1.0000
  H   H442      1.0  0.53709  0.44557  0.30576  1.0000
  C   C246      1.0  0.56405  0.42783  0.06123  1.0000
  H   H443      1.0  0.71393  0.20987  0.01197  1.0000
  C   C247      1.0  0.83596  0.43712  0.20890  1.0000
  H   H444      1.0  0.54230  0.11030  0.28810  1.0000
  C   C248      1.0  0.80778  0.42313  0.28717  1.0000
  H   H445      1.0  0.93883  0.27670  0.26625  1.0000
  H   H446      1.0  0.56528  0.47570  0.03034  1.0000
  H   H447      1.0  0.88810  0.44611  0.17733  1.0000
  H   H448      1.0  0.49427  0.45939  0.02226  1.0000
  C   C249      1.0  0.48897  0.10140  0.31774  1.0000
  H   H449      1.0  0.87455  0.46719  0.27695  1.0000
  H   H450      1.0  0.93624  0.30649  0.01963  1.0000
  H   H451      1.0  0.63727  0.45458  0.02860  1.0000
  H   H452      1.0  0.56450  0.43104  0.01009  1.0000
  C   C250      1.0  0.79273  0.47879  0.24691  1.0000
  C   C251      1.0  0.52181  0.43886  0.32991  1.0000
  Fe  Fe26      1.0  0.63288  0.01728  0.49125  1.0000
  H   H453      1.0  0.91882  0.26739  0.54071  1.0000
  S   S51       1.0  0.68164  0.08748  0.47885  1.0000
  H   H454      1.0  0.91806  0.33865  0.62168  1.0000
  H   H455      1.0  0.62588  0.44114  0.65931  1.0000
  S   S52       1.0  0.56748  0.00695  0.50495  1.0000
  S   S53       1.0  0.89345  0.32798  0.41315  1.0000
  Fe  Fe27      1.0  0.91545  0.28031  0.41623  1.0000
  S   S54       1.0  0.87301  0.20862  0.42692  1.0000
  H   H456      1.0  0.89148  0.36107  0.59921  1.0000
  Fe  Fe28      1.0  0.93972  0.35808  0.37202  1.0000
  C   C252      1.0  0.93145  0.43420  0.54632  1.0000
  C   C253      1.0  0.73432  0.11945  0.46269  1.0000
  C   C254      1.0  0.74751  0.16144  0.45302  1.0000
  C   C255      1.0  0.78927  0.18875  0.44143  1.0000
  C   C256      1.0  0.81892  0.17474  0.43963  1.0000
  C   C257      1.0  0.80568  0.13268  0.44906  1.0000
  C   C258      1.0  0.76378  0.10522  0.46042  1.0000
  H   H457      1.0  0.72514  0.17291  0.45447  1.0000
  H   H458      1.0  0.79863  0.22071  0.43396  1.0000
  H   H459      1.0  0.82810  0.12125  0.44774  1.0000
  H   H460      1.0  0.75446  0.07319  0.46774  1.0000
  H   H461      1.0  0.64281  0.48193  0.59221  1.0000
  H   H462      1.0  0.89096  0.27763  0.58471  1.0000
  H   H463      1.0  0.53710  0.42540  0.34545  1.0000
  H   H464      1.0  0.89824  0.41037  0.54898  1.0000
  H   H465      1.0  0.82209  0.43002  0.47719  1.0000
  C   C259      1.0  0.91112  0.21815  0.50830  1.0000
  C   C260      1.0  0.87495  0.29675  0.58473  1.0000
  H   H466      1.0  0.92837  0.23993  0.48806  1.0000
  H   H467      1.0  0.87108  0.43433  0.46289  1.0000
  H   H468      1.0  0.52414  0.99691  0.33742  1.0000
  H   H469      1.0  0.73124  0.15186  0.57916  1.0000
  C   C261      1.0  0.95108  0.46646  0.56981  1.0000
  H   H470      1.0  0.81590  0.45269  0.55381  1.0000
  H   H471      1.0  0.85440  0.47026  0.44780  1.0000
  H   H472      1.0  0.80125  0.42250  0.60819  1.0000
  H   H473      1.0  0.87595  0.21466  0.55042  1.0000
  H   H474      1.0  0.84805  0.28207  0.60213  1.0000
  H   H475      1.0  0.59089  0.44771  0.60977  1.0000
  H   H476      1.0  0.83209  0.42084  0.33490  1.0000
  H   H477      1.0  0.93478  0.35695  0.58109  1.0000
  S   S55       1.0  0.95789  0.30687  0.37222  1.0000
  C   C262      1.0  0.89196  0.23769  0.53073  1.0000
  H   H478      1.0  0.53232  0.47411  0.43123  1.0000
  C   C263      1.0  0.95441  0.43251  0.51946  1.0000
  H   H479      1.0  0.88047  0.46432  0.51708  1.0000
  C   C264      1.0  0.75175  0.14376  0.56428  1.0000
  H   H480      1.0  0.73093  0.11301  0.55189  1.0000
  H   H481      1.0  0.51849  0.09924  0.43367  1.0000
  H   H482      1.0  0.93400  0.21211  0.52183  1.0000
  S   S56       1.0  0.96976  0.32006  0.45035  1.0000
  H   H483      1.0  0.88571  0.18748  0.49829  1.0000
  N   N14       1.0  0.83238  0.25800  0.53252  1.0000
  C   C265      1.0  0.80490  0.22207  0.55516  1.0000
  C   C266      1.0  0.85800  0.29918  0.55094  1.0000
  C   C267      1.0  0.80257  0.26339  0.51001  1.0000
  C   C268      1.0  0.86120  0.24820  0.51234  1.0000
  C   C269      1.0  0.64405  0.46889  0.64339  1.0000
  C   C270      1.0  0.77602  0.17810  0.53909  1.0000
  C   C271      1.0  0.82309  0.30344  0.48829  1.0000
  S   S57       1.0  0.92729  0.39173  0.49023  1.0000
  C   C272      1.0  0.62484  0.45585  0.60967  1.0000
  C   C273      1.0  0.79056  0.30349  0.46489  1.0000
  H   H484      1.0  0.78383  0.23041  0.56925  1.0000
  H   H485      1.0  0.48894  0.45223  0.64848  1.0000
  H   H486      1.0  0.88557  0.32223  0.53613  1.0000
  H   H487      1.0  0.83846  0.31463  0.55539  1.0000
  H   H488      1.0  0.77664  0.26426  0.52393  1.0000
  H   H489      1.0  0.78647  0.23574  0.49348  1.0000
  H   H490      1.0  0.84209  0.22175  0.49542  1.0000
  H   H491      1.0  0.88181  0.27540  0.49642  1.0000
  C   C274      1.0  0.90671  0.34110  0.59736  1.0000
  Fe  Fe29      1.0  0.94883  0.36883  0.44605  1.0000
  H   H492      1.0  0.75177  0.17895  0.52329  1.0000
  H   H493      1.0  0.79504  0.16781  0.52455  1.0000
  H   H494      1.0  0.84938  0.30484  0.47379  1.0000
  H   H495      1.0  0.83585  0.33290  0.50292  1.0000
  H   H496      1.0  0.82427  0.21730  0.57352  1.0000
  H   H497      1.0  0.50677  0.07391  0.37651  1.0000
  H   H498      1.0  0.77421  0.13978  0.58011  1.0000
  C   C275      1.0  0.52705  0.47952  0.34521  1.0000
  H   H499      1.0  0.51454  0.04800  0.42903  1.0000
  H   H500      1.0  0.76382  0.30322  0.47825  1.0000
  H   H501      1.0  0.80627  0.33258  0.44982  1.0000
  H   H502      1.0  0.77781  0.27540  0.44865  1.0000
  C   C276      1.0  0.83055  0.47485  0.57438  1.0000
  H   H503      1.0  0.84599  0.46970  0.62424  1.0000
  H   H504      1.0  0.62645  0.42754  0.60151  1.0000
  H   H505      1.0  0.67763  0.47624  0.64174  1.0000
  H   H506      1.0  0.93330  0.46709  0.59055  1.0000
  H   H507      1.0  0.85446  0.43614  0.59627  1.0000
  C   C277      1.0  0.49658  0.06540  0.42740  1.0000
  C   C278      1.0  0.83347  0.44931  0.60246  1.0000
  C   C279      1.0  0.50276  0.46409  0.44399  1.0000
  H   H508      1.0  0.51038  0.12077  0.33761  1.0000
  H   H509      1.0  0.51295  0.47174  0.36961  1.0000
  C   C280      1.0  0.85518  0.45278  0.46946  1.0000
  H   H510      1.0  0.49950  0.99903  0.57303  1.0000
  C   C281      1.0  0.48671  0.98567  0.59644  1.0000
  C   C282      1.0  0.50396  0.48020  0.47517  1.0000
  C   C283      1.0  0.47921  0.06137  0.39325  1.0000
  H   H511      1.0  0.47968  0.12057  0.39087  1.0000
  C   C284      1.0  0.57382  0.43824  0.92613  1.0000
  H   H512      1.0  0.94505  0.43746  0.84745  1.0000
  H   H513      1.0  0.58814  0.00775  0.80926  1.0000
  H   H514      1.0  0.61693  0.08132  0.82968  1.0000
  C   C285      1.0  0.47772  0.28883  0.80450  1.0000
  C   C286      1.0  0.56186  0.99793  0.74706  1.0000
  S   S58       1.0  0.93785  0.35535  0.91776  1.0000
  Fe  Fe30      1.0  0.92842  0.28882  0.91789  1.0000
  S   S59       1.0  0.85824  0.23336  0.91861  1.0000
  H   H515      1.0  0.55530  0.01400  0.69689  1.0000
  H   H516      1.0  0.52074  0.09980  0.69737  1.0000
  S   S60       1.0  0.72338  0.06203  0.99296  1.0000
  H   H517      1.0  0.86293  0.40823  0.97237  1.0000
  H   H518      1.0  0.59817  0.44484  0.90730  1.0000
  C   C287      1.0  0.55869  0.42940  0.73495  1.0000
  H   H519      1.0  0.50173  0.36729  0.67837  1.0000
  C   C288      1.0  0.76036  0.10870  0.97096  1.0000
  C   C289      1.0  0.80415  0.12883  0.97871  1.0000
  C   C290      1.0  0.83456  0.16628  0.96276  1.0000
  C   C291      1.0  0.82173  0.18476  0.93885  1.0000
  C   C292      1.0  0.77802  0.16446  0.93094  1.0000
  C   C293      1.0  0.74765  0.12680  0.94671  1.0000
  H   H520      1.0  0.48677  0.99065  0.72269  1.0000
  H   H521      1.0  0.86792  0.18077  0.96898  1.0000
  H   H522      1.0  0.76745  0.17809  0.91249  1.0000
  H   H523      1.0  0.71430  0.11198  0.94030  1.0000
  Fe  Fe31      1.0  0.65230  0.00835  0.99505  1.0000
  C   C294      1.0  0.50363  0.06557  0.70370  1.0000
  C   C295      1.0  0.49985  0.01117  0.74428  1.0000
  C   C296      1.0  0.52434  0.05824  0.73317  1.0000
  H   H524      1.0  0.50516  0.04735  0.68267  1.0000
  H   H525      1.0  0.54197  0.99003  0.83471  1.0000
  C   C297      1.0  0.59057  0.05425  0.84266  1.0000
  H   H526      1.0  0.56592  0.06041  0.78464  1.0000
  H   H527      1.0  0.82717  0.33085  0.96564  1.0000
  H   H528      1.0  0.95061  0.16928  0.90678  1.0000
  C   C298      1.0  0.88038  0.39146  0.97905  1.0000
  C   C299      1.0  0.87123  0.31899  0.99387  1.0000
  H   H529      1.0  0.63560  0.45915  0.70993  1.0000
  C   C300      1.0  0.50031  0.99119  0.89781  1.0000
  H   H530      1.0  0.92330  0.48210  0.81641  1.0000
  H   H531      1.0  0.96831  0.18071  0.84889  1.0000
  C   C301      1.0  0.94528  0.47351  0.80578  1.0000
  H   H532      1.0  0.50674  0.32165  0.66816  1.0000
  H   H533      1.0  0.52433  0.07898  0.75295  1.0000
  H   H534      1.0  0.62788  0.44809  0.97246  1.0000
  C   C302      1.0  0.48008  0.00522  0.87599  1.0000
  C   C303      1.0  0.84869  0.34504  0.98673  1.0000
  C   C304      1.0  0.48380  0.45603  0.67366  1.0000
  H   H535      1.0  0.51662  0.03089  0.80515  1.0000
  H   H536      1.0  0.55800  0.06866  0.72716  1.0000
  H   H537      1.0  0.50671  0.28935  0.81380  1.0000
  H   H538      1.0  0.87733  0.30853  0.97013  1.0000
  H   H539      1.0  0.56464  0.40742  0.93790  1.0000
  H   H540      1.0  0.72750  0.18709  0.97823  1.0000
  H   H541      1.0  0.52359  0.01315  0.91479  1.0000
  H   H542      1.0  0.56978  0.43829  0.76021  1.0000
  H   H543      1.0  0.48804  0.03815  0.87642  1.0000
  H   H544      1.0  0.78537  0.27084  0.99978  1.0000
  C   C305      1.0  0.59071  0.47401  0.95107  1.0000
  H   H545      1.0  0.87259  0.24649  0.99095  1.0000
  C   C306      1.0  0.56559  0.01680  0.81978  1.0000
  H   H546      1.0  0.56815  0.45763  0.68824  1.0000
  H   H547      1.0  0.95554  0.13843  0.77149  1.0000
  C   C307      1.0  0.55565  0.98785  0.71036  1.0000
  H   H548      1.0  0.70034  0.47304  0.98679  1.0000
  H   H549      1.0  0.52381  0.41714  0.73438  1.0000
  H   H550      1.0  0.48412  0.32084  0.72529  1.0000
  H   H551      1.0  0.56451  0.40355  0.72686  1.0000
  S   S61       1.0  0.59241  0.01378  0.99615  1.0000
  H   H552      1.0  0.48625  0.32167  0.79758  1.0000
  C   C308      1.0  0.54261  0.02793  0.79316  1.0000
  C   C309      1.0  0.48379  0.33230  0.67477  1.0000
  H   H553      1.0  0.60449  0.04444  0.86242  1.0000
  H   H554      1.0  0.48570  0.26947  0.75703  1.0000
  H   H555      1.0  0.81464  0.11523  0.99724  1.0000
  C   C310      1.0  0.58132  0.46799  0.71282  1.0000
  H   H556      1.0  0.80707  0.24656  0.97478  1.0000
  H   H557      1.0  0.54495  0.43548  0.91436  1.0000
  N   N15       1.0  0.52514  0.99746  0.76494  1.0000
  H   H558      1.0  0.56463  0.46660  0.96828  1.0000
  H   H559      1.0  0.90136  0.39395  0.95869  1.0000
  C   C311      1.0  0.95758  0.44818  0.82350  1.0000
  H   H560      1.0  0.56926  0.06469  0.85358  1.0000
  H   H561      1.0  0.70156  0.47539  0.69024  1.0000
  H   H562      1.0  0.59124  0.02962  0.74915  1.0000
  H   H563      1.0  0.62293  0.01172  0.70000  1.0000
  C   C312      1.0  0.48837  0.46231  0.99714  1.0000
  C   C313      1.0  0.63203  0.48011  0.96766  1.0000
  C   C314      1.0  0.59171  0.98237  0.69641  1.0000
  C   C315      1.0  0.80354  0.25361  0.00046  1.0000
  H   H564      1.0  0.90037  0.40754  0.00047  1.0000
  H   H565      1.0  0.53363  0.91303  0.14603  1.0000
  H   H566      1.0  0.70142  0.78692  0.06268  1.0000
  H   H567      1.0  0.50131  0.72184  0.15972  1.0000
  Fe  Fe32      1.0  0.65249  0.59541  0.09129  1.0000
  S   S62       1.0  0.63194  0.61878  0.13407  1.0000
  S   S63       1.0  0.71705  0.59857  0.08214  1.0000
  Fe  Fe33      1.0  0.56630  0.56765  0.05592  1.0000
  S   S64       1.0  0.54014  0.58811  0.09750  1.0000
  H   H568      1.0  0.66708  0.77002  0.00785  1.0000
  Fe  Fe34      1.0  0.60526  0.64719  0.09863  1.0000
  S   S65       1.0  0.61970  0.71636  0.10539  1.0000
  Fe  Fe35      1.0  0.56866  0.55815  0.12937  1.0000
  S   S66       1.0  0.54464  0.51165  0.17188  1.0000
  S   S67       1.0  0.63029  0.62790  0.05621  1.0000
  S   S68       1.0  0.59041  0.53389  0.08741  1.0000
  Fe  Fe36      1.0  0.92672  0.59785  0.16132  1.0000
  S   S69       1.0  0.86053  0.59170  0.17031  1.0000
  S   S70       1.0  0.93219  0.53862  0.15767  1.0000
  C   C316      1.0  0.75654  0.59681  0.10732  1.0000
  C   C317      1.0  0.75193  0.59130  0.14078  1.0000
  C   C318      1.0  0.78398  0.58991  0.15945  1.0000
  C   C319      1.0  0.82129  0.59404  0.14516  1.0000
  C   C320      1.0  0.82589  0.59962  0.11169  1.0000
  C   C321      1.0  0.79383  0.60099  0.09302  1.0000
  H   H569      1.0  0.72364  0.58805  0.15233  1.0000
  H   H570      1.0  0.77987  0.58574  0.18525  1.0000
  H   H571      1.0  0.85421  0.60287  0.10018  1.0000
  H   H572      1.0  0.79810  0.60538  0.06725  1.0000
  H   H573      1.0  0.50875  0.87582  0.09637  1.0000
  C   C322      1.0  0.60416  0.80965  0.03769  1.0000
  H   H574      1.0  0.51172  0.54565  0.26714  1.0000
  C   C323      1.0  0.59211  0.73787  0.04900  1.0000
  C   C324      1.0  0.61254  0.75121  0.07887  1.0000
  C   C325      1.0  0.62865  0.79399  0.08799  1.0000
  C   C326      1.0  0.62479  0.82302  0.06753  1.0000
  H   H575      1.0  0.57955  0.70523  0.04145  1.0000
  H   H576      1.0  0.64492  0.80496  0.11083  1.0000
  H   H577      1.0  0.63868  0.85596  0.07447  1.0000
  H   H578      1.0  0.86295  0.55708  0.23692  1.0000
  C   C327      1.0  0.48612  0.55299  0.31358  1.0000
  H   H579      1.0  0.92911  0.55796  0.24521  1.0000
  H   H580      1.0  0.91659  0.53975  0.28600  1.0000
  H   H581      1.0  0.79714  0.53560  0.22373  1.0000
  C   C328      1.0  0.53567  0.88561  0.15608  1.0000
  C   C329      1.0  0.72101  0.79198  0.04083  1.0000
  H   H582      1.0  0.73035  0.76606  0.10044  1.0000
  C   C330      1.0  0.74393  0.71817  0.11864  1.0000
  H   H583      1.0  0.56929  0.83911  0.16767  1.0000
  C   C331      1.0  0.49035  0.59042  0.26091  1.0000
  H   H584      1.0  0.75201  0.82159  0.04394  1.0000
  C   C332      1.0  0.48094  0.88226  0.19604  1.0000
  H   H585      1.0  0.80491  0.67610  0.02051  1.0000
  H   H586      1.0  0.58493  0.92450  0.10355  1.0000
  H   H587      1.0  0.78174  0.70566  0.06396  1.0000
  H   H588      1.0  0.50692  0.60030  0.23728  1.0000
  C   C333      1.0  0.85746  0.48366  0.22094  1.0000
  C   C334      1.0  0.58993  0.90002  0.11556  1.0000
  H   H589      1.0  0.72586  0.67689  0.05846  1.0000
  C   C335      1.0  0.51536  0.85001  0.10345  1.0000
  C   C336      1.0  0.72714  0.75323  0.03450  1.0000
  C   C337      1.0  0.66944  0.95158  0.12155  1.0000
  C   C338      1.0  0.86333  0.53861  0.25816  1.0000
  H   H590      1.0  0.73355  0.70472  0.16986  1.0000
  H   H591      1.0  0.54194  0.81517  0.07734  1.0000
  H   H592      1.0  0.60130  0.88688  0.09622  1.0000
  N   N16       1.0  0.54858  0.86546  0.12974  1.0000
  N   N17       1.0  0.75262  0.74513  0.05944  1.0000
  H   H593      1.0  0.55051  0.86276  0.05822  1.0000
  H   H594      1.0  0.78047  0.48516  0.26968  1.0000
  H   H595      1.0  0.49780  0.83406  0.18970  1.0000
  H   H596      1.0  0.77636  0.54976  0.01955  1.0000
  H   H597      1.0  0.49247  0.61875  0.27298  1.0000
  H   H598      1.0  0.77903  0.73448  0.12084  1.0000
  H   H599      1.0  0.74975  0.63439  0.02005  1.0000
  H   H600      1.0  0.57346  0.57226  0.32604  1.0000
  H   H601      1.0  0.50681  0.90149  0.21349  1.0000
  C   C339      1.0  0.48823  0.80907  0.05073  1.0000
  H   H602      1.0  0.78222  0.72727  0.00133  1.0000
  H   H603      1.0  0.91540  0.60491  0.30159  1.0000
  H   H604      1.0  0.53914  0.76423  0.18516  1.0000
  H   H605      1.0  0.81496  0.77568  0.08189  1.0000
  C   C340      1.0  0.91115  0.55774  0.26686  1.0000
  H   H606      1.0  0.56026  0.89897  0.17530  1.0000
  H   H607      1.0  0.92570  0.62325  0.26025  1.0000
  H   H608      1.0  0.74142  0.75782  0.01019  1.0000
  H   H609      1.0  0.57217  0.75600  0.00563  1.0000
  H   H610      1.0  0.62221  0.94482  0.15550  1.0000
  H   H611      1.0  0.48442  0.82375  0.11198  1.0000
  C   C341      1.0  0.72630  0.72206  0.15120  1.0000
  H   H612      1.0  0.58095  0.82871  0.12840  1.0000
  C   C342      1.0  0.62770  0.92353  0.13941  1.0000
  S   S71       1.0  0.59872  0.84481  0.01031  1.0000
  H   H613      1.0  0.74110  0.75595  0.15849  1.0000
  S   S72       1.0  0.63357  0.96739  0.03996  1.0000
  H   H614      1.0  0.73238  0.68394  0.11418  1.0000
  H   H615      1.0  0.69441  0.71357  0.08744  1.0000
  C   C343      1.0  0.50214  0.49495  0.19986  1.0000
  C   C344      1.0  0.82520  0.80047  0.03422  1.0000
  H   H616      1.0  0.55563  0.75387  0.14650  1.0000
  C   C345      1.0  0.75526  0.70604  0.05056  1.0000
  H   H617      1.0  0.64215  0.55759  0.02221  1.0000
  Fe  Fe37      1.0  0.60115  0.90993  0.00788  1.0000
  H   H618      1.0  0.88365  0.83938  0.06151  1.0000
  N   N18       1.0  0.83906  0.49147  0.25111  1.0000
  C   C346      1.0  0.52714  0.83481  0.07216  1.0000
  C   C347      1.0  0.79647  0.78313  0.06436  1.0000
  H   H619      1.0  0.63213  0.90076  0.15436  1.0000
  C   C348      1.0  0.72892  0.73660  0.09107  1.0000
  H   H620      1.0  0.69121  0.70841  0.14999  1.0000
  H   H621      1.0  0.52315  0.50682  0.30100  1.0000
  C   C349      1.0  0.78250  0.50099  0.21918  1.0000
  C   C350      1.0  0.51125  0.57112  0.28162  1.0000
  H   H622      1.0  0.69476  0.72466  0.03220  1.0000
  C   C351      1.0  0.93033  0.60362  0.27854  1.0000
  H   H623      1.0  0.84766  0.54623  0.27821  1.0000
  H   H624      1.0  0.64060  0.49884  0.04988  1.0000
  C   C352      1.0  0.55604  0.83085  0.14281  1.0000
  C   C353      1.0  0.58796  0.76684  0.02867  1.0000
  C   C354      1.0  0.52923  0.75452  0.15980  1.0000
  H   H625      1.0  0.50658  0.77259  0.11883  1.0000
  H   H626      1.0  0.79415  0.80969  0.07577  1.0000
  H   H627      1.0  0.85661  0.86733  0.04824  1.0000
  H   H628      1.0  0.83606  0.77805  0.02676  1.0000
  S   S73       1.0  0.53412  0.55022  0.00621  1.0000
  H   H629      1.0  0.48977  0.78307  0.15649  1.0000
  C   C355      1.0  0.51733  0.78491  0.14355  1.0000
  C   C356      1.0  0.69818  0.79904  0.01260  1.0000
  H   H630      1.0  0.70539  0.55086  0.02187  1.0000
  C   C357      1.0  0.71346  0.49898  0.00496  1.0000
  C   C358      1.0  0.50592  0.49905  0.32437  1.0000
  H   H631      1.0  0.72772  0.68599  0.00232  1.0000
  H   H632      1.0  0.54468  0.59634  0.28586  1.0000
  H   H633      1.0  0.69211  0.82546  0.01838  1.0000
  C   C359      1.0  0.73451  0.48339  0.21605  1.0000
  C   C360      1.0  0.49354  0.85641  0.17408  1.0000
  H   H634      1.0  0.49854  0.80109  0.02777  1.0000
  H   H635      1.0  0.72830  0.50010  0.19622  1.0000
  H   H636      1.0  0.84887  0.48687  0.30233  1.0000
  H   H637      1.0  0.85774  0.50418  0.20099  1.0000
  C   C361      1.0  0.86523  0.84291  0.04153  1.0000
  Fe  Fe38      1.0  0.57202  0.96923  0.03900  1.0000
  H   H638      1.0  0.77504  0.50227  0.00519  1.0000
  H   H639      1.0  0.52303  0.97653  0.15460  1.0000
  H   H640      1.0  0.96510  0.61729  0.28253  1.0000
  C   C362      1.0  0.75925  0.69818  0.01418  1.0000
  H   H641      1.0  0.67705  0.93236  0.10480  1.0000
  S   S74       1.0  0.53895  0.91004  0.00886  1.0000
  H   H642      1.0  0.79398  0.49614  0.19562  1.0000
  H   H643      1.0  0.72132  0.48852  0.23872  1.0000
  H   H644      1.0  0.48052  0.57790  0.32447  1.0000
  H   H645      1.0  0.89159  0.49357  0.22464  1.0000
  H   H646      1.0  0.70671  0.48483  0.02945  1.0000
  S   S75       1.0  0.54758  0.97287  0.08960  1.0000
  H   H647      1.0  0.80868  0.80583  0.01388  1.0000
  C   C363      1.0  0.77326  0.66521  0.00927  1.0000
  C   C364      1.0  0.50338  0.97596  0.10549  1.0000
  H   H648      1.0  0.69591  0.96751  0.13916  1.0000
  C   C365      1.0  0.49923  0.97703  0.13919  1.0000
  H   H649      1.0  0.88588  0.85410  0.01981  1.0000
  H   H650      1.0  0.66721  0.97653  0.10769  1.0000
  S   S76       1.0  0.97511  0.63236  0.12242  1.0000
  C   C366      1.0  0.76196  0.52383  0.00134  1.0000
  C   C367      1.0  0.69418  0.52847  0.00096  1.0000
  H   H651      1.0  0.70791  0.81563  0.55128  1.0000
  N   N19       1.0  0.49524  0.78939  0.45281  1.0000
  H   H652      1.0  0.74863  0.72176  0.54688  1.0000
  H   H653      1.0  0.64677  0.80670  0.48256  1.0000
  Fe  Fe39      1.0  0.91892  0.58116  0.65247  1.0000
  H   H654      1.0  0.49461  0.92455  0.65460  1.0000
  H   H655      1.0  0.95472  0.53588  0.52808  1.0000
  C   C368      1.0  0.84956  0.58872  0.51791  1.0000
  S   S77       1.0  0.53649  0.90603  0.51205  1.0000
  Fe  Fe40      1.0  0.60267  0.92125  0.49922  1.0000
  S   S78       1.0  0.62116  0.86905  0.49340  1.0000
  Fe  Fe41      1.0  0.65297  0.60464  0.58209  1.0000
  S   S79       1.0  0.61758  0.62749  0.61331  1.0000
  S   S80       1.0  0.72402  0.63235  0.59587  1.0000
  Fe  Fe42      1.0  0.57247  0.55351  0.54044  1.0000
  S   S81       1.0  0.53245  0.57255  0.57040  1.0000
  H   H656      1.0  0.88228  0.61481  0.51264  1.0000
  Fe  Fe43      1.0  0.58960  0.63887  0.56862  1.0000
  S   S82       1.0  0.57889  0.69680  0.56774  1.0000
  Fe  Fe44      1.0  0.56329  0.56015  0.61331  1.0000
  C   C369      1.0  0.77685  0.84392  0.63637  1.0000
  S   S83       1.0  0.62857  0.62056  0.53695  1.0000
  S   S84       1.0  0.59981  0.53666  0.58362  1.0000
  C   C370      1.0  0.70011  0.73447  0.56631  1.0000
  C   C371      1.0  0.55137  0.57328  0.34431  1.0000
  H   H657      1.0  0.68538  0.82507  0.62113  1.0000
  C   C372      1.0  0.75856  0.61196  0.60645  1.0000
  C   C373      1.0  0.74655  0.56901  0.60324  1.0000
  Fe  Fe45      1.0  0.56676  0.96367  0.54387  1.0000
  C   C374      1.0  0.81639  0.58301  0.62370  1.0000
  C   C375      1.0  0.82845  0.62596  0.62675  1.0000
  C   C376      1.0  0.79980  0.64022  0.61818  1.0000
  H   H658      1.0  0.71540  0.54687  0.59379  1.0000
  H   H659      1.0  0.85987  0.64827  0.63576  1.0000
  H   H660      1.0  0.80977  0.67356  0.62067  1.0000
  C   C377      1.0  0.60851  0.82107  0.51440  1.0000
  C   C378      1.0  0.62598  0.79621  0.50336  1.0000
  C   C379      1.0  0.61687  0.75792  0.51887  1.0000
  C   C380      1.0  0.59035  0.74395  0.54601  1.0000
  C   C381      1.0  0.57298  0.76887  0.55710  1.0000
  C   C382      1.0  0.58183  0.80699  0.54144  1.0000
  H   H661      1.0  0.63051  0.73933  0.50987  1.0000
  H   H662      1.0  0.55259  0.75868  0.57813  1.0000
  H   H663      1.0  0.56837  0.82571  0.55056  1.0000
  H   H664      1.0  0.75548  0.79293  0.58155  1.0000
  H   H665      1.0  0.48010  0.55634  0.37749  1.0000
  H   H666      1.0  0.74352  0.74881  0.60597  1.0000
  H   H667      1.0  0.53218  0.77525  0.41896  1.0000
  H   H668      1.0  0.63588  0.59853  0.36249  1.0000
  C   C383      1.0  0.87517  0.51230  0.56528  1.0000
  H   H669      1.0  0.79557  0.83949  0.61716  1.0000
  H   H670      1.0  0.64564  0.72067  0.61155  1.0000
  H   H671      1.0  0.62410  0.64033  0.37221  1.0000
  H   H672      1.0  0.48855  0.82563  0.54777  1.0000
  Fe  Fe46      1.0  0.54130  0.95003  0.47206  1.0000
  S   S85       1.0  0.47924  0.92620  0.44342  1.0000
  C   C384      1.0  0.51146  0.83387  0.44032  1.0000
  H   H673      1.0  0.76533  0.52145  0.60917  1.0000
  S   S86       1.0  0.60594  0.96174  0.45638  1.0000
  S   S87       1.0  0.85095  0.56262  0.63423  1.0000
  H   H674      1.0  0.79024  0.58433  0.53482  1.0000
  C   C385      1.0  0.57059  0.57599  0.37838  1.0000
  H   H675      1.0  0.49105  0.87343  0.38955  1.0000
  H   H676      1.0  0.68146  0.70182  0.57608  1.0000
  C   C386      1.0  0.61824  0.60833  0.37913  1.0000
  H   H677      1.0  0.52962  0.73920  0.48615  1.0000
  H   H678      1.0  0.92865  0.60212  0.54569  1.0000
  C   C387      1.0  0.48012  0.52730  0.36869  1.0000
  H   H679      1.0  0.54161  0.71246  0.41838  1.0000
  C   C388      1.0  0.66902  0.73860  0.63084  1.0000
  N   N20       1.0  0.87697  0.53803  0.53617  1.0000
  C   C389      1.0  0.52163  0.73501  0.46005  1.0000
  H   H680      1.0  0.58094  0.69281  0.64343  1.0000
  C   C390      1.0  0.64324  0.74470  0.65823  1.0000
  C   C391      1.0  0.85952  0.51085  0.50633  1.0000
  H   H681      1.0  0.52194  0.81362  0.49984  1.0000
  C   C392      1.0  0.52410  0.87893  0.38998  1.0000
  C   C393      1.0  0.50122  0.96129  0.61218  1.0000
  C   C394      1.0  0.77519  0.55473  0.61180  1.0000
  C   C395      1.0  0.70217  0.86851  0.56791  1.0000
  H   H682      1.0  0.85977  0.57533  0.56679  1.0000
  H   H683      1.0  0.82356  0.63071  0.51102  1.0000
  H   H684      1.0  0.86350  0.53099  0.48503  1.0000
  H   H685      1.0  0.63474  0.76919  0.65183  1.0000
  H   H686      1.0  0.81566  0.53285  0.54669  1.0000
  C   C396      1.0  0.72857  0.76516  0.59327  1.0000
  C   C397      1.0  0.95900  0.56550  0.53904  1.0000
  H   H687      1.0  0.89622  0.49860  0.56227  1.0000
  H   H688      1.0  0.48809  0.84471  0.44451  1.0000
  H   H689      1.0  0.66419  0.59355  0.65224  1.0000
  H   H690      1.0  0.71954  0.81081  0.66333  1.0000
  C   C398      1.0  0.84959  0.55766  0.54352  1.0000
  H   H691      1.0  0.71697  0.88586  0.54524  1.0000
  H   H692      1.0  0.49445  0.51810  0.38849  1.0000
  H   H693      1.0  0.88816  0.53348  0.58675  1.0000
  H   H694      1.0  0.83802  0.62779  0.55206  1.0000
  H   H695      1.0  0.56075  0.80289  0.45380  1.0000
  H   H696      1.0  0.92637  0.58495  0.50521  1.0000
  H   H697      1.0  0.55773  0.84605  0.40194  1.0000
  H   H698      1.0  0.96077  0.56284  0.56555  1.0000
  H   H699      1.0  0.65611  0.78463  0.59281  1.0000
  H   H700      1.0  0.76854  0.86816  0.62873  1.0000
  C   C399      1.0  0.72671  0.73281  0.53831  1.0000
  H   H701      1.0  0.66710  0.85383  0.56564  1.0000
  S   S88       1.0  0.54198  0.95307  0.59586  1.0000
  H   H702      1.0  0.54449  0.90796  0.40433  1.0000
  C   C400      1.0  0.82374  0.60903  0.52974  1.0000
  S   S89       1.0  0.63388  0.97765  0.53301  1.0000
  H   H703      1.0  0.66309  0.53448  0.63871  1.0000
  H   H704      1.0  0.53632  0.88432  0.36487  1.0000
  H   H705      1.0  0.48321  0.75868  0.49954  1.0000
  C   C401      1.0  0.52474  0.84054  0.40423  1.0000
  H   H706      1.0  0.54014  0.85695  0.45423  1.0000
  C   C402      1.0  0.68901  0.80520  0.60226  1.0000
  H   H707      1.0  0.70530  0.71013  0.51975  1.0000
  H   H708      1.0  0.63067  0.61026  0.40393  1.0000
  H   H709      1.0  0.74537  0.78055  0.65691  1.0000
  C   C403      1.0  0.49090  0.78976  0.48902  1.0000
  C   C404      1.0  0.60180  0.70338  0.66509  1.0000
  H   H710      1.0  0.74541  0.76456  0.52698  1.0000
  H   H711      1.0  0.67730  0.74367  0.55683  1.0000
  H   H712      1.0  0.82448  0.48943  0.50859  1.0000
  C   C405      1.0  0.92212  0.57394  0.53067  1.0000
  H   H713      1.0  0.55483  0.58644  0.39634  1.0000
  H   H714      1.0  0.83473  0.89233  0.65936  1.0000
  H   H715      1.0  0.68012  0.71694  0.64001  1.0000
  H   H716      1.0  0.74948  0.85121  0.57763  1.0000
  C   C406      1.0  0.71466  0.83461  0.57375  1.0000
  H   H717      1.0  0.60986  0.50334  0.65141  1.0000
  H   H718      1.0  0.71320  0.89170  0.58813  1.0000
  N   N21       1.0  0.70597  0.77858  0.61717  1.0000
  C   C407      1.0  0.73584  0.80190  0.64473  1.0000
  H   H719      1.0  0.83481  0.57165  0.49513  1.0000
  S   S90       1.0  0.55438  0.51670  0.49243  1.0000
  H   H720      1.0  0.56640  0.54519  0.38661  1.0000
  H   H721      1.0  0.58429  0.74574  0.44583  1.0000
  C   C408      1.0  0.48417  0.94415  0.64261  1.0000
  H   H722      1.0  0.91282  0.50442  0.48782  1.0000
  C   C409      1.0  0.52891  0.77746  0.44545  1.0000
  H   H723      1.0  0.50360  0.81234  0.38940  1.0000
  H   H724      1.0  0.55347  0.60476  0.34116  1.0000
  H   H725      1.0  0.80892  0.48654  0.58221  1.0000
  C   C410      1.0  0.55032  0.72046  0.44413  1.0000
  C   C411      1.0  0.87992  0.48367  0.49676  1.0000
  S   S91       1.0  0.54031  0.54295  0.66562  1.0000
  C   C412      1.0  0.50532  0.96781  0.38432  1.0000
  H   H726      1.0  0.54652  0.69177  0.45663  1.0000
  H   H727      1.0  0.56180  0.50194  0.34713  1.0000
  C   C413      1.0  0.49750  0.97668  0.35278  1.0000
  S   S92       1.0  0.92742  0.52383  0.65890  1.0000
  C   C414      1.0  0.64249  0.50841  0.65551  1.0000
  H   H728      1.0  0.48808  0.70930  0.45720  1.0000
  N   N22       1.0  0.50622  0.53764  0.33816  1.0000
  H   H729      1.0  0.53769  0.98115  0.39299  1.0000
  C   C415      1.0  0.80590  0.86187  0.66581  1.0000
  H   H730      1.0  0.65539  0.56672  0.72379  1.0000
  C   C416      1.0  0.49517  0.95394  0.77836  1.0000
  H   H731      1.0  0.81626  0.83940  0.67419  1.0000
  S   S93       1.0  0.51664  0.92939  0.92279  1.0000
  H   H732      1.0  0.71801  0.80754  0.99046  1.0000
  Fe  Fe47      1.0  0.56281  0.95355  0.96585  1.0000
  H   H733      1.0  0.52538  0.95857  0.70514  1.0000
  H   H734      1.0  0.70957  0.61052  0.67817  1.0000
  H   H735      1.0  0.51260  0.53197  0.73137  1.0000
  H   H736      1.0  0.77593  0.53025  0.67833  1.0000
  C   C417      1.0  0.50415  0.49661  0.68750  1.0000
  C   C418      1.0  0.71648  0.50461  0.70510  1.0000
  H   H737      1.0  0.51173  0.94412  0.79593  1.0000
  N   N23       1.0  0.64616  0.50674  0.99812  1.0000
  S   S94       1.0  0.62345  0.95021  0.96282  1.0000
  H   H738      1.0  0.58429  0.70844  0.68502  1.0000
  N   N24       1.0  0.65624  0.52172  0.68990  1.0000
  H   H739      1.0  0.59237  0.95513  0.70792  1.0000
  H   H740      1.0  0.58657  0.97595  0.67009  1.0000
  H   H741      1.0  0.65018  0.62442  0.94662  1.0000
  H   H742      1.0  0.68650  0.66371  0.67508  1.0000
  H   H743      1.0  0.60854  0.67788  0.67230  1.0000
  H   H744      1.0  0.70961  0.54828  0.97932  1.0000
  C   C419      1.0  0.49094  0.94888  0.89718  1.0000
  H   H745      1.0  0.70664  0.49550  0.73055  1.0000
  H   H746      1.0  0.77567  0.66024  0.98311  1.0000
  C   C420      1.0  0.49391  0.50550  0.95126  1.0000
  H   H747      1.0  0.61487  0.54885  0.69393  1.0000
  S   S95       1.0  0.95065  0.60967  0.70012  1.0000
  C   C421      1.0  0.76472  0.52321  0.70361  1.0000
  C   C422      1.0  0.96137  0.48809  0.77463  1.0000
  C   C423      1.0  0.66843  0.63516  0.69037  1.0000
  C   C424      1.0  0.50341  0.50258  0.98374  1.0000
  H   H748      1.0  0.49905  0.91042  0.74373  1.0000
  H   H749      1.0  0.57303  0.49187  0.72152  1.0000
  H   H750      1.0  0.62704  0.61312  0.98632  1.0000
  C   C425      1.0  0.63435  0.54117  0.99836  1.0000
  H   H751      1.0  0.78147  0.55283  0.71813  1.0000
  H   H752      1.0  0.71772  0.56324  0.71233  1.0000
  C   C426      1.0  0.67491  0.59924  0.67769  1.0000
  H   H753      1.0  0.64127  0.49779  0.73854  1.0000
  H   H754      1.0  0.68889  0.60036  0.98123  1.0000
  H   H755      1.0  0.50510  0.53648  0.94069  1.0000
  H   H756      1.0  0.63411  0.62566  0.68952  1.0000
  C   C427      1.0  0.49698  0.50078  0.72036  1.0000
  H   H757      1.0  0.57027  0.97539  0.75854  1.0000
  H   H758      1.0  0.66170  0.56291  0.94955  1.0000
  C   C428      1.0  0.63212  0.59875  0.96434  1.0000
  Fe  Fe48      1.0  0.96275  0.55452  0.70482  1.0000
  S   S96       1.0  0.94672  0.52230  0.75446  1.0000
  C   C429      1.0  0.64879  0.55816  0.69777  1.0000
  H   H759      1.0  0.60066  0.57609  0.95367  1.0000
  C   C430      1.0  0.70347  0.53738  0.69393  1.0000
  C   C431      1.0  0.63032  0.48643  0.71348  1.0000
  H   H760      1.0  0.68012  0.64343  0.71554  1.0000
  C   C432      1.0  0.65695  0.57613  0.97230  1.0000
  H   H761      1.0  0.59950  0.52771  0.99601  1.0000
  H   H762      1.0  0.66189  0.75425  0.68097  1.0000
  H   H763      1.0  0.59715  0.50345  0.93836  1.0000
  H   H764      1.0  0.77116  0.53764  0.97682  1.0000
  H   H765      1.0  0.78920  0.86805  0.68579  1.0000
  H   H766      1.0  0.77329  0.49993  0.71321  1.0000
  H   H767      1.0  0.65733  0.49394  0.94886  1.0000
  H   H768      1.0  0.72101  0.55225  0.67120  1.0000
