data_image0
_chemical_formula_structural       FeSCSHFeSFeHSC2SCFeSCFeSFeS2CH7CH3C2H5C6H7C3H2C3H3CHCHFeHCH3CHCH4CHC2HCHC2H3CH7C2NCH2CHNCFeH2CH2C3SH6SHC4SHSH8CH4CH3C2H3CHC2HSH5CH3SH2SCH2FeSHFeS2HSHCSCFeS2NH2C7H4CHCHFeH2CH3C2FeH2CH4CH5CH2CHC2H3CHCHCHCNCH10CHCH5CNH2SC3HC2H2CHC2H6C3H6CH3NH2C2HC3HC3H2CH2SHC3SCHCHC2H2CH5CHCHSCHSFeSFeSH3CH3FeH3C2H6CHC4HCH2CH4CH2NC2H2C2H2CSCH2CHCH2CHC2H5C2HNSCHCH6C2H2CH5CH3CH4CH6CH2C2FeH3NCHCHC2SH2CHCH2CH4CH2CHC2H7C2SHCH3CHFeCSC3SHFeHSFeCSCHS3H2FeCSH6CH3CSH2NH2CH4C2HCH2CHFeCH6C3H2CH2CFeHC2H3FeH4CH3CHC2H3NHC2NCH2C2HS2CHCSHC2HCH4CH3C2HSCSH2CHCH5CH3C3H2SH5C2H2CHCHC3H2S2H2FeS2HFeS2FeCSNC2S2H3FeC2H2CHNHC2HCH2CH5C7H2CHSCH3C3H2CSCSCHC3FeCH2CHFeCH2CHCH2CHCH6CH2CH8CH2CH9SCH2CH5CHCH2FeS2FeS2H3C2H4CSH2CHCHCHC2HC6H5C6H4C2HFeCH4CSH2CHCH3C2H4FeH6CH3NHCHC2FeHSCHCHCHSHCHCH6C2HCH3CH2CHCH2N2H2CH5CH7FeS2HFeHSFeS2H3SH2C2HC2HC7H4CH2C3HCH2C2HCHCH3NHC2H3CHCHSCH12CH5CH2C2H2CH6CH3CH2CNH3C2H2CH2CSH2CH2NCSH2C2HCSHSHCH3CH6FeS2FeS2FeHSH2FeS2NHCH4CSC6H5CH3C2HCHC2H3NHCHCH2CH2SH2CH4C4H2CH2CH5FeHCH2C2H2CH2CH2C2HC3H5CH3CH2C2H3C2HCFeHC3H2C2H7CH2S2HCH2SH6FeS2FeSFeCSFeS2CFeHS2FeHSCHC2SHCHCH2CH4CH3CH2C3H2CH2C2H3C3H2C4HC2SH2SFeC2H4C2H2CH2SH3CH5CH3C2H3CHSHFeC3HCHCHCH2CHCH5CHCH3C2H3CHNCHCHSH2NHCH2C2H3NSH3CHC2H5SCHCH3FeCH2SH3CH5C3H2CHCHNH2NCH2FeS2FeHSC2HS2C2H6C3H2SC3HFeHC2H2CHNSH5CHNC5HC3HC2H10CH8C5H4C2NHCHC2HCH2CH5CH5SH3SCHC2H3C2H3CH7FeCH5CH7SH4C3HCH2C2H3C3FeH4CH4CH2CHCH3C2H4CH2C2HFeSH3C2FeSHFeS2FeSHSH2C4H6CHCH2CNCH2C6H3CSH2CH4CH3CFeH2CH2CH2CHCHCHC2HC2HC3HC2H2C3HC2H3NC12H19CH3CH5C2H20SNH2CH3CH2NC2H2FeHC2H4SHCHSH3CH3CHCHFeCSFeCSH3CS2CFeS2Fe2H2FeS2HC2H2C3H2C2H3S2CH2C7H4NC11H16C2H5CH2SHCHCSCFeCH3CHFeHC2H5CHNH9C3H4CH10CHC2H6SC2HC3HCH2C
_chemical_formula_sum              "Fe72 S144 C648 H1152 N36"
_cell_length_a       38.3362
_cell_length_b       38.5632
_cell_length_c       35.9223
_cell_angle_alpha    89.3738
_cell_angle_beta     90.1796
_cell_angle_gamma    119.313

_space_group_name_H-M_alt    "P 1"
_space_group_IT_number       1

loop_
  _space_group_symop_operation_xyz
  'x, y, z'

loop_
  _atom_site_type_symbol
  _atom_site_label
  _atom_site_symmetry_multiplicity
  _atom_site_fract_x
  _atom_site_fract_y
  _atom_site_fract_z
  _atom_site_occupancy
  Fe  Fe1       1.0  0.41908  0.08049  0.00460  1.0000
  S   S1        1.0  0.47868  0.13623  0.00358  1.0000
  C   C1        1.0  0.49850  0.23836  0.22117  1.0000
  S   S2        1.0  0.49429  0.10972  0.08562  1.0000
  H   H1        1.0  0.51369  0.26087  0.24316  1.0000
  Fe  Fe2       1.0  0.46422  0.14294  0.06292  1.0000
  S   S3        1.0  0.47667  0.20191  0.08768  1.0000
  Fe  Fe3       1.0  0.50211  0.09683  0.02618  1.0000
  H   H2        1.0  0.38922  0.20364  0.45009  1.0000
  S   S4        1.0  0.40302  0.08962  0.06243  1.0000
  C   C2        1.0  0.38088  0.20176  0.00624  1.0000
  C   C3        1.0  0.54666  0.06988  0.34276  1.0000
  S   S5        1.0  0.32743  0.31570  0.17088  1.0000
  C   C4        1.0  0.24754  0.35504  0.26812  1.0000
  Fe  Fe4       1.0  0.39848  0.34527  0.25413  1.0000
  S   S6        1.0  0.33901  0.28936  0.25405  1.0000
  C   C5        1.0  0.51909  0.04363  0.45905  1.0000
  Fe  Fe5       1.0  0.35619  0.28246  0.19591  1.0000
  S   S7        1.0  0.34278  0.22281  0.17243  1.0000
  Fe  Fe6       1.0  0.31650  0.32852  0.22908  1.0000
  S   S8        1.0  0.25524  0.32199  0.23993  1.0000
  S   S9        1.0  0.41737  0.33584  0.19770  1.0000
  C   C6        1.0  0.47450  0.35809  0.08201  1.0000
  H   H3        1.0  0.48638  0.35955  0.11054  1.0000
  H   H4        1.0  0.36617  0.10505  0.32532  1.0000
  H   H5        1.0  0.25807  0.19161  0.06863  1.0000
  H   H6        1.0  0.30112  0.36337  0.12622  1.0000
  H   H7        1.0  0.36499  0.20130  0.98029  1.0000
  H   H8        1.0  0.34487  0.23375  0.45697  1.0000
  H   H9        1.0  0.32550  0.32045  0.04005  1.0000
  C   C7        1.0  0.38593  0.34443  0.41744  1.0000
  H   H10       1.0  0.26850  0.09519  0.41491  1.0000
  H   H11       1.0  0.23401  0.27379  0.13188  1.0000
  H   H12       1.0  0.29210  0.23363  0.09607  1.0000
  C   C8        1.0  0.37835  0.33840  0.35016  1.0000
  C   C9        1.0  0.36145  0.33265  0.38585  1.0000
  H   H13       1.0  0.21583  0.31836  0.09363  1.0000
  H   H14       1.0  0.41983  0.30576  0.09585  1.0000
  H   H15       1.0  0.35926  0.32966  0.32595  1.0000
  H   H16       1.0  0.32938  0.31874  0.38900  1.0000
  H   H17       1.0  0.17042  0.36518  0.30399  1.0000
  C   C10       1.0  0.43885  0.20693  0.11099  1.0000
  C   C11       1.0  0.44946  0.24190  0.13071  1.0000
  C   C12       1.0  0.42032  0.24726  0.14945  1.0000
  C   C13       1.0  0.38014  0.21778  0.14832  1.0000
  C   C14       1.0  0.36936  0.18307  0.12804  1.0000
  C   C15       1.0  0.39859  0.17756  0.10958  1.0000
  H   H18       1.0  0.48050  0.26494  0.13159  1.0000
  H   H19       1.0  0.42911  0.27408  0.16497  1.0000
  H   H20       1.0  0.33830  0.16017  0.12686  1.0000
  H   H21       1.0  0.38987  0.15073  0.09410  1.0000
  H   H22       1.0  0.35118  0.24750  0.33992  1.0000
  H   H23       1.0  0.33908  0.15546  0.29567  1.0000
  H   H24       1.0  0.36519  0.14550  0.34903  1.0000
  C   C16       1.0  0.34956  0.35046  0.04421  1.0000
  C   C17       1.0  0.20825  0.34693  0.27537  1.0000
  C   C18       1.0  0.51740  0.04211  0.26718  1.0000
  H   H25       1.0  0.43556  0.15197  0.30218  1.0000
  H   H26       1.0  0.18334  0.32078  0.26362  1.0000
  C   C19       1.0  0.40626  0.12819  0.37148  1.0000
  C   C20       1.0  0.43525  0.06877  0.17887  1.0000
  C   C21       1.0  0.42470  0.31232  0.03424  1.0000
  H   H27       1.0  0.39566  0.27106  0.44673  1.0000
  H   H28       1.0  0.32235  0.21907  0.30063  1.0000
  H   H29       1.0  0.25851  0.34092  0.15536  1.0000
  C   C22       1.0  0.40944  0.24466  0.01924  1.0000
  H   H30       1.0  0.30281  0.36047  0.41431  1.0000
  C   C23       1.0  0.41558  0.16421  0.30950  1.0000
  H   H31       1.0  0.26131  0.32235  0.43790  1.0000
  Fe  Fe7       1.0  0.38773  0.36977  0.17618  1.0000
  H   H32       1.0  0.45768  0.29695  0.07556  1.0000
  C   C24       1.0  0.36023  0.25661  0.05392  1.0000
  H   H33       1.0  0.51738  0.04756  0.35518  1.0000
  H   H34       1.0  0.28457  0.33410  0.34879  1.0000
  H   H35       1.0  0.28138  0.06369  0.44240  1.0000
  C   C25       1.0  0.36604  0.13836  0.21188  1.0000
  H   H36       1.0  0.36852  0.24187  0.07638  1.0000
  C   C26       1.0  0.25389  0.31623  0.36037  1.0000
  H   H37       1.0  0.39129  0.16038  0.19474  1.0000
  H   H38       1.0  0.32376  0.15516  0.44229  1.0000
  H   H39       1.0  0.39481  0.21671  0.33465  1.0000
  H   H40       1.0  0.47838  0.18987  0.25988  1.0000
  C   C27       1.0  0.31342  0.12644  0.45723  1.0000
  H   H41       1.0  0.37172  0.13186  0.45399  1.0000
  C   C28       1.0  0.37810  0.21790  0.30992  1.0000
  C   C29       1.0  0.46488  0.19997  0.23796  1.0000
  H   H42       1.0  0.44566  0.23300  0.27234  1.0000
  C   C30       1.0  0.34803  0.09864  0.19159  1.0000
  H   H43       1.0  0.41397  0.33445  0.03261  1.0000
  C   C31       1.0  0.31615  0.22817  0.04273  1.0000
  C   C32       1.0  0.42740  0.36191  0.41322  1.0000
  H   H44       1.0  0.29896  0.19066  0.09261  1.0000
  H   H45       1.0  0.43542  0.19243  0.32411  1.0000
  H   H46       1.0  0.42588  0.19409  0.97577  1.0000
  C   C33       1.0  0.29355  0.09334  0.42862  1.0000
  H   H47       1.0  0.39732  0.24612  0.29454  1.0000
  H   H48       1.0  0.44621  0.08959  0.15574  1.0000
  H   H49       1.0  0.48658  0.25074  0.19981  1.0000
  H   H50       1.0  0.18360  0.32791  0.13890  1.0000
  H   H51       1.0  0.32072  0.07605  0.20618  1.0000
  H   H52       1.0  0.45340  0.17736  0.21572  1.0000
  H   H53       1.0  0.52089  0.23217  0.20767  1.0000
  C   C34       1.0  0.34144  0.21959  0.32417  1.0000
  C   C35       1.0  0.44284  0.31536  0.07364  1.0000
  N   N1        1.0  0.39816  0.17194  0.27462  1.0000
  C   C36       1.0  0.24751  0.28647  0.10427  1.0000
  H   H54       1.0  0.33963  0.10242  0.16284  1.0000
  H   H55       1.0  0.38391  0.10538  0.39065  1.0000
  C   C37       1.0  0.43105  0.20672  0.25383  1.0000
  H   H56       1.0  0.40187  0.12349  0.24849  1.0000
  N   N2        1.0  0.39152  0.27166  0.02331  1.0000
  C   C38       1.0  0.24484  0.34092  0.38766  1.0000
  Fe  Fe8       1.0  0.43378  0.05582  0.08128  1.0000
  H   H57       1.0  0.53975  0.08867  0.32373  1.0000
  H   H58       1.0  0.34882  0.24796  0.97779  1.0000
  C   C39       1.0  0.38498  0.13449  0.33813  1.0000
  H   H59       1.0  0.51732  0.05997  0.13360  1.0000
  H   H60       1.0  0.42687  0.11743  0.36215  1.0000
  C   C40       1.0  0.37397  0.27660  0.98721  1.0000
  C   C41       1.0  0.36572  0.18191  0.28376  1.0000
  C   C42       1.0  0.18861  0.35852  0.13431  1.0000
  S   S10       1.0  0.43156  0.04248  0.39521  1.0000
  H   H61       1.0  0.15788  0.35661  0.18616  1.0000
  H   H62       1.0  0.23240  0.30700  0.33685  1.0000
  H   H63       1.0  0.35458  0.18942  0.25792  1.0000
  H   H64       1.0  0.35400  0.11041  0.26594  1.0000
  H   H65       1.0  0.22992  0.26453  0.08252  1.0000
  H   H66       1.0  0.45556  0.11454  0.22030  1.0000
  S   S11       1.0  0.10760  0.36438  0.36204  1.0000
  H   H67       1.0  0.26230  0.33701  0.06947  1.0000
  C   C43       1.0  0.15585  0.36156  0.15587  1.0000
  C   C44       1.0  0.44016  0.08288  0.21548  1.0000
  C   C45       1.0  0.28978  0.20999  0.07716  1.0000
  C   C46       1.0  0.42527  0.05621  0.24568  1.0000
  S   S12       1.0  0.44177  0.36246  0.30178  1.0000
  H   H68       1.0  0.34280  0.14752  0.21292  1.0000
  S   S13       1.0  0.43104  0.07468  0.29124  1.0000
  H   H69       1.0  0.45022  0.32300  0.01440  1.0000
  H   H70       1.0  0.41851  0.21641  0.23041  1.0000
  H   H71       1.0  0.37003  0.08787  0.18974  1.0000
  H   H72       1.0  0.35924  0.28189  0.06763  1.0000
  H   H73       1.0  0.32345  0.19394  0.34303  1.0000
  H   H74       1.0  0.42163  0.24125  0.04629  1.0000
  H   H75       1.0  0.30416  0.24501  0.02697  1.0000
  H   H76       1.0  0.42354  0.15634  0.38697  1.0000
  C   C47       1.0  0.26929  0.35626  0.12790  1.0000
  H   H77       1.0  0.12592  0.33869  0.14593  1.0000
  H   H78       1.0  0.41957  0.17789  0.02393  1.0000
  H   H79       1.0  0.25097  0.28903  0.37421  1.0000
  H   H80       1.0  0.35885  0.18500  0.02854  1.0000
  C   C48       1.0  0.24729  0.32542  0.09672  1.0000
  H   H81       1.0  0.35599  0.34095  0.10204  1.0000
  H   H82       1.0  0.27856  0.29148  0.10332  1.0000
  H   H83       1.0  0.31540  0.09615  0.40694  1.0000
  C   C49       1.0  0.38030  0.13474  0.25148  1.0000
  C   C50       1.0  0.27150  0.35106  0.42288  1.0000
  H   H84       1.0  0.31302  0.20353  0.02503  1.0000
  H   H85       1.0  0.52310  0.10140  0.40031  1.0000
  H   H86       1.0  0.49347  0.04526  0.28155  1.0000
  C   C51       1.0  0.36642  0.36223  0.07961  1.0000
  H   H87       1.0  0.21276  0.32332  0.39552  1.0000
  C   C52       1.0  0.40375  0.17937  0.99855  1.0000
  C   C53       1.0  0.41978  0.35518  0.34603  1.0000
  H   H88       1.0  0.49960  0.36826  0.06188  1.0000
  S   S14       1.0  0.34202  0.36059  0.97018  1.0000
  H   H89       1.0  0.18448  0.36308  0.10449  1.0000
  H   H90       1.0  0.49337  0.04734  0.45349  1.0000
  H   H91       1.0  0.36060  0.29620  0.99168  1.0000
  H   H92       1.0  0.54089  0.07228  0.25847  1.0000
  H   H93       1.0  0.38251  0.14846  0.98999  1.0000
  C   C54       1.0  0.44425  0.36682  0.37763  1.0000
  H   H94       1.0  0.20859  0.36449  0.43786  1.0000
  H   H95       1.0  0.43581  0.25826  0.00030  1.0000
  H   H96       1.0  0.24927  0.36798  0.37274  1.0000
  S   S15       1.0  0.44323  0.04051  0.02326  1.0000
  H   H97       1.0  0.32474  0.04030  0.29405  1.0000
  H   H98       1.0  0.28535  0.04063  0.26684  1.0000
  S   S16       1.0  0.36410  0.33705  0.46183  1.0000
  C   C55       1.0  0.22811  0.36614  0.46162  1.0000
  H   H99       1.0  0.34679  0.28641  0.63581  1.0000
  H   H100      1.0  0.15729  0.24752  0.72049  1.0000
  Fe  Fe9       1.0  0.09711  0.32110  0.73226  1.0000
  S   S17       1.0  0.14723  0.31229  0.75654  1.0000
  H   H101      1.0  0.28732  0.08806  0.52892  1.0000
  Fe  Fe10      1.0  0.34072  0.06798  0.69987  1.0000
  S   S18       1.0  0.39754  0.06470  0.69669  1.0000
  S   S19       1.0  0.33597  0.12327  0.68620  1.0000
  H   H102      1.0  0.36293  0.15003  0.56954  1.0000
  S   S20       1.0  0.07460  0.33710  0.46685  1.0000
  H   H103      1.0  0.51639  0.09665  0.71199  1.0000
  C   C56       1.0  0.41164  0.16311  0.51127  1.0000
  S   S21       1.0  0.46371  0.34553  0.50587  1.0000
  C   C57       1.0  0.34868  0.13004  0.54552  1.0000
  Fe  Fe11      1.0  0.44488  0.31518  0.56200  1.0000
  S   S22       1.0  0.45154  0.26059  0.57383  1.0000
  S   S23       1.0  0.38633  0.31528  0.56269  1.0000
  N   N3        1.0  0.14596  0.36814  0.88222  1.0000
  H   H104      1.0  0.42217  0.23639  0.48500  1.0000
  H   H105      1.0  0.33892  0.09363  0.48441  1.0000
  C   C58       1.0  0.11228  0.29088  0.87923  1.0000
  C   C59       1.0  0.36969  0.16192  0.65616  1.0000
  C   C60       1.0  0.36281  0.19379  0.64793  1.0000
  C   C61       1.0  0.38811  0.22453  0.62333  1.0000
  C   C62       1.0  0.42069  0.22380  0.60680  1.0000
  C   C63       1.0  0.42791  0.19217  0.61529  1.0000
  C   C64       1.0  0.40242  0.16124  0.63974  1.0000
  H   H106      1.0  0.33763  0.19456  0.66056  1.0000
  H   H107      1.0  0.38235  0.24871  0.61703  1.0000
  H   H108      1.0  0.45308  0.19137  0.60267  1.0000
  H   H109      1.0  0.40800  0.13686  0.64578  1.0000
  C   C65       1.0  0.39052  0.06359  0.91366  1.0000
  H   H110      1.0  0.30462  0.33581  0.79488  1.0000
  C   C66       1.0  0.34914  0.12510  0.47636  1.0000
  H   H111      1.0  0.30827  0.23631  0.62618  1.0000
  Fe  Fe12      1.0  0.06883  0.36185  0.67621  1.0000
  H   H112      1.0  0.41839  0.27673  0.94805  1.0000
  H   H113      1.0  0.30721  0.33864  0.55918  1.0000
  C   C67       1.0  0.43364  0.36815  0.73019  1.0000
  H   H114      1.0  0.17002  0.22285  0.68470  1.0000
  H   H115      1.0  0.15150  0.25633  0.67216  1.0000
  H   H116      1.0  0.53169  0.11732  0.93501  1.0000
  C   C68       1.0  0.19145  0.35180  0.77528  1.0000
  C   C69       1.0  0.21566  0.34287  0.79844  1.0000
  Fe  Fe13      1.0  0.40751  0.34989  0.50909  1.0000
  H   H117      1.0  0.29404  0.13570  0.54385  1.0000
  H   H118      1.0  0.20694  0.31215  0.80453  1.0000
  C   C70       1.0  0.12061  0.36693  0.91475  1.0000
  H   H119      1.0  0.50189  0.11961  0.89729  1.0000
  H   H120      1.0  0.26167  0.24356  0.66816  1.0000
  H   H121      1.0  0.30189  0.27767  0.61124  1.0000
  H   H122      1.0  0.09283  0.32781  0.85158  1.0000
  C   C71       1.0  0.53085  0.12114  0.90439  1.0000
  H   H123      1.0  0.09094  0.36162  0.90499  1.0000
  H   H124      1.0  0.30885  0.25961  0.81279  1.0000
  H   H125      1.0  0.35373  0.10435  0.55017  1.0000
  H   H126      1.0  0.33751  0.31561  0.74503  1.0000
  H   H127      1.0  0.37685  0.26535  0.49353  1.0000
  C   C72       1.0  0.30133  0.30664  0.68176  1.0000
  H   H128      1.0  0.10851  0.25950  0.82787  1.0000
  H   H129      1.0  0.22738  0.28412  0.74797  1.0000
  C   C73       1.0  0.29285  0.35174  0.72519  1.0000
  H   H130      1.0  0.51068  0.05971  0.89565  1.0000
  C   C74       1.0  0.53127  0.06882  0.77864  1.0000
  C   C75       1.0  0.55108  0.11209  0.76326  1.0000
  H   H131      1.0  0.51025  0.09802  0.63485  1.0000
  H   H132      1.0  0.36623  0.31277  0.92214  1.0000
  H   H133      1.0  0.41731  0.11892  0.54626  1.0000
  C   C76       1.0  0.06713  0.34616  0.57843  1.0000
  H   H134      1.0  0.09289  0.28524  0.90395  1.0000
  C   C77       1.0  0.53492  0.08836  0.88467  1.0000
  H   H135      1.0  0.55201  0.12298  0.83434  1.0000
  C   C78       1.0  0.52152  0.09982  0.60610  1.0000
  H   H136      1.0  0.27118  0.35204  0.74546  1.0000
  C   C79       1.0  0.21314  0.28586  0.69102  1.0000
  N   N4        1.0  0.54074  0.06428  0.81865  1.0000
  C   C80       1.0  0.36538  0.18950  0.50773  1.0000
  H   H137      1.0  0.49838  0.05619  0.77510  1.0000
  H   H138      1.0  0.35299  0.08232  0.88504  1.0000
  H   H139      1.0  0.32268  0.36925  0.73849  1.0000
  H   H140      1.0  0.21129  0.31319  0.69655  1.0000
  H   H141      1.0  0.48534  0.16592  0.52148  1.0000
  H   H142      1.0  0.37592  0.20601  0.53438  1.0000
  H   H143      1.0  0.40048  0.10211  0.49974  1.0000
  H   H144      1.0  0.46898  0.11482  0.50922  1.0000
  H   H145      1.0  0.51682  0.06365  0.55945  1.0000
  H   H146      1.0  0.22474  0.28744  0.66250  1.0000
  C   C81       1.0  0.50238  0.05837  0.58732  1.0000
  H   H147      1.0  0.42713  0.17903  0.48526  1.0000
  C   C82       1.0  0.07870  0.35700  0.51161  1.0000
  H   H148      1.0  0.29730  0.07283  0.59516  1.0000
  H   H149      1.0  0.23353  0.24964  0.72088  1.0000
  H   H150      1.0  0.19371  0.35398  0.87452  1.0000
  H   H151      1.0  0.42691  0.18458  0.53416  1.0000
  H   H152      1.0  0.50069  0.08599  0.83566  1.0000
  C   C83       1.0  0.38127  0.29469  0.91829  1.0000
  N   N5        1.0  0.36787  0.15163  0.50960  1.0000
  H   H153      1.0  0.53916  0.05124  0.75974  1.0000
  H   H154      1.0  0.30044  0.11926  0.60888  1.0000
  S   S24       1.0  0.07375  0.30622  0.67362  1.0000
  C   C84       1.0  0.46354  0.14034  0.50477  1.0000
  C   C85       1.0  0.12207  0.33084  0.85986  1.0000
  C   C86       1.0  0.37591  0.24904  0.46793  1.0000
  H   H155      1.0  0.30964  0.29468  0.84590  1.0000
  C   C87       1.0  0.38250  0.06275  0.84628  1.0000
  C   C88       1.0  0.55001  0.03837  0.61028  1.0000
  H   H156      1.0  0.29603  0.26639  0.74675  1.0000
  H   H157      1.0  0.05554  0.32587  0.60183  1.0000
  C   C89       1.0  0.30291  0.11270  0.54892  1.0000
  H   H158      1.0  0.11384  0.34117  0.93337  1.0000
  C   C90       1.0  0.40328  0.29435  0.95377  1.0000
  C   C91       1.0  0.28644  0.35291  0.50790  1.0000
  H   H159      1.0  0.26756  0.36136  0.67275  1.0000
  H   H160      1.0  0.17790  0.35074  0.92144  1.0000
  H   H161      1.0  0.30714  0.25286  0.69162  1.0000
  H   H162      1.0  0.36953  0.06883  0.82211  1.0000
  H   H163      1.0  0.26901  0.36611  0.83217  1.0000
  H   H164      1.0  0.35022  0.31001  0.81318  1.0000
  C   C92       1.0  0.28817  0.09532  0.58785  1.0000
  C   C93       1.0  0.06468  0.33119  0.54246  1.0000
  C   C94       1.0  0.42535  0.03999  0.87389  1.0000
  H   H165      1.0  0.33424  0.32718  0.68171  1.0000
  H   H166      1.0  0.35862  0.26396  0.91053  1.0000
  H   H167      1.0  0.54866  0.09604  0.49311  1.0000
  H   H168      1.0  0.52470  0.13284  0.55553  1.0000
  H   H169      1.0  0.13795  0.33278  0.83339  1.0000
  H   H170      1.0  0.13984  0.29054  0.88815  1.0000
  C   C95       1.0  0.42078  0.12825  0.51649  1.0000
  H   H171      1.0  0.28986  0.31694  0.65823  1.0000
  H   H172      1.0  0.26280  0.28611  0.79588  1.0000
  H   H173      1.0  0.28640  0.32745  0.49380  1.0000
  N   N6        1.0  0.28389  0.30944  0.71852  1.0000
  H   H174      1.0  0.47939  0.11677  0.58280  1.0000
  H   H175      1.0  0.52607  0.15775  0.59810  1.0000
  C   C96       1.0  0.30433  0.29826  0.74869  1.0000
  C   C97       1.0  0.23953  0.28095  0.72096  1.0000
  H   H176      1.0  0.29021  0.12309  0.47740  1.0000
  C   C98       1.0  0.29411  0.26478  0.67094  1.0000
  C   C99       1.0  0.29513  0.30417  0.78948  1.0000
  C   C100      1.0  0.41722  0.04902  0.90949  1.0000
  H   H177      1.0  0.25502  0.08074  0.58899  1.0000
  C   C101      1.0  0.17044  0.25091  0.69226  1.0000
  C   C102      1.0  0.31395  0.26651  0.63368  1.0000
  C   C103      1.0  0.31736  0.29129  0.81689  1.0000
  H   H178      1.0  0.44641  0.34970  0.73857  1.0000
  H   H179      1.0  0.21505  0.33498  0.47215  1.0000
  C   C104      1.0  0.08980  0.25612  0.85270  1.0000
  H   H180      1.0  0.40297  0.30804  0.89495  1.0000
  H   H181      1.0  0.51236  0.04429  0.66626  1.0000
  S   S25       1.0  0.37529  0.06958  0.95813  1.0000
  H   H182      1.0  0.53533  0.12748  0.77449  1.0000
  C   C105      1.0  0.51223  0.12843  0.58415  1.0000
  C   C106      1.0  0.18380  0.36864  0.89534  1.0000
  C   C107      1.0  0.37353  0.07085  0.88197  1.0000
  S   S26       1.0  0.32322  0.03795  0.75629  1.0000
  C   C108      1.0  0.55039  0.07110  0.48162  1.0000
  H   H183      1.0  0.06141  0.25458  0.84337  1.0000
  C   C109      1.0  0.39034  0.21920  0.47623  1.0000
  H   H184      1.0  0.33396  0.18309  0.50534  1.0000
  C   C110      1.0  0.40814  0.04689  0.84213  1.0000
  C   C111      1.0  0.53145  0.09130  0.84182  1.0000
  H   H185      1.0  0.43316  0.35555  0.67165  1.0000
  H   H186      1.0  0.08257  0.22775  0.86708  1.0000
  C   C112      1.0  0.54823  0.11293  0.72084  1.0000
  H   H187      1.0  0.25634  0.34255  0.51996  1.0000
  H   H188      1.0  0.16583  0.34311  0.51287  1.0000
  H   H189      1.0  0.43042  0.04326  0.93380  1.0000
  H   H190      1.0  0.46814  0.14852  0.47474  1.0000
  H   H191      1.0  0.47013  0.04857  0.58213  1.0000
  C   C113      1.0  0.31590  0.36464  0.54034  1.0000
  H   H192      1.0  0.42625  0.32564  0.95915  1.0000
  C   C114      1.0  0.52439  0.47108  0.28928  1.0000
  H   H193      1.0  0.23152  0.37906  0.17766  1.0000
  S   S27       1.0  0.13120  0.45620  0.33615  1.0000
  C   C115      1.0  0.36395  0.37711  0.01409  1.0000
  H   H194      1.0  0.28862  0.44413  0.44839  1.0000
  S   S28       1.0  0.15415  0.43938  0.42005  1.0000
  Fe  Fe14      1.0  0.11755  0.46491  0.39515  1.0000
  S   S29       1.0  0.12293  0.52359  0.41340  1.0000
  Fe  Fe15      1.0  0.16248  0.42483  0.36118  1.0000
  S   S30       1.0  0.22483  0.43743  0.34387  1.0000
  H   H195      1.0  0.29700  0.44065  0.31733  1.0000
  H   H196      1.0  0.06293  0.61697  0.05132  1.0000
  H   H197      1.0  0.25815  0.43275  0.08785  1.0000
  C   C116      1.0  0.28386  0.42056  0.42818  1.0000
  H   H198      1.0  0.08530  0.52218  0.21602  1.0000
  H   H199      1.0  0.50819  0.43940  0.29845  1.0000
  H   H200      1.0  0.43500  0.45816  0.05979  1.0000
  Fe  Fe16      1.0  0.07579  0.39660  0.34097  1.0000
  H   H201      1.0  0.08745  0.69661  0.99211  1.0000
  H   H202      1.0  0.05802  0.45755  0.27717  1.0000
  H   H203      1.0  0.27377  0.38859  0.01286  1.0000
  C   C117      1.0  0.53206  0.53729  0.30772  1.0000
  C   C118      1.0  0.11861  0.61842  0.06454  1.0000
  H   H204      1.0  0.12185  0.41653  0.19514  1.0000
  H   H205      1.0  0.10309  0.40630  0.26207  1.0000
  H   H206      1.0  0.37387  0.45232  0.18587  1.0000
  H   H207      1.0  0.17016  0.64616  0.02769  1.0000
  H   H208      1.0  0.12933  0.64732  0.07871  1.0000
  H   H209      1.0  0.30661  0.39315  0.19270  1.0000
  C   C119      1.0  0.45445  0.52190  0.15710  1.0000
  H   H210      1.0  0.08901  0.59433  0.31236  1.0000
  C   C120      1.0  0.08779  0.61431  0.36726  1.0000
  C   C121      1.0  0.52233  0.51691  0.44780  1.0000
  C   C122      1.0  0.41470  0.45167  0.35412  1.0000
  C   C123      1.0  0.09071  0.40324  0.20310  1.0000
  H   H211      1.0  0.40651  0.43666  0.99643  1.0000
  C   C124      1.0  0.23275  0.40591  0.31365  1.0000
  H   H212      1.0  0.48450  0.44867  0.35603  1.0000
  H   H213      1.0  0.06554  0.63725  0.11615  1.0000
  C   C125      1.0  0.39674  0.40118  0.08568  1.0000
  H   H214      1.0  0.31614  0.40140  0.06881  1.0000
  H   H215      1.0  0.31175  0.47995  0.37494  1.0000
  H   H216      1.0  0.13027  0.59968  0.01117  1.0000
  H   H217      1.0  0.48135  0.41269  0.23672  1.0000
  C   C126      1.0  0.27212  0.41445  0.30577  1.0000
  H   H218      1.0  0.23854  0.38374  0.07204  1.0000
  H   H219      1.0  0.53015  0.44587  0.21732  1.0000
  N   N7        1.0  0.27047  0.38143  0.44828  1.0000
  C   C127      1.0  0.41129  0.42801  0.05551  1.0000
  C   C128      1.0  0.32281  0.43666  0.40486  1.0000
  H   H220      1.0  0.43922  0.51379  0.12964  1.0000
  H   H221      1.0  0.11659  0.50643  0.24086  1.0000
  C   C129      1.0  0.53600  0.48069  0.07431  1.0000
  C   C130      1.0  0.06692  0.61096  0.12751  1.0000
  H   H222      1.0  0.09108  0.53523  0.06853  1.0000
  H   H223      1.0  0.07677  0.66165  0.18588  1.0000
  C   C131      1.0  0.06692  0.58576  0.33523  1.0000
  S   S31       1.0  0.05991  0.40755  0.39806  1.0000
  C   C132      1.0  0.26420  0.40726  0.08738  1.0000
  H   H224      1.0  0.38588  0.44252  0.33966  1.0000
  H   H225      1.0  0.35214  0.45198  0.23043  1.0000
  C   C133      1.0  0.30333  0.42715  0.14439  1.0000
  H   H226      1.0  0.06861  0.46513  0.08143  1.0000
  C   C134      1.0  0.50547  0.47480  0.25208  1.0000
  H   H227      1.0  0.09266  0.51760  0.30961  1.0000
  H   H228      1.0  0.11492  0.61292  0.37597  1.0000
  C   C135      1.0  0.51413  0.51910  0.13039  1.0000
  H   H229      1.0  0.44939  0.49209  0.31061  1.0000
  C   C136      1.0  0.49987  0.54440  0.15222  1.0000
  C   C137      1.0  0.39514  0.41591  0.01965  1.0000
  H   H230      1.0  0.30384  0.45613  0.14043  1.0000
  H   H231      1.0  0.49542  0.51357  0.43475  1.0000
  H   H232      1.0  0.25999  0.41892  0.40929  1.0000
  H   H233      1.0  0.52953  0.55416  0.33166  1.0000
  H   H234      1.0  0.28592  0.42512  0.20325  1.0000
  C   C138      1.0  0.30881  0.42241  0.18660  1.0000
  C   C139      1.0  0.05755  0.54464  0.11353  1.0000
  H   H235      1.0  0.50351  0.49038  0.14572  1.0000
  N   N8        1.0  0.26634  0.39398  0.12662  1.0000
  S   S32       1.0  0.41627  0.41673  0.13077  1.0000
  C   C140      1.0  0.08013  0.39754  0.24104  1.0000
  H   H236      1.0  0.44659  0.37182  0.43731  1.0000
  C   C141      1.0  0.55110  0.45609  0.05377  1.0000
  H   H237      1.0  0.49695  0.51091  0.10399  1.0000
  H   H238      1.0  0.34761  0.43740  0.42143  1.0000
  H   H239      1.0  0.06330  0.57265  0.04096  1.0000
  H   H240      1.0  0.46143  0.37820  0.08049  1.0000
  H   H241      1.0  0.13015  0.60128  0.08028  1.0000
  H   H242      1.0  0.51281  0.55126  0.18056  1.0000
  C   C142      1.0  0.33619  0.47892  0.39077  1.0000
  C   C143      1.0  0.06118  0.39167  0.17552  1.0000
  H   H243      1.0  0.52482  0.50401  0.23850  1.0000
  H   H244      1.0  0.06730  0.60692  0.39148  1.0000
  C   C144      1.0  0.34956  0.45501  0.19990  1.0000
  H   H245      1.0  0.10626  0.53983  0.96731  1.0000
  H   H246      1.0  0.50790  0.53374  0.28849  1.0000
  H   H247      1.0  0.35310  0.48490  0.19400  1.0000
  H   H248      1.0  0.52191  0.56367  0.06828  1.0000
  H   H249      1.0  0.49222  0.49630  0.36918  1.0000
  C   C145      1.0  0.07532  0.53301  0.96694  1.0000
  H   H250      1.0  0.47575  0.47223  0.25618  1.0000
  H   H251      1.0  0.23164  0.41840  0.15096  1.0000
  H   H252      1.0  0.12561  0.64413  0.00872  1.0000
  C   C146      1.0  0.27951  0.38894  0.28342  1.0000
  H   H253      1.0  0.44464  0.54078  0.17194  1.0000
  H   H254      1.0  0.53628  0.46047  0.39057  1.0000
  H   H255      1.0  0.52769  0.49655  0.05330  1.0000
  H   H256      1.0  0.36241  0.48905  0.37203  1.0000
  C   C147      1.0  0.13715  0.62759  0.02562  1.0000
  H   H257      1.0  0.09908  0.62140  0.13321  1.0000
  H   H258      1.0  0.32522  0.45154  0.07061  1.0000
  H   H259      1.0  0.15827  0.39123  0.15142  1.0000
  H   H260      1.0  0.05313  0.62476  0.22175  1.0000
  H   H261      1.0  0.31792  0.41773  0.38018  1.0000
  H   H262      1.0  0.50843  0.45923  0.08948  1.0000
  C   C148      1.0  0.08355  0.52508  0.43755  1.0000
  H   H263      1.0  0.12434  0.69318  0.42325  1.0000
  H   H264      1.0  0.44524  0.49434  0.17382  1.0000
  C   C149      1.0  0.05652  0.48283  0.26371  1.0000
  C   C150      1.0  0.50061  0.44275  0.22461  1.0000
  Fe  Fe17      1.0  0.09697  0.38125  0.41900  1.0000
  H   H265      1.0  0.09690  0.64513  0.35809  1.0000
  H   H266      1.0  0.47631  0.37987  0.37460  1.0000
  H   H267      1.0  0.44067  0.44172  0.30582  1.0000
  N   N9        1.0  0.52616  0.49748  0.32091  1.0000
  C   C151      1.0  0.44859  0.46644  0.32552  1.0000
  H   H268      1.0  0.33087  0.43059  0.13056  1.0000
  C   C152      1.0  0.20084  0.37207  0.29824  1.0000
  H   H269      1.0  0.42016  0.47558  0.37411  1.0000
  C   C153      1.0  0.06390  0.48297  0.10285  1.0000
  C   C154      1.0  0.23061  0.38908  0.14864  1.0000
  S   S33       1.0  0.07524  0.39906  0.12812  1.0000
  H   H270      1.0  0.08493  0.55659  0.13114  1.0000
  H   H271      1.0  0.11082  0.69273  0.05532  1.0000
  C   C155      1.0  0.29398  0.41961  0.02183  1.0000
  H   H272      1.0  0.50805  0.57266  0.13719  1.0000
  C   C156      1.0  0.48885  0.47741  0.34467  1.0000
  H   H273      1.0  0.52849  0.43694  0.03302  1.0000
  H   H274      1.0  0.41213  0.42555  0.36983  1.0000
  C   C157      1.0  0.08811  0.56198  0.44819  1.0000
  H   H275      1.0  0.05455  0.47839  0.99861  1.0000
  H   H276      1.0  0.09872  0.63162  0.20059  1.0000
  H   H277      1.0  0.48600  0.44529  0.19878  1.0000
  H   H278      1.0  0.08887  0.49334  0.12313  1.0000
  C   C158      1.0  0.08577  0.49705  0.23095  1.0000
  H   H279      1.0  0.30986  0.39541  0.27816  1.0000
  H   H280      1.0  0.34478  0.49977  0.41448  1.0000
  C   C159      1.0  0.07218  0.59566  0.06271  1.0000
  H   H281      1.0  0.08042  0.54500  0.27782  1.0000
  C   C160      1.0  0.06266  0.51814  0.08418  1.0000
  C   C161      1.0  0.07013  0.63153  0.19523  1.0000
  H   H282      1.0  0.28021  0.43841  0.01510  1.0000
  H   H283      1.0  0.09632  0.37388  0.98572  1.0000
  H   H284      1.0  0.07702  0.47230  0.21104  1.0000
  H   H285      1.0  0.11590  0.58886  0.44228  1.0000
  H   H286      1.0  0.12083  0.42745  0.98653  1.0000
  H   H287      1.0  0.07523  0.54017  0.36276  1.0000
  H   H288      1.0  0.32241  0.43112  0.00592  1.0000
  C   C162      1.0  0.30255  0.42057  0.06349  1.0000
  C   C163      1.0  0.06738  0.51608  0.29282  1.0000
  S   S34       1.0  0.37521  0.38506  0.23306  1.0000
  H   H289      1.0  0.11607  0.68722  0.29810  1.0000
  C   C164      1.0  0.10731  0.40114  0.96811  1.0000
  H   H290      1.0  0.16089  0.68357  0.30613  1.0000
  H   H291      1.0  0.55012  0.58471  0.24214  1.0000
  H   H292      1.0  0.54897  0.44304  0.34898  1.0000
  C   C165      1.0  0.14920  0.70308  0.29555  1.0000
  H   H293      1.0  0.06926  0.53431  0.76621  1.0000
  Fe  Fe18      1.0  0.09245  0.65064  0.90089  1.0000
  C   C166      1.0  0.12782  0.51993  0.63337  1.0000
  S   S35       1.0  0.10263  0.60166  0.92556  1.0000
  C   C167      1.0  0.13380  0.44352  0.81660  1.0000
  C   C168      1.0  0.49996  0.49156  0.77612  1.0000
  C   C169      1.0  0.08653  0.51570  0.64291  1.0000
  S   S36       1.0  0.10725  0.67074  0.84119  1.0000
  H   H294      1.0  0.10757  0.44312  0.80293  1.0000
  Fe  Fe19      1.0  0.43554  0.48297  0.89532  1.0000
  H   H295      1.0  0.32095  0.38444  0.67358  1.0000
  S   S37       1.0  0.48831  0.54233  0.91215  1.0000
  Fe  Fe20      1.0  0.35244  0.44288  0.85737  1.0000
  C   C170      1.0  0.09866  0.41300  0.55305  1.0000
  S   S38       1.0  0.30569  0.45273  0.82702  1.0000
  C   C171      1.0  0.52934  0.49890  0.66186  1.0000
  H   H296      1.0  0.10925  0.60463  0.52950  1.0000
  S   S39       1.0  0.43171  0.38194  0.80471  1.0000
  S   S40       1.0  0.37278  0.46124  0.91645  1.0000
  S   S41       1.0  0.41557  0.47116  0.83556  1.0000
  H   H297      1.0  0.11248  0.44473  0.55697  1.0000
  H   H298      1.0  0.08152  0.40059  0.95338  1.0000
  Fe  Fe21      1.0  0.49167  0.40317  0.53710  1.0000
  C   C172      1.0  0.17835  0.37404  0.50209  1.0000
  S   S42       1.0  0.43662  0.40929  0.53665  1.0000
  H   H299      1.0  0.18439  0.39891  0.75022  1.0000
  H   H300      1.0  0.48380  0.46862  0.79794  1.0000
  H   H301      1.0  0.07078  0.48953  0.66204  1.0000
  H   H302      1.0  0.51329  0.49249  0.68908  1.0000
  H   H303      1.0  0.52649  0.58003  0.58099  1.0000
  H   H304      1.0  0.53422  0.46216  0.61761  1.0000
  C   C173      1.0  0.52841  0.54422  0.93835  1.0000
  H   H305      1.0  0.38737  0.43361  0.70024  1.0000
  H   H306      1.0  0.51888  0.48268  0.75990  1.0000
  H   H307      1.0  0.17492  0.39232  0.52396  1.0000
  C   C174      1.0  0.40707  0.41142  0.74632  1.0000
  S   S43       1.0  0.43442  0.42471  0.90386  1.0000
  H   H308      1.0  0.30325  0.41464  0.49674  1.0000
  H   H309      1.0  0.15587  0.44728  0.79473  1.0000
  N   N10       1.0  0.07482  0.53599  0.82626  1.0000
  H   H310      1.0  0.17861  0.52078  0.66108  1.0000
  H   H311      1.0  0.30113  0.43517  0.67749  1.0000
  C   C175      1.0  0.22244  0.39153  0.49178  1.0000
  H   H312      1.0  0.24643  0.45295  0.77819  1.0000
  H   H313      1.0  0.10657  0.41815  0.49333  1.0000
  H   H314      1.0  0.45893  0.54680  0.61815  1.0000
  H   H315      1.0  0.32889  0.39614  0.46975  1.0000
  C   C176      1.0  0.40032  0.41532  0.70849  1.0000
  C   C177      1.0  0.42363  0.38772  0.75732  1.0000
  H   H316      1.0  0.13105  0.48681  0.68164  1.0000
  C   C178      1.0  0.29672  0.41621  0.70245  1.0000
  H   H317      1.0  0.07938  0.44421  0.88774  1.0000
  H   H318      1.0  0.10668  0.50592  0.84625  1.0000
  C   C179      1.0  0.12015  0.40445  0.83789  1.0000
  H   H319      1.0  0.14749  0.46911  0.83586  1.0000
  Fe  Fe22      1.0  0.42109  0.37459  0.59025  1.0000
  C   C180      1.0  0.40999  0.49159  0.60029  1.0000
  H   H320      1.0  0.15054  0.61301  0.55957  1.0000
  H   H321      1.0  0.13723  0.67908  0.48686  1.0000
  H   H322      1.0  0.23298  0.42231  0.48150  1.0000
  H   H323      1.0  0.24634  0.39051  0.94674  1.0000
  H   H324      1.0  0.23243  0.42575  0.87462  1.0000
  H   H325      1.0  0.15938  0.57216  0.83993  1.0000
  C   C181      1.0  0.14873  0.51673  0.66853  1.0000
  C   C182      1.0  0.15605  0.40313  0.85660  1.0000
  C   C183      1.0  0.07770  0.54895  0.58648  1.0000
  H   H326      1.0  0.17394  0.43177  0.87100  1.0000
  H   H327      1.0  0.14684  0.59292  0.51370  1.0000
  C   C184      1.0  0.52124  0.45846  0.64594  1.0000
  H   H328      1.0  0.40432  0.46449  0.58487  1.0000
  H   H329      1.0  0.26429  0.38819  0.90075  1.0000
  C   C185      1.0  0.52543  0.53213  0.79394  1.0000
  Fe  Fe23      1.0  0.37083  0.40230  0.92146  1.0000
  H   H330      1.0  0.39485  0.48258  0.62784  1.0000
  C   C186      1.0  0.10727  0.57894  0.82300  1.0000
  C   C187      1.0  0.07219  0.51651  0.78939  1.0000
  H   H331      1.0  0.51808  0.58005  0.64317  1.0000
  H   H332      1.0  0.26854  0.41036  0.71637  1.0000
  H   H333      1.0  0.17572  0.40350  0.83380  1.0000
  Fe  Fe24      1.0  0.40998  0.41121  0.84568  1.0000
  H   H334      1.0  0.07732  0.47770  0.57555  1.0000
  H   H335      1.0  0.53631  0.51824  0.84963  1.0000
  H   H336      1.0  0.10053  0.51624  0.78357  1.0000
  H   H337      1.0  0.14883  0.43180  0.92435  1.0000
  C   C188      1.0  0.06489  0.55906  0.94874  1.0000
  H   H338      1.0  0.10394  0.53866  0.87900  1.0000
  H   H339      1.0  0.54171  0.55413  0.77149  1.0000
  H   H340      1.0  0.49128  0.46151  0.47846  1.0000
  C   C189      1.0  0.54275  0.53519  0.60193  1.0000
  H   H341      1.0  0.48864  0.43757  0.64461  1.0000
  C   C190      1.0  0.53912  0.43894  0.67110  1.0000
  C   C191      1.0  0.26236  0.41330  0.80678  1.0000
  H   H342      1.0  0.46810  0.52615  0.57657  1.0000
  H   H343      1.0  0.16349  0.40478  0.95665  1.0000
  H   H344      1.0  0.32216  0.43263  0.72179  1.0000
  N   N11       1.0  0.51797  0.52389  0.63728  1.0000
  H   H345      1.0  0.47761  0.49268  0.75715  1.0000
  C   C192      1.0  0.08133  0.66598  0.70772  1.0000
  C   C193      1.0  0.23796  0.42221  0.78385  1.0000
  N   N12       1.0  0.05949  0.51182  0.61065  1.0000
  C   C194      1.0  0.12938  0.59298  0.53831  1.0000
  H   H346      1.0  0.52799  0.51136  0.58074  1.0000
  H   H347      1.0  0.10537  0.38012  0.81747  1.0000
  C   C195      1.0  0.51988  0.48743  0.47279  1.0000
  C   C196      1.0  0.47402  0.49900  0.62839  1.0000
  H   H348      1.0  0.12654  0.54063  0.56225  1.0000
  S   S44       1.0  0.47851  0.37259  0.59321  1.0000
  S   S45       1.0  0.08669  0.40655  0.62879  1.0000
  C   C197      1.0  0.40928  0.39491  0.68148  1.0000
  H   H349      1.0  0.21138  0.63605  0.81409  1.0000
  C   C198      1.0  0.45496  0.51927  0.60495  1.0000
  S   S46       1.0  0.09679  0.37910  0.73304  1.0000
  H   H350      1.0  0.39902  0.42642  0.76697  1.0000
  C   C199      1.0  0.52441  0.55941  0.65980  1.0000
  C   C200      1.0  0.20272  0.39162  0.76804  1.0000
  H   H351      1.0  0.52589  0.43373  0.69948  1.0000
  C   C201      1.0  0.06831  0.46076  0.90456  1.0000
  H   H352      1.0  0.45634  0.48735  0.65462  1.0000
  H   H353      1.0  0.08587  0.67143  0.76726  1.0000
  H   H354      1.0  0.23899  0.39295  0.51760  1.0000
  H   H355      1.0  0.39679  0.50706  0.58418  1.0000
  C   C202      1.0  0.09560  0.39798  0.51695  1.0000
  H   H356      1.0  0.50247  0.54963  0.68323  1.0000
  H   H357      1.0  0.06528  0.46030  0.73740  1.0000
  H   H358      1.0  0.15280  0.53993  0.68883  1.0000
  C   C203      1.0  0.52980  0.50966  0.94775  1.0000
  C   C204      1.0  0.18059  0.63109  0.81845  1.0000
  H   H359      1.0  0.17955  0.64370  0.84586  1.0000
  S   S47       1.0  0.07672  0.66127  0.63189  1.0000
  C   C205      1.0  0.10516  0.55070  0.55393  1.0000
  S   S48       1.0  0.39641  0.39736  0.63488  1.0000
  H   H360      1.0  0.14741  0.54962  0.62066  1.0000
  H   H361      1.0  0.15396  0.57522  0.79036  1.0000
  C   C206      1.0  0.25095  0.37343  0.81409  1.0000
  H   H362      1.0  0.12551  0.49655  0.61430  1.0000
  C   C207      1.0  0.42634  0.37159  0.69231  1.0000
  H   H363      1.0  0.50491  0.54095  0.80746  1.0000
  H   H364      1.0  0.09480  0.57572  0.60405  1.0000
  H   H365      1.0  0.10719  0.59533  0.84826  1.0000
  H   H366      1.0  0.34659  0.37446  0.52988  1.0000
  H   H367      1.0  0.09363  0.54248  0.65950  1.0000
  C   C208      1.0  0.15067  0.58654  0.81763  1.0000
  H   H368      1.0  0.10158  0.59403  0.79908  1.0000
  H   H369      1.0  0.06086  0.59296  0.47424  1.0000
  H   H370      1.0  0.17390  0.64715  0.79613  1.0000
  C   C209      1.0  0.29864  0.38839  0.48036  1.0000
  C   C210      1.0  0.08641  0.51650  0.85716  1.0000
  C   C211      1.0  0.08412  0.38713  0.58390  1.0000
  H   H371      1.0  0.46849  0.47243  0.61208  1.0000
  H   H372      1.0  0.31601  0.38902  0.55662  1.0000
  S   S49       1.0  0.34596  0.38230  0.86414  1.0000
  H   H373      1.0  0.53239  0.40971  0.65956  1.0000
  H   H374      1.0  0.08677  0.53127  0.53093  1.0000
  H   H375      1.0  0.11193  0.67235  0.70418  1.0000
  H   H376      1.0  0.09304  0.48249  0.92218  1.0000
  H   H377      1.0  0.28182  0.43543  0.92290  1.0000
  C   C212      1.0  0.05694  0.65912  0.67648  1.0000
  C   C213      1.0  0.06654  0.66536  0.74357  1.0000
  H   H378      1.0  0.21511  0.42923  0.91968  1.0000
  H   H379      1.0  0.50570  0.48101  0.93978  1.0000
  C   C214      1.0  0.13843  0.40368  0.94023  1.0000
  H   H380      1.0  0.54656  0.55626  0.52590  1.0000
  C   C215      1.0  0.29412  0.37704  0.69074  1.0000
  H   H381      1.0  0.09762  0.40154  0.85866  1.0000
  C   C216      1.0  0.22132  0.40989  0.90162  1.0000
  C   C217      1.0  0.25538  0.40553  0.91914  1.0000
  C   C218      1.0  0.05698  0.56436  0.46653  1.0000
  H   H382      1.0  0.16096  0.37411  0.47735  1.0000
  H   H383      1.0  0.05386  0.55350  0.57317  1.0000
  S   S50       1.0  0.55212  0.45698  0.52428  1.0000
  S   S51       1.0  0.05241  0.64204  0.52738  1.0000
  H   H384      1.0  0.18467  0.81327  0.25201  1.0000
  H   H385      1.0  0.19429  0.95282  0.19186  1.0000
  Fe  Fe25      1.0  0.09541  0.79703  0.23603  1.0000
  S   S52       1.0  0.14003  0.85585  0.26186  1.0000
  S   S53       1.0  0.10555  0.74476  0.23109  1.0000
  H   H386      1.0  0.17398  0.81019  0.34255  1.0000
  Fe  Fe26      1.0  0.34990  0.94148  0.35475  1.0000
  S   S54       1.0  0.34367  0.99634  0.35364  1.0000
  S   S55       1.0  0.30551  0.88321  0.32789  1.0000
  Fe  Fe27      1.0  0.43150  0.98437  0.39439  1.0000
  C   C219      1.0  0.16741  0.74214  0.31695  1.0000
  S   S56       1.0  0.48284  0.97610  0.41533  1.0000
  N   N13       1.0  0.17664  0.77025  0.38408  1.0000
  C   C220      1.0  0.29619  0.02123  0.27942  1.0000
  C   C221      1.0  0.30937  0.87308  0.20242  1.0000
  S   S57       1.0  0.36821  0.94748  0.41498  1.0000
  S   S58       1.0  0.41359  0.97271  0.33417  1.0000
  H   H387      1.0  0.23466  0.81791  0.40042  1.0000
  H   H388      1.0  0.25329  0.99174  0.21720  1.0000
  H   H389      1.0  0.54015  0.98511  0.09455  1.0000
  Fe  Fe28      1.0  0.07565  0.73608  0.17530  1.0000
  C   C222      1.0  0.53420  0.02187  0.29391  1.0000
  C   C223      1.0  0.28868  0.92594  0.20980  1.0000
  H   H390      1.0  0.20935  0.89772  0.20671  1.0000
  H   H391      1.0  0.17419  0.83034  0.42523  1.0000
  C   C224      1.0  0.15037  0.85603  0.38684  1.0000
  H   H392      1.0  0.34041  0.01835  0.10692  1.0000
  N   N14       1.0  0.26764  0.94788  0.19550  1.0000
  H   H393      1.0  0.12973  0.78315  0.36867  1.0000
  C   C225      1.0  0.28009  0.88704  0.18986  1.0000
  C   C226      1.0  0.28742  0.79133  0.38483  1.0000
  H   H394      1.0  0.14898  0.86091  0.35648  1.0000
  C   C227      1.0  0.16279  0.79886  0.37101  1.0000
  H   H395      1.0  0.33431  0.96474  0.00947  1.0000
  H   H396      1.0  0.32019  0.97998  0.07246  1.0000
  C   C228      1.0  0.29153  0.97717  0.16503  1.0000
  H   H397      1.0  0.22582  0.89916  0.16077  1.0000
  H   H398      1.0  0.18508  0.77960  0.44371  1.0000
  H   H399      1.0  0.16175  0.88688  0.13316  1.0000
  H   H400      1.0  0.24929  0.82460  0.27846  1.0000
  H   H401      1.0  0.31823  0.94900  0.13195  1.0000
  C   C229      1.0  0.08400  0.72397  0.08132  1.0000
  C   C230      1.0  0.18634  0.86341  0.27935  1.0000
  C   C231      1.0  0.20889  0.89603  0.30244  1.0000
  C   C232      1.0  0.24575  0.90282  0.31708  1.0000
  C   C233      1.0  0.26031  0.87690  0.30878  1.0000
  C   C234      1.0  0.23803  0.84458  0.28527  1.0000
  C   C235      1.0  0.20132  0.83799  0.27039  1.0000
  H   H402      1.0  0.19760  0.91599  0.30932  1.0000
  H   H403      1.0  0.26249  0.92767  0.33533  1.0000
  C   C236      1.0  0.29636  0.95976  0.12809  1.0000
  H   H404      1.0  0.27887  0.99708  0.15861  1.0000
  S   S59       1.0  0.34110  0.02585  0.45729  1.0000
  C   C237      1.0  0.15765  0.73440  0.35907  1.0000
  H   H405      1.0  0.26774  0.93517  0.11786  1.0000
  H   H406      1.0  0.23187  0.80465  0.35346  1.0000
  H   H407      1.0  0.15464  0.76008  0.30490  1.0000
  C   C238      1.0  0.15249  0.71554  0.43674  1.0000
  C   C239      1.0  0.26421  0.97139  0.22735  1.0000
  C   C240      1.0  0.31275  0.99172  0.09748  1.0000
  H   H408      1.0  0.24141  0.95104  0.24776  1.0000
  H   H409      1.0  0.47348  0.98818  0.23951  1.0000
  C   C241      1.0  0.17617  0.83665  0.39493  1.0000
  S   S60       1.0  0.40990  0.00917  0.12695  1.0000
  C   C242      1.0  0.30326  0.99746  0.24953  1.0000
  S   S61       1.0  0.07006  0.79123  0.17832  1.0000
  C   C243      1.0  0.34516  0.96126  0.98191  1.0000
  H   H410      1.0  0.28021  0.91662  0.23934  1.0000
  C   C244      1.0  0.24238  0.76720  0.39207  1.0000
  C   C245      1.0  0.09341  0.70748  0.05102  1.0000
  C   C246      1.0  0.19961  0.93651  0.16932  1.0000
  Fe  Fe29      1.0  0.40824  0.02787  0.33671  1.0000
  C   C247      1.0  0.05950  0.73066  0.00874  1.0000
  H   H411      1.0  0.14251  0.88296  0.17989  1.0000
  H   H412      1.0  0.14031  0.91727  0.14683  1.0000
  C   C248      1.0  0.08069  0.71024  0.01500  1.0000
  H   H413      1.0  0.20014  0.75767  0.31194  1.0000
  Fe  Fe30      1.0  0.36725  0.00525  0.41216  1.0000
  C   C249      1.0  0.22167  0.79171  0.38172  1.0000
  H   H414      1.0  0.55002  0.01728  0.05595  1.0000
  H   H415      1.0  0.30106  0.84397  0.18962  1.0000
  C   C250      1.0  0.40616  0.01530  0.23914  1.0000
  H   H416      1.0  0.32756  0.01891  0.23112  1.0000
  C   C251      1.0  0.49929  0.01764  0.23212  1.0000
  H   H417      1.0  0.28212  0.89043  0.15924  1.0000
  H   H418      1.0  0.39458  0.99443  0.26215  1.0000
  C   C252      1.0  0.15861  0.90382  0.15652  1.0000
  H   H419      1.0  0.32257  0.99750  0.17456  1.0000
  C   C253      1.0  0.22572  0.91853  0.18327  1.0000
  H   H420      1.0  0.32151  0.94615  0.21005  1.0000
  H   H421      1.0  0.24940  0.86302  0.19698  1.0000
  H   H422      1.0  0.30198  0.77369  0.39331  1.0000
  H   H423      1.0  0.21399  0.95702  0.14537  1.0000
  H   H424      1.0  0.30866  0.86948  0.23320  1.0000
  H   H425      1.0  0.06579  0.76357  0.39314  1.0000
  C   C254      1.0  0.52106  0.01128  0.44411  1.0000
  H   H426      1.0  0.31410  0.97892  0.26393  1.0000
  H   H427      1.0  0.38887  0.96968  0.19773  1.0000
  C   C255      1.0  0.40238  0.00125  0.20262  1.0000
  H   H428      1.0  0.34029  0.89487  0.19354  1.0000
  H   H429      1.0  0.16596  0.71174  0.36766  1.0000
  H   H430      1.0  0.23819  0.75942  0.42215  1.0000
  H   H431      1.0  0.50136  0.00781  0.13122  1.0000
  H   H432      1.0  0.23069  0.73971  0.37547  1.0000
  H   H433      1.0  0.50810  0.99757  0.30898  1.0000
  H   H434      1.0  0.17647  0.70865  0.42952  1.0000
  H   H435      1.0  0.35510  0.93870  0.98458  1.0000
  C   C256      1.0  0.52871  0.03242  0.96536  1.0000
  H   H436      1.0  0.52195  0.01340  0.21667  1.0000
  H   H437      1.0  0.29024  0.00072  0.08965  1.0000
  C   C257      1.0  0.06210  0.74378  0.07534  1.0000
  H   H438      1.0  0.11949  0.83683  0.39744  1.0000
  H   H439      1.0  0.27394  0.00082  0.30015  1.0000
  H   H440      1.0  0.20777  0.85872  0.38828  1.0000
  H   H441      1.0  0.12447  0.71952  0.36194  1.0000
  H   H442      1.0  0.13463  0.75948  0.42923  1.0000
  H   H443      1.0  0.29348  0.79891  0.35473  1.0000
  H   H444      1.0  0.16326  0.88522  0.40092  1.0000
  H   H445      1.0  0.37109  0.99029  0.97377  1.0000
  H   H446      1.0  0.49979  0.02545  0.97643  1.0000
  S   S62       1.0  0.10025  0.71916  0.12607  1.0000
  C   C258      1.0  0.16262  0.75812  0.42395  1.0000
  H   H447      1.0  0.30099  0.81935  0.40097  1.0000
  H   H448      1.0  0.15709  0.70941  0.26558  1.0000
  C   C259      1.0  0.41641  0.02787  0.17239  1.0000
  H   H449      1.0  0.55204  0.91335  0.01513  1.0000
  H   H450      1.0  0.05923  0.74004  0.32837  1.0000
  H   H451      1.0  0.54617  0.00639  0.27670  1.0000
  H   H452      1.0  0.54579  0.00541  0.36543  1.0000
  H   H453      1.0  0.05477  0.75671  0.09852  1.0000
  C   C260      1.0  0.51776  0.03666  0.11605  1.0000
  H   H454      1.0  0.48861  0.03358  0.21343  1.0000
  C   C261      1.0  0.05376  0.73222  0.38785  1.0000
  H   H455      1.0  0.50192  0.03483  0.08956  1.0000
  H   H456      1.0  0.28688  0.91956  0.96297  1.0000
  Fe  Fe31      1.0  0.13658  0.73342  0.86219  1.0000
  S   S63       1.0  0.08075  0.73853  0.85985  1.0000
  S   S64       1.0  0.19638  0.77656  0.83544  1.0000
  Fe  Fe32      1.0  0.29094  0.98022  0.72561  1.0000
  S   S65       1.0  0.34404  0.97078  0.72266  1.0000
  S   S66       1.0  0.22931  0.93341  0.74631  1.0000
  H   H457      1.0  0.17352  0.70678  0.63999  1.0000
  H   H458      1.0  0.45408  0.94360  0.81724  1.0000
  H   H459      1.0  0.13463  0.81703  0.62071  1.0000
  C   C262      1.0  0.33610  0.02377  0.53369  1.0000
  C   C263      1.0  0.35787  0.91124  0.80793  1.0000
  H   H460      1.0  0.51405  0.99040  0.78057  1.0000
  H   H461      1.0  0.37280  0.89279  0.80845  1.0000
  H   H462      1.0  0.44026  0.96109  0.65156  1.0000
  H   H463      1.0  0.23129  0.99434  0.81908  1.0000
  C   C264      1.0  0.16048  0.77090  0.65116  1.0000
  S   S67       1.0  0.41846  0.03447  0.79786  1.0000
  H   H464      1.0  0.06347  0.74405  0.75791  1.0000
  H   H465      1.0  0.52618  0.99824  0.54318  1.0000
  C   C265      1.0  0.38769  0.99260  0.54295  1.0000
  H   H466      1.0  0.54512  0.97887  0.61421  1.0000
  C   C266      1.0  0.22502  0.88925  0.90745  1.0000
  H   H467      1.0  0.20479  0.83363  0.70254  1.0000
  C   C267      1.0  0.35278  0.01604  0.50230  1.0000
  H   H468      1.0  0.26736  0.96590  0.90317  1.0000
  C   C268      1.0  0.12139  0.80548  0.64866  1.0000
  C   C269      1.0  0.45652  0.98411  0.70652  1.0000
  H   H469      1.0  0.10784  0.74612  0.70419  1.0000
  C   C270      1.0  0.22104  0.89019  0.77122  1.0000
  C   C271      1.0  0.18627  0.86972  0.79295  1.0000
  C   C272      1.0  0.17805  0.83462  0.81236  1.0000
  C   C273      1.0  0.20456  0.81957  0.81015  1.0000
  C   C274      1.0  0.23951  0.84020  0.78860  1.0000
  C   C275      1.0  0.24770  0.87532  0.76917  1.0000
  H   H470      1.0  0.16558  0.88115  0.79484  1.0000
  H   H471      1.0  0.15142  0.81949  0.82938  1.0000
  H   H472      1.0  0.26038  0.82897  0.78702  1.0000
  H   H473      1.0  0.27444  0.89071  0.75236  1.0000
  H   H474      1.0  0.35465  0.97198  0.90827  1.0000
  C   C276      1.0  0.28593  0.96684  0.87921  1.0000
  C   C277      1.0  0.48894  0.02302  0.64716  1.0000
  C   C278      1.0  0.19634  0.84591  0.91811  1.0000
  C   C279      1.0  0.26219  0.89351  0.88614  1.0000
  C   C280      1.0  0.48417  0.94774  0.82407  1.0000
  C   C281      1.0  0.26352  0.96657  0.84312  1.0000
  H   H475      1.0  0.13318  0.82757  0.73987  1.0000
  H   H476      1.0  0.38033  0.94218  0.79993  1.0000
  H   H477      1.0  0.30013  0.92815  0.82253  1.0000
  H   H478      1.0  0.48568  0.00690  0.52944  1.0000
  C   C282      1.0  0.53205  0.00620  0.94045  1.0000
  C   C283      1.0  0.48231  0.98777  0.58784  1.0000
  H   H479      1.0  0.40698  0.97977  0.54600  1.0000
  Fe  Fe33      1.0  0.37716  0.03008  0.75059  1.0000
  C   C284      1.0  0.37124  0.00040  0.57446  1.0000
  H   H480      1.0  0.26866  0.91387  0.63400  1.0000
  H   H481      1.0  0.47906  0.94693  0.50041  1.0000
  H   H482      1.0  0.25082  0.88054  0.85831  1.0000
  H   H483      1.0  0.17134  0.78289  0.62266  1.0000
  C   C285      1.0  0.46827  0.98142  0.66646  1.0000
  S   S68       1.0  0.38295  0.98936  0.61910  1.0000
  H   H484      1.0  0.28442  0.97688  0.81903  1.0000
  H   H485      1.0  0.23892  0.93630  0.83717  1.0000
  C   C286      1.0  0.08989  0.77261  0.76584  1.0000
  H   H486      1.0  0.17391  0.73051  0.49380  1.0000
  C   C287      1.0  0.37894  0.00085  0.50709  1.0000
  H   H487      1.0  0.18634  0.82699  0.89302  1.0000
  H   H488      1.0  0.48348  0.00271  0.72332  1.0000
  H   H489      1.0  0.15308  0.77676  0.72755  1.0000
  C   C288      1.0  0.49376  0.98770  0.54646  1.0000
  C   C289      1.0  0.34039  0.91037  0.84636  1.0000
  H   H490      1.0  0.46528  0.03194  0.64659  1.0000
  H   H491      1.0  0.43822  0.93428  0.53214  1.0000
  H   H492      1.0  0.21432  0.75073  0.61873  1.0000
  H   H493      1.0  0.20828  0.89972  0.88957  1.0000
  Fe  Fe34      1.0  0.35885  0.00613  0.66911  1.0000
  H   H494      1.0  0.45007  0.97915  0.58853  1.0000
  H   H495      1.0  0.21103  0.83440  0.93749  1.0000
  H   H496      1.0  0.06470  0.75263  0.66733  1.0000
  H   H497      1.0  0.11716  0.82961  0.66084  1.0000
  H   H498      1.0  0.48382  0.96287  0.60197  1.0000
  H   H499      1.0  0.48625  0.94411  0.85461  1.0000
  C   C290      1.0  0.07962  0.76881  0.64138  1.0000
  H   H500      1.0  0.22740  0.84169  0.63564  1.0000
  H   H501      1.0  0.22294  0.72887  0.65992  1.0000
  H   H502      1.0  0.48796  0.92435  0.80988  1.0000
  N   N15       1.0  0.29772  0.93487  0.88220  1.0000
  H   H503      1.0  0.31300  0.99661  0.88071  1.0000
  C   C291      1.0  0.32628  0.94405  0.91438  1.0000
  H   H504      1.0  0.12175  0.71634  0.48742  1.0000
  C   C292      1.0  0.31167  0.94851  0.95321  1.0000
  C   C293      1.0  0.51686  0.98880  0.81113  1.0000
  Fe  Fe35      1.0  0.06896  0.71288  0.91805  1.0000
  H   H505      1.0  0.16950  0.84360  0.93215  1.0000
  S   S69       1.0  0.30277  0.01085  0.66948  1.0000
  C   C294      1.0  0.32036  0.93690  0.84704  1.0000
  H   H506      1.0  0.11073  0.76602  0.78201  1.0000
  C   C295      1.0  0.24821  0.89965  0.65805  1.0000
  H   H507      1.0  0.39230  0.99516  0.48315  1.0000
  C   C296      1.0  0.19145  0.76171  0.67023  1.0000
  H   H508      1.0  0.08245  0.74755  0.62272  1.0000
  S   S70       1.0  0.12764  0.71316  0.92221  1.0000
  H   H509      1.0  0.48764  0.96760  0.66697  1.0000
  C   C297      1.0  0.11053  0.79740  0.73113  1.0000
  H   H510      1.0  0.17949  0.74543  0.69693  1.0000
  C   C298      1.0  0.24608  0.99457  0.84581  1.0000
  H   H511      1.0  0.23296  0.90681  0.93323  1.0000
  H   H512      1.0  0.17719  0.85812  0.69285  1.0000
  H   H513      1.0  0.26571  0.89657  0.68129  1.0000
  H   H514      1.0  0.13337  0.74166  0.64666  1.0000
  H   H515      1.0  0.21988  0.78927  0.67598  1.0000
  H   H516      1.0  0.08757  0.80019  0.71471  1.0000
  C   C299      1.0  0.18617  0.83722  0.68061  1.0000
  C   C300      1.0  0.34569  0.01644  0.56972  1.0000
  H   H517      1.0  0.34419  0.96808  0.84134  1.0000
  C   C301      1.0  0.21387  0.85908  0.64690  1.0000
  H   H518      1.0  0.33391  0.89908  0.78663  1.0000
  H   H519      1.0  0.23639  0.91949  0.66672  1.0000
  H   H520      1.0  0.27022  0.02546  0.85105  1.0000
  C   C302      1.0  0.13049  0.77777  0.70865  1.0000
  H   H521      1.0  0.27154  0.87308  0.89933  1.0000
  H   H522      1.0  0.36568  0.92141  0.86631  1.0000
  C   C303      1.0  0.20107  0.73542  0.64559  1.0000
  H   H523      1.0  0.33451  0.92029  0.91792  1.0000
  C   C304      1.0  0.51304  0.02203  0.83128  1.0000
  H   H524      1.0  0.31845  0.87903  0.85348  1.0000
  H   H525      1.0  0.19722  0.86424  0.62424  1.0000
  N   N16       1.0  0.14964  0.79786  0.67227  1.0000
  N   N17       1.0  0.50616  0.02626  0.60847  1.0000
  H   H526      1.0  0.44051  0.95391  0.71929  1.0000
  H   H527      1.0  0.43629  0.99715  0.70717  1.0000
  C   C305      1.0  0.47102  0.94593  0.53024  1.0000
  H   H528      1.0  0.06372  0.79541  0.59503  1.0000
  H   H529      1.0  0.47896  0.92540  0.54517  1.0000
  H   H530      1.0  0.07972  0.78913  0.78391  1.0000
  H   H531      1.0  0.33287  0.02268  0.59371  1.0000
  H   H532      1.0  0.22349  0.98478  0.86847  1.0000
  C   C306      1.0  0.14599  0.71020  0.47881  1.0000
  H   H533      1.0  0.48139  0.01532  0.82867  1.0000
  H   H534      1.0  0.51791  0.01794  0.86114  1.0000
  H   H535      1.0  0.30209  0.97137  0.95312  1.0000
  H   H536      1.0  0.50554  0.97917  0.93240  1.0000
  H   H537      1.0  0.54600  0.99069  0.81794  1.0000
  H   H538      1.0  0.44429  0.02678  0.87123  1.0000
  H   H539      1.0  0.31542  0.03502  0.53016  1.0000
  Fe  Fe36      1.0  0.93782  0.31498  0.07186  1.0000
  S   S71       1.0  0.99366  0.31021  0.06998  1.0000
  S   S72       1.0  0.87912  0.26514  0.09471  1.0000
  H   H540      1.0  0.84309  0.20093  0.39069  1.0000
  Fe  Fe37      1.0  0.99942  0.33280  0.01122  1.0000
  H   H541      1.0  0.85958  0.22217  0.01072  1.0000
  S   S73       1.0  0.94144  0.33356  0.01176  1.0000
  Fe  Fe38      1.0  0.80715  0.05898  0.19347  1.0000
  S   S74       1.0  0.74796  0.05723  0.18821  1.0000
  S   S75       1.0  0.86623  0.11084  0.17422  1.0000
  H   H542      1.0  0.97372  0.29015  0.19097  1.0000
  H   H543      1.0  0.79769  0.14430  0.28459  1.0000
  H   H544      1.0  0.84588  0.12535  0.29332  1.0000
  S   S76       1.0  0.77842  0.07600  0.45338  1.0000
  H   H545      1.0  0.69304  0.12078  0.02348  1.0000
  H   H546      1.0  0.89349  0.21068  0.38281  1.0000
  C   C307      1.0  0.92959  0.24552  0.22797  1.0000
  C   C308      1.0  0.97153  0.30404  0.41535  1.0000
  H   H547      1.0  0.89386  0.23855  0.29787  1.0000
  C   C309      1.0  0.81418  0.16101  0.02167  1.0000
  C   C310      1.0  0.65644  0.10212  0.25263  1.0000
  H   H548      1.0  0.86590  0.08053  0.32312  1.0000
  C   C311      1.0  0.77402  0.15561  0.23460  1.0000
  C   C312      1.0  0.87614  0.22252  0.11693  1.0000
  C   C313      1.0  0.83851  0.19106  0.12745  1.0000
  C   C314      1.0  0.83488  0.15619  0.14399  1.0000
  C   C315      1.0  0.86901  0.15284  0.15103  1.0000
  C   C316      1.0  0.90664  0.18441  0.14091  1.0000
  C   C317      1.0  0.91024  0.21912  0.12399  1.0000
  H   H549      1.0  0.81200  0.19365  0.12277  1.0000
  H   H550      1.0  0.80575  0.13217  0.15167  1.0000
  H   H551      1.0  0.93321  0.18211  0.14634  1.0000
  H   H552      1.0  0.93941  0.24320  0.11653  1.0000
  C   C318      1.0  0.70677  0.06456  0.36532  1.0000
  H   H553      1.0  0.94664  0.21098  0.26342  1.0000
  H   H554      1.0  0.66626  0.09230  0.22773  1.0000
  C   C319      1.0  0.84829  0.18360  0.24700  1.0000
  C   C320      1.0  0.87426  0.14292  0.27782  1.0000
  C   C321      1.0  0.94803  0.27122  0.44408  1.0000
  H   H555      1.0  0.80611  0.20269  0.05638  1.0000
  C   C322      1.0  0.92003  0.20511  0.24641  1.0000
  H   H556      1.0  0.91176  0.15373  0.32768  1.0000
  H   H557      1.0  0.79390  0.13375  0.00607  1.0000
  C   C323      1.0  0.91056  0.17961  0.03128  1.0000
  C   C324      1.0  0.88902  0.20832  0.30468  1.0000
  H   H558      1.0  0.77345  0.18198  0.24602  1.0000
  C   C325      1.0  0.67131  0.06116  0.04667  1.0000
  H   H559      1.0  0.57528  0.04938  0.13574  1.0000
  C   C326      1.0  0.72867  0.06190  0.33527  1.0000
  H   H560      1.0  0.76856  0.15127  0.06251  1.0000
  H   H561      1.0  0.62869  0.09062  0.32286  1.0000
  H   H562      1.0  0.96813  0.22603  0.05156  1.0000
  N   N18       1.0  0.87335  0.18638  0.97350  1.0000
  H   H563      1.0  0.69080  0.07152  0.07166  1.0000
  C   C327      1.0  0.78153  0.07088  0.37808  1.0000
  C   C328      1.0  0.91213  0.20176  0.99464  1.0000
  H   H564      1.0  0.62651  0.10343  0.96876  1.0000
  H   H565      1.0  0.00411  0.31485  0.41811  1.0000
  H   H566      1.0  0.74409  0.12915  0.23865  1.0000
  C   C329      1.0  0.60324  0.08025  0.30295  1.0000
  H   H567      1.0  0.61376  0.05551  0.03012  1.0000
  C   C330      1.0  0.85497  0.19074  0.33398  1.0000
  H   H568      1.0  0.78038  0.16007  0.20425  1.0000
  S   S77       1.0  0.75495  0.03834  0.96463  1.0000
  C   C331      1.0  0.84363  0.19405  0.99461  1.0000
  H   H569      1.0  0.81055  0.07342  0.38288  1.0000
  H   H570      1.0  0.96589  0.32946  0.41888  1.0000
  H   H571      1.0  0.80277  0.12073  0.24394  1.0000
  H   H572      1.0  0.93090  0.26712  0.24880  1.0000
  H   H573      1.0  0.60318  0.11886  0.36479  1.0000
  H   H574      1.0  0.97049  0.18674  0.02659  1.0000
  H   H575      1.0  0.91882  0.18525  0.22346  1.0000
  H   H576      1.0  0.57492  0.07994  0.39808  1.0000
  H   H577      1.0  0.89638  0.14703  0.02766  1.0000
  H   H578      1.0  0.84583  0.12400  0.99021  1.0000
  H   H579      1.0  0.82993  0.15293  0.04294  1.0000
  H   H580      1.0  0.87795  0.24549  0.36587  1.0000
  C   C332      1.0  0.76627  0.06556  0.34182  1.0000
  H   H581      1.0  0.84515  0.15916  0.34064  1.0000
  H   H582      1.0  0.95059  0.17800  0.07326  1.0000
  H   H583      1.0  0.90671  0.24148  0.20687  1.0000
  H   H584      1.0  0.82904  0.19339  0.32371  1.0000
  H   H585      1.0  0.76801  0.17851  0.02151  1.0000
  C   C333      1.0  0.78764  0.17427  0.04170  1.0000
  H   H586      1.0  0.60104  0.10732  0.29578  1.0000
  H   H587      1.0  0.67785  0.06221  0.36053  1.0000
  C   C334      1.0  0.69125  0.09214  0.01577  1.0000
  C   C335      1.0  0.95259  0.19355  0.04647  1.0000
  H   H588      1.0  0.96234  0.29228  0.38679  1.0000
  H   H589      1.0  0.63271  0.04980  0.12851  1.0000
  C   C336      1.0  0.72189  0.06953  0.40181  1.0000
  H   H590      1.0  0.59618  0.04388  0.36990  1.0000
  H   H591      1.0  0.89392  0.18615  0.05265  1.0000
  H   H592      1.0  0.65379  0.12870  0.24489  1.0000
  H   H593      1.0  0.92371  0.23340  0.00244  1.0000
  H   H594      1.0  0.99484  0.27492  0.22842  1.0000
  H   H595      1.0  0.78367  0.06424  0.31909  1.0000
  C   C337      1.0  0.80540  0.14882  0.25465  1.0000
  H   H596      1.0  0.63382  0.08183  0.07132  1.0000
  H   H597      1.0  0.97192  0.24287  0.18890  1.0000
  H   H598      1.0  0.78330  0.06508  0.03889  1.0000
  C   C338      1.0  0.86836  0.21351  0.37051  1.0000
  H   H599      1.0  0.89080  0.07988  0.28059  1.0000
  H   H600      1.0  0.86990  0.12675  0.25123  1.0000
  C   C339      1.0  0.97000  0.26435  0.20795  1.0000
  N   N19       1.0  0.88221  0.18466  0.26962  1.0000
  H   H601      1.0  0.95457  0.24673  0.43867  1.0000
  H   H602      1.0  0.67968  0.11044  0.27448  1.0000
  H   H603      1.0  0.91790  0.09337  0.32392  1.0000
  C   C340      1.0  0.89451  0.09552  0.30736  1.0000
  C   C341      1.0  0.56283  0.06748  0.97589  1.0000
  H   H604      1.0  0.91581  0.26049  0.43907  1.0000
  H   H605      1.0  0.72185  0.09694  0.01085  1.0000
  C   C342      1.0  0.61628  0.06844  0.26646  1.0000
  H   H606      1.0  0.67433  0.08132  0.98942  1.0000
  H   H607      1.0  0.84799  0.21223  0.24953  1.0000
  C   C343      1.0  0.75921  0.07234  0.40821  1.0000
  S   S78       1.0  0.56080  0.10066  0.00831  1.0000
  H   H608      1.0  0.57210  0.13972  0.41383  1.0000
  H   H609      1.0  0.85310  0.18087  0.21691  1.0000
  C   C344      1.0  0.57254  0.09756  0.37460  1.0000
  H   H610      1.0  0.93565  0.15265  0.28474  1.0000
  H   H611      1.0  0.91729  0.21370  0.31841  1.0000
  N   N20       1.0  0.56505  0.04917  0.32139  1.0000
  C   C345      1.0  0.90691  0.13919  0.30022  1.0000
  S   S79       1.0  0.70818  0.05310  0.29005  1.0000
  H   H612      1.0  0.70457  0.07082  0.42496  1.0000
  H   H613      1.0  0.82382  0.19873  0.97478  1.0000
  C   C346      1.0  0.55393  0.12156  0.39009  1.0000
  C   C347      1.0  0.85519  0.14271  0.96458  1.0000
  H   H614      1.0  0.61922  0.04151  0.27020  1.0000
  C   C348      1.0  0.56099  0.04694  0.10834  1.0000
  S   S80       1.0  0.79840  0.03907  0.25348  1.0000
  H   H615      1.0  0.97930  0.35588  0.23201  1.0000
  S   S81       1.0  0.01262  0.30142  0.96515  1.0000
  H   H616      1.0  0.57631  0.07647  0.09420  1.0000
  C   C349      1.0  0.62905  0.05482  0.05620  1.0000
  H   H617      1.0  0.59436  0.06247  0.24387  1.0000
  H   H618      1.0  0.99802  0.36555  0.16514  1.0000
  H   H619      1.0  0.55298  0.14179  0.36836  1.0000
  C   C350      1.0  0.01044  0.36915  0.22405  1.0000
  H   H620      1.0  0.93589  0.20226  0.97651  1.0000
  H   H621      1.0  0.90120  0.21864  0.81852  1.0000
  H   H622      1.0  0.79222  0.16147  0.88090  1.0000
  H   H623      1.0  0.98952  0.32681  0.61121  1.0000
  H   H624      1.0  0.63868  0.04597  0.82503  1.0000
  H   H625      1.0  0.81798  0.11044  0.83588  1.0000
  Fe  Fe39      1.0  0.01189  0.27678  0.69869  1.0000
  S   S82       1.0  0.96252  0.21680  0.67898  1.0000
  S   S83       1.0  0.00595  0.33179  0.69828  1.0000
  Fe  Fe40      1.0  0.76276  0.14095  0.56623  1.0000
  S   S84       1.0  0.77277  0.08898  0.55853  1.0000
  S   S85       1.0  0.80905  0.19866  0.59282  1.0000
  Fe  Fe41      1.0  0.67841  0.09694  0.53075  1.0000
  H   H626      1.0  0.87629  0.22038  0.53539  1.0000
  S   S86       1.0  0.62219  0.10115  0.51850  1.0000
  H   H627      1.0  0.78439  0.11243  0.89240  1.0000
  H   H628      1.0  0.86075  0.14385  0.70680  1.0000
  Fe  Fe42      1.0  0.74577  0.08437  0.50183  1.0000
  S   S87       1.0  0.70075  0.10447  0.58977  1.0000
  S   S88       1.0  0.73986  0.13913  0.50793  1.0000
  N   N21       1.0  0.85840  0.17356  0.78184  1.0000
  H   H629      1.0  0.89048  0.14526  0.91492  1.0000
  C   C351      1.0  0.74297  0.07391  0.70910  1.0000
  H   H630      1.0  0.74820  0.07960  0.64920  1.0000
  H   H631      1.0  0.76671  0.10393  0.71369  1.0000
  H   H632      1.0  0.90979  0.13782  0.95835  1.0000
  H   H633      1.0  0.96978  0.18239  0.84936  1.0000
  C   C352      1.0  0.60352  0.04971  0.93664  1.0000
  S   S89       1.0  0.73804  0.06615  0.78525  1.0000
  C   C353      1.0  0.92006  0.21214  0.65493  1.0000
  C   C354      1.0  0.91197  0.24369  0.65243  1.0000
  C   C355      1.0  0.87739  0.23879  0.63402  1.0000
  C   C356      1.0  0.85083  0.20247  0.61746  1.0000
  C   C357      1.0  0.85881  0.17080  0.62006  1.0000
  C   C358      1.0  0.89329  0.17566  0.63868  1.0000
  H   H634      1.0  0.93226  0.27185  0.66479  1.0000
  H   H635      1.0  0.87138  0.26339  0.63224  1.0000
  H   H636      1.0  0.83857  0.14261  0.60761  1.0000
  H   H637      1.0  0.89925  0.15102  0.64048  1.0000
  H   H638      1.0  0.63246  0.05674  0.92569  1.0000
  C   C359      1.0  0.00909  0.31732  0.91995  1.0000
  H   H639      1.0  0.89791  0.14953  0.83521  1.0000
  H   H640      1.0  0.92769  0.26034  0.57440  1.0000
  H   H641      1.0  0.89676  0.17743  0.54640  1.0000
  C   C360      1.0  0.95676  0.20014  0.83725  1.0000
  C   C361      1.0  0.00913  0.34527  0.84716  1.0000
  H   H642      1.0  0.95011  0.21505  0.86027  1.0000
  C   C362      1.0  0.83284  0.25013  0.49656  1.0000
  H   H643      1.0  0.94160  0.20708  0.57271  1.0000
  C   C363      1.0  0.84959  0.13378  0.76656  1.0000
  C   C364      1.0  0.87641  0.27034  0.50937  1.0000
  H   H644      1.0  0.85025  0.15469  0.86206  1.0000
  H   H645      1.0  0.83280  0.19570  0.82279  1.0000
  H   H646      1.0  0.99244  0.33977  0.54154  1.0000
  N   N22       1.0  0.93687  0.25770  0.51533  1.0000
  H   H647      1.0  0.97930  0.22309  0.81832  1.0000
  C   C365      1.0  0.01494  0.29861  0.88928  1.0000
  H   H648      1.0  0.97784  0.27537  0.56223  1.0000
  C   C366      1.0  0.95978  0.28686  0.48436  1.0000
  H   H649      1.0  0.90647  0.20686  0.92152  1.0000
  H   H650      1.0  0.88515  0.09681  0.69631  1.0000
  C   C367      1.0  0.91867  0.17291  0.81579  1.0000
  H   H651      1.0  0.93042  0.13957  0.56420  1.0000
  H   H652      1.0  0.87312  0.25859  0.88499  1.0000
  S   S90       1.0  0.69054  0.04348  0.88465  1.0000
  H   H653      1.0  0.02022  0.27377  0.89363  1.0000
  H   H654      1.0  0.82550  0.17934  0.73503  1.0000
  C   C368      1.0  0.88211  0.13041  0.94257  1.0000
  H   H655      1.0  0.79707  0.15403  0.79710  1.0000
  H   H656      1.0  0.97929  0.23605  0.51171  1.0000
  H   H657      1.0  0.87749  0.28244  0.53753  1.0000
  H   H658      1.0  0.60258  0.10738  0.83105  1.0000
  C   C369      1.0  0.82706  0.16697  0.81069  1.0000
  C   C370      1.0  0.85415  0.19753  0.75025  1.0000
  C   C371      1.0  0.85538  0.23691  0.76144  1.0000
  C   C372      1.0  0.86076  0.26331  0.72752  1.0000
  H   H659      1.0  0.87833  0.20558  0.72923  1.0000
  H   H660      1.0  0.92191  0.21568  0.77561  1.0000
  C   C373      1.0  0.94623  0.22396  0.51303  1.0000
  H   H661      1.0  0.88029  0.25422  0.78098  1.0000
  H   H662      1.0  0.82673  0.23033  0.77498  1.0000
  C   C374      1.0  0.90017  0.19696  0.79769  1.0000
  H   H663      1.0  0.85772  0.28932  0.73599  1.0000
  H   H664      1.0  0.89104  0.27456  0.71542  1.0000
  H   H665      1.0  0.83781  0.24658  0.70605  1.0000
  H   H666      1.0  0.97546  0.17490  0.54043  1.0000
  H   H667      1.0  0.02046  0.29859  0.82972  1.0000
  Fe  Fe43      1.0  0.70942  0.05229  0.57811  1.0000
  H   H668      1.0  0.88213  0.08522  0.74535  1.0000
  C   C375      1.0  0.94234  0.16116  0.54060  1.0000
  H   H669      1.0  0.83314  0.07699  0.91842  1.0000
  H   H670      1.0  0.83011  0.23877  0.46780  1.0000
  C   C376      1.0  0.58384  0.06646  0.48942  1.0000
  C   C377      1.0  0.78773  0.13307  0.86914  1.0000
  H   H671      1.0  0.95700  0.31407  0.48584  1.0000
  H   H672      1.0  0.87503  0.26001  0.95447  1.0000
  C   C378      1.0  0.95089  0.27705  0.55293  1.0000
  H   H673      1.0  0.81370  0.22498  0.51546  1.0000
  H   H674      1.0  0.93956  0.32054  0.61128  1.0000
  C   C379      1.0  0.87310  0.13537  0.73102  1.0000
  H   H675      1.0  0.92689  0.15804  0.79394  1.0000
  H   H676      1.0  0.90530  0.15746  0.73360  1.0000
  C   C380      1.0  0.86899  0.09480  0.72256  1.0000
  C   C381      1.0  0.82312  0.14007  0.84454  1.0000
  H   H677      1.0  0.82168  0.27181  0.49689  1.0000
  C   C382      1.0  0.92991  0.19292  0.54541  1.0000
  C   C383      1.0  0.96882  0.33482  0.59664  1.0000
  C   C384      1.0  0.73227  0.06026  0.67247  1.0000
  H   H678      1.0  0.56415  0.09102  0.89246  1.0000
  H   H679      1.0  0.93011  0.14476  0.51427  1.0000
  H   H680      1.0  0.81734  0.11600  0.75942  1.0000
  H   H681      1.0  0.99688  0.36348  0.93769  1.0000
  H   H682      1.0  0.85450  0.11549  0.78771  1.0000
  C   C385      1.0  0.96337  0.32173  0.55602  1.0000
  H   H683      1.0  0.75955  0.11932  0.85281  1.0000
  H   H684      1.0  0.91245  0.30485  0.90272  1.0000
  H   H685      1.0  0.82697  0.13276  0.94857  1.0000
  C   C386      1.0  0.89665  0.25408  0.93921  1.0000
  H   H686      1.0  0.93389  0.20682  0.48706  1.0000
  H   H687      1.0  0.58300  0.12927  0.77140  1.0000
  C   C387      1.0  0.00156  0.36284  0.87779  1.0000
  C   C388      1.0  0.58398  0.07517  0.82463  1.0000
  H   H688      1.0  0.61277  0.08997  0.76945  1.0000
  H   H689      1.0  0.56664  0.06606  0.62659  1.0000
  H   H690      1.0  0.66028  0.06603  0.78015  1.0000
  C   C389      1.0  0.60009  0.07614  0.96108  1.0000
  C   C390      1.0  0.01512  0.31267  0.85301  1.0000
  H   H691      1.0  0.85545  0.19539  0.91871  1.0000
  C   C391      1.0  0.64480  0.06999  0.80447  1.0000
  Fe  Fe44      1.0  0.03413  0.34275  0.75498  1.0000
  H   H692      1.0  0.66488  0.09931  0.81710  1.0000
  C   C392      1.0  0.00188  0.34916  0.91415  1.0000
  C   C393      1.0  0.90194  0.27252  0.90030  1.0000
  C   C394      1.0  0.86028  0.08564  0.93562  1.0000
  H   H693      1.0  0.92460  0.26887  0.88419  1.0000
  H   H694      1.0  0.58659  0.05946  0.84988  1.0000
  C   C395      1.0  0.72321  0.04878  0.73951  1.0000
  C   C396      1.0  0.89220  0.24034  0.51137  1.0000
  H   H695      1.0  0.98154  0.36754  0.59809  1.0000
  H   H696      1.0  0.83697  0.07224  0.71905  1.0000
  H   H697      1.0  0.94131  0.32885  0.54330  1.0000
  H   H698      1.0  0.92590  0.26983  0.95351  1.0000
  H   H699      1.0  0.89372  0.29517  0.48967  1.0000
  H   H700      1.0  0.99236  0.29762  0.48771  1.0000
  H   H701      1.0  0.88111  0.22061  0.48672  1.0000
  C   C397      1.0  0.88240  0.20889  0.93687  1.0000
  H   H702      1.0  0.62265  0.05179  0.63994  1.0000
  H   H703      1.0  0.88027  0.07729  0.92053  1.0000
  S   S91       1.0  0.03557  0.28541  0.75723  1.0000
  S   S92       1.0  0.01215  0.36548  0.80223  1.0000
  H   H704      1.0  0.56385  0.04631  0.58203  1.0000
  C   C398      1.0  0.60559  0.06742  0.79185  1.0000
  H   H705      1.0  0.56490  0.09935  0.70788  1.0000
  H   H706      1.0  0.56146  0.14421  0.71083  1.0000
  S   S93       1.0  0.68294  0.04193  0.52066  1.0000
  H   H707      1.0  0.85120  0.06875  0.96238  1.0000
  H   H708      1.0  0.55583  0.15091  0.89654  1.0000
  H   H709      1.0  0.05178  0.29949  0.53855  1.0000
  H   H710      1.0  0.55456  0.11332  0.60712  1.0000
  H   H711      1.0  0.58734  0.03784  0.77933  1.0000
  H   H712      1.0  0.76888  0.62462  0.32883  1.0000
  Fe  Fe45      1.0  0.68916  0.67041  0.33763  1.0000
  S   S94       1.0  0.63085  0.67054  0.33722  1.0000
  S   S95       1.0  0.71398  0.65233  0.28936  1.0000
  Fe  Fe46      1.0  0.62061  0.64096  0.39360  1.0000
  S   S96       1.0  0.67628  0.63604  0.39131  1.0000
  Fe  Fe47      1.0  0.76514  0.63987  0.07084  1.0000
  C   C399      1.0  0.03991  0.38035  0.25159  1.0000
  S   S97       1.0  0.81005  0.62488  0.09739  1.0000
  Fe  Fe48      1.0  0.68623  0.60642  0.02626  1.0000
  S   S98       1.0  0.68923  0.66581  0.02263  1.0000
  S   S99       1.0  0.63479  0.55001  0.00318  1.0000
  C   C400      1.0  0.57160  0.59762  0.26547  1.0000
  Fe  Fe49      1.0  0.70770  0.67155  0.08270  1.0000
  H   H713      1.0  0.93083  0.68830  0.37766  1.0000
  S   S100      1.0  0.75052  0.62910  0.00991  1.0000
  S   S101      1.0  0.70025  0.61029  0.08739  1.0000
  Fe  Fe50      1.0  0.97830  0.39669  0.03131  1.0000
  H   H714      1.0  0.79867  0.69503  0.30912  1.0000
  S   S102      1.0  0.96824  0.44612  0.00745  1.0000
  C   C401      1.0  0.85202  0.69741  0.13250  1.0000
  H   H715      1.0  0.66915  0.69075  0.26241  1.0000
  C   C402      1.0  0.59329  0.58365  0.96857  1.0000
  C   C403      1.0  0.81070  0.64187  0.26480  1.0000
  S   S103      1.0  0.64889  0.69896  0.42429  1.0000
  H   H716      1.0  0.74046  0.64319  0.21780  1.0000
  C   C404      1.0  0.59830  0.47882  0.38522  1.0000
  H   H717      1.0  0.80916  0.66034  0.20694  1.0000
  C   C405      1.0  0.90079  0.64604  0.42166  1.0000
  H   H718      1.0  0.62139  0.48563  0.36351  1.0000
  H   H719      1.0  0.56354  0.48506  0.97398  1.0000
  C   C406      1.0  0.01093  0.53971  0.26284  1.0000
  H   H720      1.0  0.62224  0.58109  0.45188  1.0000
  H   H721      1.0  0.93090  0.64822  0.30820  1.0000
  H   H722      1.0  0.72888  0.65986  0.15414  1.0000
  H   H723      1.0  0.84759  0.64781  0.21478  1.0000
  C   C407      1.0  0.57294  0.56482  0.28862  1.0000
  H   H724      1.0  0.80205  0.58208  0.01538  1.0000
  H   H725      1.0  0.93804  0.40696  0.39581  1.0000
  H   H726      1.0  0.55491  0.47661  0.28188  1.0000
  C   C408      1.0  0.97568  0.54532  0.25090  1.0000
  H   H727      1.0  0.00861  0.61976  0.36865  1.0000
  H   H728      1.0  0.92634  0.61209  0.39675  1.0000
  C   C409      1.0  0.98125  0.45814  0.36393  1.0000
  C   C410      1.0  0.62499  0.56187  0.15981  1.0000
  C   C411      1.0  0.84961  0.66095  0.12437  1.0000
  H   H729      1.0  0.79265  0.59732  0.17713  1.0000
  H   H730      1.0  0.80902  0.61504  0.27852  1.0000
  C   C412      1.0  0.87941  0.65297  0.13785  1.0000
  H   H731      1.0  0.00280  0.59016  0.08654  1.0000
  H   H732      1.0  0.87742  0.62454  0.13227  1.0000
  C   C413      1.0  0.02663  0.66477  0.41080  1.0000
  C   C414      1.0  0.70564  0.66574  0.24452  1.0000
  H   H733      1.0  0.88971  0.61640  0.36798  1.0000
  H   H734      1.0  0.99052  0.55238  0.12107  1.0000
  H   H735      1.0  0.01874  0.52659  0.23911  1.0000
  C   C415      1.0  0.71546  0.66633  0.17755  1.0000
  C   C416      1.0  0.72245  0.65730  0.21377  1.0000
  C   C417      1.0  0.67431  0.69213  0.20249  1.0000
  H   H736      1.0  0.95672  0.39436  0.35503  1.0000
  H   H737      1.0  0.87154  0.64540  0.42133  1.0000
  C   C418      1.0  0.99546  0.51482  0.96590  1.0000
  C   C419      1.0  0.55922  0.55084  0.44005  1.0000
  C   C420      1.0  0.00589  0.48872  0.98409  1.0000
  C   C421      1.0  0.78911  0.59773  0.20775  1.0000
  H   H738      1.0  0.99148  0.66489  0.06357  1.0000
  C   C422      1.0  0.96503  0.41557  0.37844  1.0000
  C   C423      1.0  0.81991  0.68463  0.31822  1.0000
  S   S104      1.0  0.02562  0.37321  0.29889  1.0000
  H   H739      1.0  0.98269  0.52015  0.31721  1.0000
  H   H740      1.0  0.98089  0.50242  0.07663  1.0000
  S   S105      1.0  0.68043  0.69282  0.12622  1.0000
  Fe  Fe51      1.0  0.75430  0.68890  0.01027  1.0000
  C   C424      1.0  0.93903  0.67202  0.28686  1.0000
  C   C425      1.0  0.95935  0.64665  0.07104  1.0000
  H   H741      1.0  0.98767  0.41333  0.39601  1.0000
  H   H742      1.0  0.03677  0.56948  0.26763  1.0000
  H   H743      1.0  0.64035  0.59286  0.14883  1.0000
  H   H744      1.0  0.76045  0.63062  0.39448  1.0000
  C   C426      1.0  0.56269  0.51205  0.96733  1.0000
  C   C427      1.0  0.98400  0.53091  0.06595  1.0000
  H   H745      1.0  0.63345  0.54366  0.14226  1.0000
  H   H746      1.0  0.59646  0.57936  0.31019  1.0000
  C   C428      1.0  0.00691  0.56430  0.09441  1.0000
  H   H747      1.0  0.78010  0.63820  0.26713  1.0000
  H   H748      1.0  0.04178  0.59038  0.32611  1.0000
  S   S106      1.0  0.02737  0.66108  0.29793  1.0000
  H   H749      1.0  0.79695  0.57613  0.22061  1.0000
  H   H750      1.0  0.98340  0.56376  0.22515  1.0000
  H   H751      1.0  0.92581  0.49913  0.03990  1.0000
  C   C429      1.0  0.93639  0.66831  0.06018  1.0000
  H   H752      1.0  0.01637  0.60026  0.16355  1.0000
  H   H753      1.0  0.93508  0.67544  0.16790  1.0000
  H   H754      1.0  0.58224  0.54789  0.27020  1.0000
  H   H755      1.0  0.85136  0.66123  0.97979  1.0000
  H   H756      1.0  0.67384  0.57348  0.19730  1.0000
  C   C430      1.0  0.87562  0.67520  0.29888  1.0000
  H   H757      1.0  0.94665  0.61764  0.05670  1.0000
  H   H758      1.0  0.86526  0.64904  0.31776  1.0000
  H   H759      1.0  0.94887  0.51615  0.24528  1.0000
  C   C431      1.0  0.56128  0.50534  0.34561  1.0000
  C   C432      1.0  0.59449  0.54895  0.97802  1.0000
  H   H760      1.0  0.01806  0.64376  0.43374  1.0000
  H   H761      1.0  0.98934  0.47754  0.38854  1.0000
  H   H762      1.0  0.94279  0.55113  0.04699  1.0000
  C   C433      1.0  0.01776  0.47064  0.33757  1.0000
  H   H763      1.0  0.58941  0.51802  0.32900  1.0000
  S   S107      1.0  0.96857  0.37836  0.09190  1.0000
  H   H764      1.0  0.60343  0.63440  0.04654  1.0000
  Fe  Fe52      1.0  0.70547  0.69555  0.41872  1.0000
  C   C434      1.0  0.94117  0.67949  0.01822  1.0000
  C   C435      1.0  0.04741  0.49059  0.44513  1.0000
  C   C436      1.0  0.79575  0.64736  0.34358  1.0000
  H   H765      1.0  0.00775  0.44638  0.31688  1.0000
  C   C437      1.0  0.02101  0.37470  0.18613  1.0000
  H   H766      1.0  0.75729  0.58834  0.21383  1.0000
  C   C438      1.0  0.94173  0.52418  0.05950  1.0000
  H   H767      1.0  0.95701  0.64115  0.10159  1.0000
  C   C439      1.0  0.89757  0.61258  0.39693  1.0000
  H   H768      1.0  0.66876  0.52695  0.44932  1.0000
  H   H769      1.0  0.96852  0.56090  0.27295  1.0000
  C   C440      1.0  0.81658  0.63959  0.22225  1.0000
  H   H770      1.0  0.90446  0.64897  0.06744  1.0000
  C   C441      1.0  0.99987  0.51191  0.29760  1.0000
  H   H771      1.0  0.95633  0.45935  0.34936  1.0000
  H   H772      1.0  0.76469  0.67435  0.37173  1.0000
  H   H773      1.0  0.02582  0.47139  0.25267  1.0000
  H   H774      1.0  0.68283  0.57117  0.42220  1.0000
  H   H775      1.0  0.02790  0.53683  0.36949  1.0000
  C   C442      1.0  0.02146  0.65123  0.37392  1.0000
  H   H776      1.0  0.99914  0.53819  0.03863  1.0000
  C   C443      1.0  0.68196  0.68372  0.23887  1.0000
  H   H777      1.0  0.94080  0.65464  0.00272  1.0000
  H   H778      1.0  0.87452  0.60438  0.02057  1.0000
  H   H779      1.0  0.63648  0.58342  0.21687  1.0000
  C   C444      1.0  0.78110  0.65812  0.37887  1.0000
  C   C445      1.0  0.64120  0.56278  0.19892  1.0000
  H   H780      1.0  0.97797  0.48171  0.28745  1.0000
  H   H781      1.0  0.71903  0.55513  0.43067  1.0000
  H   H782      1.0  0.92463  0.51645  0.08605  1.0000
  C   C446      1.0  0.86383  0.61389  0.99581  1.0000
  H   H783      1.0  0.60173  0.61775  0.25371  1.0000
  N   N23       1.0  0.03369  0.51065  0.31817  1.0000
  C   C447      1.0  0.04602  0.49801  0.98453  1.0000
  H   H784      1.0  0.61762  0.61223  0.97655  1.0000
  C   C448      1.0  0.90171  0.66990  0.26927  1.0000
  H   H785      1.0  0.59478  0.45295  0.40205  1.0000
  S   S108      1.0  0.56096  0.58710  0.40829  1.0000
  H   H786      1.0  0.60720  0.58966  0.09666  1.0000
  H   H787      1.0  0.85312  0.65394  0.02815  1.0000
  N   N24       1.0  0.91132  0.69060  0.00255  1.0000
  H   H788      1.0  0.81379  0.63344  0.35237  1.0000
  C   C449      1.0  0.91218  0.68181  0.15799  1.0000
  H   H789      1.0  0.88478  0.64017  0.25641  1.0000
  H   H790      1.0  0.62648  0.53258  0.21177  1.0000
  C   C450      1.0  0.69099  0.68334  0.17174  1.0000
  C   C451      1.0  0.86905  0.65602  0.00162  1.0000
  H   H791      1.0  0.94833  0.69569  0.07721  1.0000
  H   H792      1.0  0.04345  0.46203  0.43713  1.0000
  H   H793      1.0  0.60842  0.50472  0.40394  1.0000
  N   N25       1.0  0.84057  0.67909  0.28476  1.0000
  S   S109      1.0  0.03670  0.39698  0.02680  1.0000
  H   H794      1.0  0.57945  0.47565  0.03885  1.0000
  H   H795      1.0  0.59667  0.52670  0.08618  1.0000
  H   H796      1.0  0.80657  0.67687  0.39731  1.0000
  C   C452      1.0  0.81978  0.58314  0.99052  1.0000
  H   H797      1.0  0.95704  0.66793  0.26497  1.0000
  C   C453      1.0  0.69367  0.55732  0.44304  1.0000
  C   C454      1.0  0.03311  0.67828  0.34396  1.0000
  H   H798      1.0  0.87388  0.58348  0.40791  1.0000
  H   H799      1.0  0.56265  0.61546  0.28313  1.0000
  H   H800      1.0  0.57483  0.56749  0.17679  1.0000
  H   H801      1.0  0.56622  0.52833  0.36653  1.0000
  H   H802      1.0  0.04203  0.46947  0.35388  1.0000
  S   S110      1.0  0.01418  0.69470  0.19756  1.0000
  C   C455      1.0  0.57903  0.54537  0.16068  1.0000
  H   H803      1.0  0.57380  0.60001  0.12149  1.0000
  C   C456      1.0  0.57053  0.61958  0.05067  1.0000
  H   H804      1.0  0.96452  0.50798  0.96561  1.0000
  H   H805      1.0  0.56534  0.51735  0.17757  1.0000
  H   H806      1.0  0.96362  0.68631  0.41162  1.0000
  Fe  Fe53      1.0  0.02489  0.37449  0.08611  1.0000
  C   C457      1.0  0.93508  0.68699  0.40818  1.0000
  H   H807      1.0  0.91177  0.69323  0.24738  1.0000
  H   H808      1.0  0.03818  0.50613  0.06363  1.0000
  S   S111      1.0  0.77339  0.70157  0.06995  1.0000
  H   H809      1.0  0.82882  0.70357  0.12327  1.0000
  H   H810      1.0  0.89545  0.70122  0.31622  1.0000
  H   H811      1.0  0.95783  0.70142  0.29981  1.0000
  C   C458      1.0  0.55828  0.46899  0.36744  1.0000
  H   H812      1.0  0.03252  0.52460  0.13233  1.0000
  H   H813      1.0  0.81670  0.55321  0.98684  1.0000
  H   H814      1.0  0.90662  0.63910  0.45030  1.0000
  H   H815      1.0  0.88068  0.61269  0.97142  1.0000
  H   H816      1.0  0.03525  0.46336  0.11743  1.0000
  C   C459      1.0  0.59376  0.55495  0.45740  1.0000
  C   C460      1.0  0.04545  0.60060  0.16593  1.0000
  C   C461      1.0  0.05067  0.54203  0.34794  1.0000
  H   H817      1.0  0.57301  0.49001  0.12157  1.0000
  H   H818      1.0  0.55641  0.43693  0.07367  1.0000
  C   C462      1.0  0.57487  0.57745  0.10314  1.0000
  H   H819      1.0  0.03988  0.57114  0.17634  1.0000
  C   C463      1.0  0.56802  0.50976  0.10193  1.0000
  H   H820      1.0  0.56336  0.63735  0.07020  1.0000
  N   N26       1.0  0.05094  0.57802  0.09915  1.0000
  H   H821      1.0  0.56199  0.56086  0.04472  1.0000
  H   H822      1.0  0.55634  0.61862  0.02341  1.0000
  N   N27       1.0  0.55858  0.53798  0.12323  1.0000
  C   C464      1.0  0.55481  0.57726  0.06568  1.0000
  H   H823      1.0  0.80744  0.59048  0.96550  1.0000
  H   H824      1.0  0.57792  0.60885  0.53189  1.0000
  Fe  Fe54      1.0  0.95154  0.63306  0.56017  1.0000
  S   S112      1.0  0.01014  0.68933  0.56579  1.0000
  S   S113      1.0  0.89184  0.62743  0.57700  1.0000
  Fe  Fe55      1.0  0.99134  0.58902  0.52368  1.0000
  H   H825      1.0  0.59107  0.55323  0.88902  1.0000
  S   S114      1.0  0.98203  0.53101  0.49972  1.0000
  C   C465      1.0  0.03647  0.45842  0.74564  1.0000
  C   C466      1.0  0.67604  0.67559  0.55449  1.0000
  H   H826      1.0  0.65202  0.67751  0.94178  1.0000
  S   S115      1.0  0.97433  0.59316  0.58275  1.0000
  S   S116      1.0  0.96206  0.62287  0.50058  1.0000
  C   C467      1.0  0.00252  0.64991  0.71718  1.0000
  C   C468      1.0  0.01750  0.65118  0.68122  1.0000
  H   H827      1.0  0.93173  0.61652  0.84526  1.0000
  H   H828      1.0  0.97194  0.64348  0.72060  1.0000
  H   H829      1.0  0.99850  0.64594  0.65722  1.0000
  H   H830      1.0  0.66347  0.51513  0.89235  1.0000
  H   H831      1.0  0.01922  0.48777  0.54409  1.0000
  H   H832      1.0  0.89894  0.65751  0.92681  1.0000
  C   C469      1.0  0.02480  0.54988  0.94839  1.0000
  C   C470      1.0  0.82885  0.68024  0.51814  1.0000
  C   C471      1.0  0.03867  0.47288  0.78552  1.0000
  H   H833      1.0  0.61769  0.69998  0.86436  1.0000
  H   H834      1.0  0.91346  0.58467  0.80510  1.0000
  S   S117      1.0  0.00752  0.65548  0.79332  1.0000
  C   C472      1.0  0.72952  0.65971  0.87980  1.0000
  C   C473      1.0  0.74200  0.67470  0.91572  1.0000
  C   C474      1.0  0.03647  0.53588  0.83613  1.0000
  H   H835      1.0  0.70663  0.62915  0.87634  1.0000
  Fe  Fe56      1.0  0.03363  0.64896  0.58462  1.0000
  H   H836      1.0  0.73186  0.61226  0.47068  1.0000
  C   C475      1.0  0.85135  0.65761  0.61569  1.0000
  C   C476      1.0  0.88904  0.66231  0.60681  1.0000
  H   H837      1.0  0.59050  0.58703  0.65757  1.0000
  H   H838      1.0  0.82489  0.63227  0.60547  1.0000
  C   C477      1.0  0.70694  0.58237  0.47834  1.0000
  H   H839      1.0  0.56834  0.65982  0.87552  1.0000
  N   N28       1.0  0.90070  0.68266  0.77117  1.0000
  S   S118      1.0  0.76279  0.68523  0.70041  1.0000
  H   H840      1.0  0.57199  0.53650  0.60691  1.0000
  H   H841      1.0  0.00889  0.46908  0.79263  1.0000
  H   H842      1.0  0.99592  0.38743  0.87345  1.0000
  H   H843      1.0  0.92597  0.64345  0.76579  1.0000
  H   H844      1.0  0.72799  0.65584  0.93974  1.0000
  C   C478      1.0  0.64735  0.53204  0.89698  1.0000
  H   H845      1.0  0.88291  0.57290  0.84638  1.0000
  N   N29       1.0  0.73193  0.58191  0.54574  1.0000
  C   C479      1.0  0.72044  0.56211  0.50827  1.0000
  C   C480      1.0  0.74624  0.55983  0.57120  1.0000
  C   C481      1.0  0.69471  0.57921  0.56301  1.0000
  C   C482      1.0  0.76268  0.62532  0.54242  1.0000
  C   C483      1.0  0.80238  0.63532  0.52285  1.0000
  H   H846      1.0  0.02941  0.45906  0.86070  1.0000
  C   C484      1.0  0.69910  0.59416  0.60376  1.0000
  C   C485      1.0  0.76986  0.54094  0.55345  1.0000
  C   C486      1.0  0.78954  0.52772  0.58329  1.0000
  H   H847      1.0  0.79734  0.62190  0.49486  1.0000
  C   C487      1.0  0.02701  0.65705  0.74850  1.0000
  C   C488      1.0  0.65853  0.58400  0.62024  1.0000
  H   H848      1.0  0.69609  0.53069  0.51192  1.0000
  H   H849      1.0  0.74562  0.56016  0.49534  1.0000
  H   H850      1.0  0.76466  0.57949  0.59407  1.0000
  H   H851      1.0  0.72029  0.53439  0.58531  1.0000
  H   H852      1.0  0.66969  0.54786  0.56236  1.0000
  H   H853      1.0  0.68416  0.59702  0.54676  1.0000
  H   H854      1.0  0.74966  0.64184  0.52773  1.0000
  H   H855      1.0  0.77105  0.63903  0.57042  1.0000
  H   H856      1.0  0.96626  0.50470  0.68042  1.0000
  H   H857      1.0  0.81944  0.62482  0.54001  1.0000
  C   C489      1.0  0.56035  0.58128  0.94883  1.0000
  H   H858      1.0  0.62224  0.51464  0.91656  1.0000
  H   H859      1.0  0.71832  0.62695  0.60466  1.0000
  H   H860      1.0  0.71233  0.58066  0.62244  1.0000
  H   H861      1.0  0.74903  0.51416  0.53746  1.0000
  H   H862      1.0  0.79362  0.56141  0.53417  1.0000
  H   H863      1.0  0.81174  0.55373  0.59932  1.0000
  H   H864      1.0  0.76671  0.50575  0.60268  1.0000
  H   H865      1.0  0.80554  0.51368  0.56988  1.0000
  C   C490      1.0  0.57549  0.62535  0.68849  1.0000
  C   C491      1.0  0.73142  0.70183  0.51046  1.0000
  C   C492      1.0  0.69026  0.68065  0.51766  1.0000
  C   C493      1.0  0.63153  0.53853  0.85992  1.0000
  C   C494      1.0  0.81841  0.60538  0.70525  1.0000
  H   H866      1.0  0.98722  0.44607  0.57319  1.0000
  H   H867      1.0  0.64382  0.59710  0.60283  1.0000
  H   H868      1.0  0.63904  0.55126  0.62227  1.0000
  H   H869      1.0  0.66278  0.59661  0.64862  1.0000
  C   C495      1.0  0.02059  0.50607  0.62681  1.0000
  C   C496      1.0  0.74665  0.68408  0.84842  1.0000
  N   N30       1.0  0.59092  0.57023  0.83154  1.0000
  H   H870      1.0  0.87727  0.63349  0.83779  1.0000
  C   C497      1.0  0.61206  0.56510  0.86495  1.0000
  H   H871      1.0  0.98829  0.46618  0.46891  1.0000
  C   C498      1.0  0.61882  0.58706  0.79844  1.0000
  C   C499      1.0  0.62054  0.55694  0.77110  1.0000
  H   H872      1.0  0.58333  0.67374  0.82743  1.0000
  C   C500      1.0  0.60973  0.64110  0.85447  1.0000
  H   H873      1.0  0.61776  0.52905  0.49650  1.0000
  H   H874      1.0  0.04255  0.58832  0.80481  1.0000
  C   C501      1.0  0.65342  0.57827  0.74191  1.0000
  H   H875      1.0  0.94993  0.68552  0.87772  1.0000
  H   H876      1.0  0.87021  0.60927  0.73191  1.0000
  H   H877      1.0  0.66936  0.66807  0.49491  1.0000
  H   H878      1.0  0.63687  0.59413  0.87402  1.0000
  H   H879      1.0  0.96433  0.53072  0.63892  1.0000
  C   C502      1.0  0.86056  0.63020  0.72097  1.0000
  H   H880      1.0  0.55963  0.60822  0.94159  1.0000
  H   H881      1.0  0.61115  0.60652  0.78109  1.0000
  H   H882      1.0  0.64975  0.60706  0.80827  1.0000
  H   H883      1.0  0.59191  0.54042  0.75591  1.0000
  H   H884      1.0  0.62624  0.53478  0.78560  1.0000
  S   S119      1.0  0.03341  0.64951  0.89942  1.0000
  H   H885      1.0  0.85847  0.60132  0.79813  1.0000
  H   H886      1.0  0.63591  0.65349  0.83542  1.0000
  H   H887      1.0  0.62011  0.63965  0.88304  1.0000
  S   S120      1.0  0.68418  0.68466  0.63024  1.0000
  C   C503      1.0  0.86129  0.65874  0.75149  1.0000
  H   H888      1.0  0.04685  0.44932  0.51426  1.0000
  C   C504      1.0  0.59124  0.52551  0.48257  1.0000
  C   C505      1.0  0.70280  0.69153  0.58430  1.0000
  H   H889      1.0  0.68330  0.59300  0.75539  1.0000
  H   H890      1.0  0.65276  0.55644  0.72162  1.0000
  H   H891      1.0  0.64912  0.60108  0.72653  1.0000
  C   C506      1.0  0.57678  0.59916  0.84215  1.0000
  C   C507      1.0  0.98134  0.55188  0.82005  1.0000
  H   H892      1.0  0.61004  0.50882  0.84909  1.0000
  H   H893      1.0  0.01150  0.50519  0.84045  1.0000
  H   H894      1.0  0.64422  0.65958  0.55986  1.0000
  C   C508      1.0  0.56676  0.58381  0.67713  1.0000
  H   H895      1.0  0.83405  0.69535  0.54542  1.0000
  H   H896      1.0  0.91678  0.69179  0.47961  1.0000
  H   H897      1.0  0.04009  0.55088  0.86340  1.0000
  H   H898      1.0  0.98559  0.55782  0.68108  1.0000
  H   H899      1.0  0.87033  0.68474  0.82104  1.0000
  H   H900      1.0  0.65749  0.55337  0.84068  1.0000
  H   H901      1.0  0.68155  0.58599  0.48797  1.0000
  Fe  Fe57      1.0  0.05109  0.67501  0.84146  1.0000
  C   C509      1.0  0.01710  0.46181  0.55959  1.0000
  H   H902      1.0  0.95242  0.69865  0.61482  1.0000
  H   H903      1.0  0.83688  0.64139  0.77187  1.0000
  H   H904      1.0  0.00521  0.47752  0.64285  1.0000
  H   H905      1.0  0.01268  0.42679  0.74381  1.0000
  H   H906      1.0  0.80688  0.62491  0.69438  1.0000
  C   C510      1.0  0.90474  0.59758  0.82841  1.0000
  H   H907      1.0  0.98483  0.56718  0.84698  1.0000
  H   H908      1.0  0.88054  0.64733  0.69747  1.0000
  H   H909      1.0  0.94782  0.66894  0.94421  1.0000
  H   H910      1.0  0.93784  0.69297  0.72249  1.0000
  H   H911      1.0  0.01630  0.56960  0.93444  1.0000
  H   H912      1.0  0.66836  0.56089  0.90998  1.0000
  H   H913      1.0  0.99290  0.42052  0.51354  1.0000
  S   S121      1.0  0.72979  0.66431  0.80388  1.0000
  H   H914      1.0  0.60549  0.64128  0.70169  1.0000
  H   H915      1.0  0.97082  0.56587  0.79889  1.0000
  H   H916      1.0  0.59664  0.57564  0.54464  1.0000
  H   H917      1.0  0.95831  0.52007  0.82310  1.0000
  C   C511      1.0  0.88594  0.62192  0.81345  1.0000
  C   C512      1.0  0.02131  0.55601  0.80760  1.0000
  C   C513      1.0  0.91572  0.65639  0.78789  1.0000
  H   H918      1.0  0.85823  0.68674  0.50672  1.0000
  C   C514      1.0  0.01960  0.43334  0.53182  1.0000
  H   H919      1.0  0.85228  0.67895  0.73727  1.0000
  H   H920      1.0  0.94286  0.67444  0.80495  1.0000
  C   C515      1.0  0.02108  0.52977  0.47469  1.0000
  C   C516      1.0  0.84765  0.68554  0.63772  1.0000
  H   H921      1.0  0.57212  0.45782  0.67287  1.0000
  H   H922      1.0  0.79774  0.58537  0.72715  1.0000
  H   H923      1.0  0.02098  0.40874  0.54667  1.0000
  C   C517      1.0  0.02376  0.53972  0.65248  1.0000
  C   C518      1.0  0.59364  0.67035  0.85548  1.0000
  C   C519      1.0  0.98238  0.53265  0.66384  1.0000
  Fe  Fe58      1.0  0.02243  0.67625  0.50796  1.0000
  H   H924      1.0  0.81910  0.58695  0.68201  1.0000
  H   H925      1.0  0.56897  0.56836  0.70257  1.0000
  H   H926      1.0  0.99968  0.50357  0.60405  1.0000
  H   H927      1.0  0.57572  0.64288  0.66363  1.0000
  C   C520      1.0  0.55286  0.57568  0.58326  1.0000
  H   H928      1.0  0.81482  0.69237  0.49868  1.0000
  H   H929      1.0  0.57583  0.60076  0.59961  1.0000
  H   H930      1.0  0.81840  0.68174  0.64384  1.0000
  H   H931      1.0  0.56081  0.60393  0.81846  1.0000
  C   C521      1.0  0.55432  0.53082  0.82365  1.0000
  H   H932      1.0  0.56269  0.50826  0.81533  1.0000
  H   H933      1.0  0.56186  0.51539  0.66830  1.0000
  C   C522      1.0  0.92324  0.69485  0.62112  1.0000
  H   H934      1.0  0.01671  0.54215  0.77983  1.0000
  C   C523      1.0  0.92904  0.68176  0.93453  1.0000
  H   H935      1.0  0.02911  0.47625  0.72589  1.0000
  H   H936      1.0  0.04098  0.44901  0.60902  1.0000
  H   H937      1.0  0.03655  0.49314  0.89701  1.0000
  C   C524      1.0  0.56958  0.57919  0.54408  1.0000
  C   C525      1.0  0.55429  0.49186  0.49064  1.0000
  H   H938      1.0  0.04406  0.43937  0.92319  1.0000
  H   H939      1.0  0.03972  0.54099  0.67867  1.0000
  H   H940      1.0  0.55447  0.58657  0.86511  1.0000
  H   H941      1.0  0.04516  0.45338  0.80375  1.0000
  C   C526      1.0  0.05210  0.48162  0.87914  1.0000
  H   H942      1.0  0.55274  0.62348  0.70871  1.0000
  H   H943      1.0  0.03968  0.56911  0.63819  1.0000
  C   C527      1.0  0.05029  0.47473  0.58946  1.0000
  C   C528      1.0  0.01622  0.49300  0.46332  1.0000
  H   H944      1.0  0.73614  0.80374  0.32554  1.0000
  Fe  Fe59      1.0  0.66488  0.72849  0.36750  1.0000
  S   S122      1.0  0.65538  0.78051  0.35148  1.0000
  H   H945      1.0  0.84580  0.74940  0.39219  1.0000
  H   H946      1.0  0.71134  0.91639  0.36527  1.0000
  H   H947      1.0  0.72006  0.98947  0.37962  1.0000
  C   C529      1.0  0.74059  0.02057  0.07649  1.0000
  C   C530      1.0  0.91492  0.71859  0.16546  1.0000
  Fe  Fe60      1.0  0.01007  0.75033  0.20428  1.0000
  S   S123      1.0  0.95466  0.75521  0.19178  1.0000
  H   H948      1.0  0.70673  0.91119  0.97637  1.0000
  Fe  Fe61      1.0  0.76953  0.97647  0.23242  1.0000
  S   S124      1.0  0.70805  0.96937  0.22954  1.0000
  S   S125      1.0  0.78265  0.92964  0.25728  1.0000
  Fe  Fe62      1.0  0.72524  0.99391  0.17139  1.0000
  S   S126      1.0  0.68404  0.96368  0.12325  1.0000
  H   H949      1.0  0.67339  0.90024  0.39889  1.0000
  S   S127      1.0  0.78497  0.99681  0.17281  1.0000
  H   H950      1.0  0.62752  0.72579  0.13857  1.0000
  H   H951      1.0  0.86473  0.78066  0.03279  1.0000
  C   C531      1.0  0.90355  0.76712  0.41846  1.0000
  C   C532      1.0  0.70508  0.98422  0.07955  1.0000
  C   C533      1.0  0.68546  0.96405  0.04726  1.0000
  C   C534      1.0  0.70069  0.98043  0.01204  1.0000
  H   H952      1.0  0.70015  0.95789  0.31855  1.0000
  H   H953      1.0  0.95475  0.73623  0.96624  1.0000
  H   H954      1.0  0.91364  0.79255  0.04995  1.0000
  H   H955      1.0  0.77825  0.94063  0.35705  1.0000
  H   H956      1.0  0.68523  0.96460  0.98752  1.0000
  H   H957      1.0  0.76969  0.98178  0.35009  1.0000
  C   C535      1.0  0.77430  0.96923  0.40935  1.0000
  H   H958      1.0  0.75072  0.82553  0.39932  1.0000
  C   C536      1.0  0.04945  0.71883  0.35110  1.0000
  H   H959      1.0  0.65824  0.93573  0.04946  1.0000
  H   H960      1.0  0.75355  0.94021  0.08575  1.0000
  C   C537      1.0  0.88335  0.76784  0.04325  1.0000
  N   N31       1.0  0.60274  0.01781  0.07857  1.0000
  C   C538      1.0  0.74681  0.87948  0.40541  1.0000
  H   H961      1.0  0.62354  0.97726  0.06135  1.0000
  H   H962      1.0  0.86572  0.79452  0.41841  1.0000
  C   C539      1.0  0.69048  0.82082  0.32398  1.0000
  C   C540      1.0  0.68104  0.84996  0.31167  1.0000
  C   C541      1.0  0.70910  0.88357  0.29148  1.0000
  C   C542      1.0  0.74687  0.88838  0.28343  1.0000
  C   C543      1.0  0.75647  0.85952  0.29610  1.0000
  C   C544      1.0  0.72830  0.82567  0.31593  1.0000
  H   H963      1.0  0.65199  0.84664  0.31807  1.0000
  H   H964      1.0  0.70157  0.90578  0.28224  1.0000
  H   H965      1.0  0.78585  0.86330  0.29052  1.0000
  C   C545      1.0  0.56230  0.01495  0.08346  1.0000
  S   S128      1.0  0.03464  0.76175  0.26242  1.0000
  H   H966      1.0  0.75411  0.90664  0.45785  1.0000
  H   H967      1.0  0.61021  0.00198  0.00050  1.0000
  C   C546      1.0  0.78577  0.97030  0.36765  1.0000
  H   H968      1.0  0.03420  0.76368  0.03443  1.0000
  H   H969      1.0  0.00239  0.75831  0.42243  1.0000
  H   H970      1.0  0.59304  0.95789  0.13371  1.0000
  H   H971      1.0  0.61993  0.01516  0.32351  1.0000
  C   C547      1.0  0.59662  0.98084  0.05887  1.0000
  H   H972      1.0  0.73013  0.87384  0.37910  1.0000
  H   H973      1.0  0.90109  0.71068  0.05551  1.0000
  H   H974      1.0  0.61164  0.98835  0.38715  1.0000
  C   C548      1.0  0.89201  0.78984  0.24941  1.0000
  Fe  Fe63      1.0  0.04335  0.70900  0.25388  1.0000
  H   H975      1.0  0.79732  0.96701  0.42662  1.0000
  H   H976      1.0  0.65528  0.71247  0.97627  1.0000
  C   C549      1.0  0.97527  0.75914  0.41233  1.0000
  H   H977      1.0  0.85487  0.71761  0.00714  1.0000
  H   H978      1.0  0.70297  0.87789  0.44455  1.0000
  C   C550      1.0  0.69301  0.95984  0.37841  1.0000
  H   H979      1.0  0.73329  0.81776  0.00089  1.0000
  H   H980      1.0  0.64004  0.88219  0.24688  1.0000
  C   C551      1.0  0.88395  0.75578  0.27639  1.0000
  H   H981      1.0  0.83975  0.02801  0.37173  1.0000
  C   C552      1.0  0.75266  0.80637  0.99005  1.0000
  H   H982      1.0  0.86406  0.79093  0.24372  1.0000
  C   C553      1.0  0.83049  0.99771  0.36137  1.0000
  H   H983      1.0  0.84801  0.98573  0.37593  1.0000
  C   C554      1.0  0.88450  0.72606  0.15294  1.0000
  C   C555      1.0  0.92514  0.70854  0.96419  1.0000
  H   H984      1.0  0.86790  0.71240  0.23377  1.0000
  C   C556      1.0  0.78839  0.82009  0.01628  1.0000
  C   C557      1.0  0.67659  0.95381  0.33880  1.0000
  H   H985      1.0  0.58454  0.71490  0.16670  1.0000
  C   C558      1.0  0.57746  0.93858  0.00058  1.0000
  C   C559      1.0  0.88585  0.74104  0.01358  1.0000
  C   C560      1.0  0.58547  0.97818  0.01698  1.0000
  H   H986      1.0  0.74491  0.87574  0.97644  1.0000
  C   C561      1.0  0.90018  0.72523  0.41894  1.0000
  C   C562      1.0  0.61987  0.99476  0.18136  1.0000
  H   H987      1.0  0.89901  0.75985  0.98835  1.0000
  H   H988      1.0  0.80539  0.85307  0.01748  1.0000
  C   C563      1.0  0.59802  0.98699  0.14409  1.0000
  C   C564      1.0  0.70234  0.92646  0.39040  1.0000
  C   C565      1.0  0.58894  0.99716  0.33410  1.0000
  H   H989      1.0  0.75662  0.84289  0.44654  1.0000
  C   C566      1.0  0.57344  0.02457  0.34926  1.0000
  C   C567      1.0  0.59003  0.97027  0.36520  1.0000
  H   H990      1.0  0.90434  0.78623  0.22272  1.0000
  H   H991      1.0  0.73544  0.77342  0.99190  1.0000
  H   H992      1.0  0.70858  0.90305  0.06326  1.0000
  N   N32       1.0  0.69658  0.84615  0.16519  1.0000
  C   C568      1.0  0.67962  0.85626  0.19857  1.0000
  C   C569      1.0  0.73255  0.84269  0.17733  1.0000
  C   C570      1.0  0.71113  0.88088  0.13816  1.0000
  C   C571      1.0  0.66616  0.80872  0.14586  1.0000
  C   C572      1.0  0.63275  0.77586  0.17052  1.0000
  C   C573      1.0  0.64644  0.86723  0.18985  1.0000
  C   C574      1.0  0.73428  0.87911  0.10347  1.0000
  C   C575      1.0  0.72467  0.80845  0.20488  1.0000
  C   C576      1.0  0.76370  0.80948  0.21592  1.0000
  C   C577      1.0  0.60818  0.73776  0.14853  1.0000
  C   C578      1.0  0.62107  0.86279  0.22417  1.0000
  C   C579      1.0  0.73845  0.90978  0.07393  1.0000
  H   H993      1.0  0.70389  0.88224  0.21320  1.0000
  H   H994      1.0  0.66801  0.83191  0.21964  1.0000
  H   H995      1.0  0.74724  0.83762  0.15301  1.0000
  H   H996      1.0  0.75538  0.87122  0.18998  1.0000
  H   H997      1.0  0.73095  0.90935  0.15263  1.0000
  H   H998      1.0  0.68550  0.88402  0.12750  1.0000
  H   H999      1.0  0.65022  0.81592  0.12371  1.0000
  H   H1000     1.0  0.68163  0.79491  0.13084  1.0000
  H   H1001     1.0  0.61167  0.78563  0.18054  1.0000
  H   H1002     1.0  0.64475  0.76825  0.19542  1.0000
  H   H1003     1.0  0.66042  0.89869  0.18025  1.0000
  H   H1004     1.0  0.62630  0.84875  0.16732  1.0000
  H   H1005     1.0  0.71894  0.84928  0.09058  1.0000
  H   H1006     1.0  0.76503  0.88608  0.11147  1.0000
  H   H1007     1.0  0.70994  0.81018  0.23075  1.0000
  H   H1008     1.0  0.70600  0.77936  0.19143  1.0000
  H   H1009     1.0  0.78506  0.83871  0.22795  1.0000
  H   H1010     1.0  0.75737  0.78587  0.23709  1.0000
  H   H1011     1.0  0.77772  0.80395  0.19132  1.0000
  C   C580      1.0  0.01159  0.80514  0.35744  1.0000
  H   H1012     1.0  0.87263  0.76175  0.30251  1.0000
  H   H1013     1.0  0.86924  0.75053  0.06902  1.0000
  H   H1014     1.0  0.88773  0.71223  0.39128  1.0000
  C   C581      1.0  0.86230  0.76421  0.41787  1.0000
  H   H1015     1.0  0.59833  0.87168  0.21698  1.0000
  H   H1016     1.0  0.75661  0.90914  0.05020  1.0000
  H   H1017     1.0  0.88614  0.75427  0.15886  1.0000
  H   H1018     1.0  0.94319  0.74744  0.03038  1.0000
  H   H1019     1.0  0.91990  0.78410  0.39323  1.0000
  C   C582      1.0  0.97889  0.76368  0.36927  1.0000
  C   C583      1.0  0.74002  0.83928  0.42017  1.0000
  H   H1020     1.0  0.00436  0.82819  0.36702  1.0000
  H   H1021     1.0  0.95029  0.75806  0.35638  1.0000
  H   H1022     1.0  0.91425  0.81860  0.26169  1.0000
  H   H1023     1.0  0.67036  0.03357  0.03707  1.0000
  H   H1024     1.0  0.83723  0.99970  0.33109  1.0000
  H   H1025     1.0  0.57263  0.95379  0.07288  1.0000
  H   H1026     1.0  0.60538  0.83143  0.23422  1.0000
  H   H1027     1.0  0.91298  0.75687  0.28201  1.0000
  H   H1028     1.0  0.60452  0.93515  0.00279  1.0000
  H   H1029     1.0  0.77868  0.99946  0.41522  1.0000
  H   H1030     1.0  0.65031  0.92367  0.33569  1.0000
  H   H1031     1.0  0.62396  0.02280  0.19368  1.0000
  H   H1032     1.0  0.59369  0.74353  0.12423  1.0000
  H   H1033     1.0  0.55827  0.98097  0.01286  1.0000
  H   H1034     1.0  0.65109  0.01939  0.11105  1.0000
  H   H1035     1.0  0.77767  0.80818  0.04477  1.0000
  H   H1036     1.0  0.67042  0.96009  0.39757  1.0000
  H   H1037     1.0  0.97208  0.70462  0.01431  1.0000
  H   H1038     1.0  0.97845  0.78711  0.42375  1.0000
  H   H1039     1.0  0.60214  0.96990  0.20108  1.0000
  S   S129      1.0  0.72407  0.72991  0.36462  1.0000
  N   N33       1.0  0.73286  0.93734  0.42107  1.0000
  H   H1040     1.0  0.98708  0.74206  0.35764  1.0000
  H   H1041     1.0  0.04097  0.81137  0.36907  1.0000
  C   C584      1.0  0.73583  0.01698  0.00875  1.0000
  H   H1042     1.0  0.77929  0.89814  0.39959  1.0000
  H   H1043     1.0  0.01412  0.80699  0.32659  1.0000
  H   H1044     1.0  0.66734  0.97630  0.33222  1.0000
  C   C585      1.0  0.73326  0.90014  0.43410  1.0000
  H   H1045     1.0  0.80864  0.80891  0.00687  1.0000
  H   H1046     1.0  0.87645  0.70625  0.43934  1.0000
  N   N34       1.0  0.93798  0.72328  0.42687  1.0000
  C   C586      1.0  0.91192  0.72264  0.02695  1.0000
  C   C587      1.0  0.71901  0.95250  0.45337  1.0000
  H   H1047     1.0  0.56975  0.93775  0.97063  1.0000
  H   H1048     1.0  0.56959  0.97740  0.31188  1.0000
  Fe  Fe64      1.0  0.73756  0.03329  0.24697  1.0000
  H   H1049     1.0  0.59930  0.94947  0.35367  1.0000
  C   C588      1.0  0.62285  0.02042  0.11541  1.0000
  C   C589      1.0  0.85368  0.71505  0.25962  1.0000
  H   H1050     1.0  0.56853  0.98473  0.14956  1.0000
  H   H1051     1.0  0.91983  0.78506  0.44280  1.0000
  H   H1052     1.0  0.64963  0.99693  0.17772  1.0000
  H   H1053     1.0  0.84438  0.74748  0.44263  1.0000
  S   S130      1.0  0.78818  0.73352  0.96506  1.0000
  H   H1054     1.0  0.84195  0.70830  0.33651  1.0000
  C   C590      1.0  0.04276  0.70540  0.41776  1.0000
  H   H1055     1.0  0.82687  0.71689  0.25009  1.0000
  S   S131      1.0  0.04391  0.73482  0.96341  1.0000
  H   H1056     1.0  0.72028  0.98122  0.44575  1.0000
  H   H1057     1.0  0.55988  0.95223  0.37788  1.0000
  H   H1058     1.0  0.70762  0.81870  0.42498  1.0000
  C   C591      1.0  0.55440  0.00658  0.45206  1.0000
  H   H1059     1.0  0.68700  0.93142  0.46001  1.0000
  H   H1060     1.0  0.55600  0.98147  0.44092  1.0000
  H   H1061     1.0  0.69223  0.84184  0.96871  1.0000
  C   C592      1.0  0.05031  0.74754  0.03902  1.0000
  H   H1062     1.0  0.75611  0.03629  0.10129  1.0000
  C   C593      1.0  0.75595  0.03689  0.04112  1.0000
  H   H1063     1.0  0.65534  0.70527  0.19822  1.0000
  Fe  Fe65      1.0  0.77208  0.78790  0.72439  1.0000
  C   C594      1.0  0.76652  0.82010  0.94925  1.0000
  S   S132      1.0  0.78007  0.84881  0.73842  1.0000
  Fe  Fe66      1.0  0.81737  0.74540  0.69642  1.0000
  C   C595      1.0  0.97202  0.74175  0.75904  1.0000
  S   S133      1.0  0.87818  0.75338  0.68041  1.0000
  H   H1064     1.0  0.77855  0.81184  0.81504  1.0000
  H   H1065     1.0  0.71737  0.73890  0.93805  1.0000
  H   H1066     1.0  0.75991  0.87905  0.91069  1.0000
  C   C596      1.0  0.74395  0.71207  0.57713  1.0000
  S   S134      1.0  0.78632  0.77456  0.66712  1.0000
  S   S135      1.0  0.80887  0.76473  0.75302  1.0000
  C   C597      1.0  0.56043  0.00799  0.62830  1.0000
  Fe  Fe67      1.0  0.67637  0.93907  0.86164  1.0000
  S   S136      1.0  0.73683  0.99376  0.86308  1.0000
  S   S137      1.0  0.66721  0.87739  0.84916  1.0000
  Fe  Fe68      1.0  0.63305  0.98580  0.88283  1.0000
  Fe  Fe69      1.0  0.70646  0.02268  0.83247  1.0000
  H   H1067     1.0  0.87323  0.78279  0.81465  1.0000
  H   H1068     1.0  0.63441  0.86710  0.57815  1.0000
  Fe  Fe70      1.0  0.71476  0.00882  0.91514  1.0000
  S   S138      1.0  0.64691  0.96716  0.82807  1.0000
  S   S139      1.0  0.65615  0.95179  0.91625  1.0000
  H   H1069     1.0  0.67589  0.90653  0.55375  1.0000
  C   C598      1.0  0.69202  0.01029  0.73299  1.0000
  C   C599      1.0  0.68089  0.99693  0.69641  1.0000
  H   H1070     1.0  0.67646  0.99075  0.75603  1.0000
  H   H1071     1.0  0.65640  0.96742  0.69155  1.0000
  C   C600      1.0  0.94727  0.75301  0.49336  1.0000
  C   C601      1.0  0.73268  0.98325  0.51790  1.0000
  C   C602      1.0  0.69085  0.73916  0.92620  1.0000
  H   H1072     1.0  0.92192  0.71968  0.82005  1.0000
  H   H1073     1.0  0.93097  0.71911  0.88763  1.0000
  C   C603      1.0  0.65919  0.89821  0.58044  1.0000
  C   C604      1.0  0.77258  0.71388  0.92036  1.0000
  H   H1074     1.0  0.59764  0.88361  0.77448  1.0000
  H   H1075     1.0  0.61509  0.02580  0.59639  1.0000
  H   H1076     1.0  0.61215  0.00091  0.63994  1.0000
  S   S140      1.0  0.57271  0.98114  0.89489  1.0000
  S   S141      1.0  0.68923  0.00279  0.62063  1.0000
  C   C605      1.0  0.80239  0.83149  0.83460  1.0000
  H   H1077     1.0  0.81813  0.99615  0.67785  1.0000
  H   H1078     1.0  0.79101  0.85159  0.94985  1.0000
  C   C606      1.0  0.58572  0.03410  0.47444  1.0000
  C   C607      1.0  0.74864  0.85601  0.76978  1.0000
  C   C608      1.0  0.75814  0.89495  0.77911  1.0000
  C   C609      1.0  0.73337  0.90199  0.80316  1.0000
  C   C610      1.0  0.69891  0.87005  0.81831  1.0000
  C   C611      1.0  0.68938  0.83108  0.80900  1.0000
  C   C612      1.0  0.71405  0.82405  0.78478  1.0000
  H   H1079     1.0  0.78480  0.91985  0.76757  1.0000
  H   H1080     1.0  0.74104  0.93213  0.81004  1.0000
  H   H1081     1.0  0.66270  0.80620  0.82051  1.0000
  H   H1082     1.0  0.70631  0.79394  0.77771  1.0000
  N   N35       1.0  0.68669  0.88371  0.68235  1.0000
  C   C613      1.0  0.70452  0.85743  0.67366  1.0000
  C   C614      1.0  0.71882  0.92388  0.69578  1.0000
  C   C615      1.0  0.65702  0.86394  0.71377  1.0000
  C   C616      1.0  0.66443  0.88827  0.64959  1.0000
  C   C617      1.0  0.68742  0.90197  0.61222  1.0000
  C   C618      1.0  0.67484  0.81470  0.66065  1.0000
  C   C619      1.0  0.63954  0.88885  0.73134  1.0000
  C   C620      1.0  0.76121  0.94126  0.67849  1.0000
  C   C621      1.0  0.78762  0.98468  0.68957  1.0000
  C   C622      1.0  0.69710  0.79252  0.64977  1.0000
  C   C623      1.0  0.60746  0.86438  0.76030  1.0000
  H   H1083     1.0  0.72001  0.85461  0.69870  1.0000
  H   H1084     1.0  0.72829  0.87098  0.65218  1.0000
  H   H1085     1.0  0.70894  0.94635  0.69213  1.0000
  H   H1086     1.0  0.72370  0.92282  0.72625  1.0000
  H   H1087     1.0  0.67105  0.85547  0.73681  1.0000
  H   H1088     1.0  0.63098  0.83575  0.70434  1.0000
  H   H1089     1.0  0.63622  0.85995  0.64475  1.0000
  H   H1090     1.0  0.65463  0.91043  0.65566  1.0000
  H   H1091     1.0  0.70156  0.88395  0.60459  1.0000
  H   H1092     1.0  0.71062  0.93376  0.61372  1.0000
  H   H1093     1.0  0.65380  0.79722  0.68338  1.0000
  H   H1094     1.0  0.65747  0.81517  0.63610  1.0000
  H   H1095     1.0  0.62531  0.89879  0.71005  1.0000
  H   H1096     1.0  0.66322  0.91544  0.74557  1.0000
  H   H1097     1.0  0.77581  0.92421  0.68890  1.0000
  H   H1098     1.0  0.76048  0.93996  0.64777  1.0000
  C   C624      1.0  0.78517  0.84476  0.86625  1.0000
  C   C625      1.0  0.72000  0.86602  0.95620  1.0000
  H   H1099     1.0  0.77567  0.97666  0.48491  1.0000
  H   H1100     1.0  0.67536  0.76154  0.64182  1.0000
  H   H1101     1.0  0.71732  0.80738  0.62571  1.0000
  H   H1102     1.0  0.71508  0.79140  0.67358  1.0000
  H   H1103     1.0  0.04770  0.80270  0.64036  1.0000
  C   C626      1.0  0.69411  0.78073  0.92997  1.0000
  H   H1104     1.0  0.61938  0.85197  0.78168  1.0000
  H   H1105     1.0  0.81738  0.81528  0.84584  1.0000
  S   S142      1.0  0.71419  0.73059  0.72967  1.0000
  H   H1106     1.0  0.77754  0.86700  0.85448  1.0000
  C   C627      1.0  0.99885  0.76916  0.72802  1.0000
  H   H1107     1.0  0.70895  0.84970  0.89790  1.0000
  C   C628      1.0  0.70151  0.02150  0.66610  1.0000
  S   S143      1.0  0.75029  0.70764  0.46470  1.0000
  C   C629      1.0  0.88234  0.76076  0.82369  1.0000
  Fe  Fe71      1.0  0.75183  0.70655  0.75475  1.0000
  C   C630      1.0  0.74703  0.80929  0.88329  1.0000
  H   H1108     1.0  0.98782  0.72728  0.77243  1.0000
  H   H1109     1.0  0.58109  0.83953  0.74683  1.0000
  H   H1110     1.0  0.61119  0.03011  0.48022  1.0000
  C   C631      1.0  0.95680  0.74663  0.53335  1.0000
  H   H1111     1.0  0.77506  0.00333  0.67858  1.0000
  Fe  Fe72      1.0  0.73098  0.71526  0.67471  1.0000
  H   H1112     1.0  0.78998  0.98734  0.72037  1.0000
  C   C632      1.0  0.89485  0.70541  0.80216  1.0000
  C   C633      1.0  0.73121  0.85299  0.91957  1.0000
  H   H1113     1.0  0.82488  0.85790  0.81878  1.0000
  H   H1114     1.0  0.90562  0.75927  0.76997  1.0000
  H   H1115     1.0  0.94620  0.74811  0.65398  1.0000
  H   H1116     1.0  0.96844  0.76086  0.77977  1.0000
  H   H1117     1.0  0.74406  0.01412  0.50769  1.0000
  C   C634      1.0  0.75818  0.71733  0.54034  1.0000
  H   H1118     1.0  0.75219  0.78332  0.88383  1.0000
  N   N36       1.0  0.73483  0.81571  0.92150  1.0000
  H   H1119     1.0  0.93376  0.71710  0.54406  1.0000
  H   H1120     1.0  0.81408  0.76828  0.89260  1.0000
  H   H1121     1.0  0.68712  0.89287  0.93079  1.0000
  H   H1122     1.0  0.80895  0.85961  0.88739  1.0000
  H   H1123     1.0  0.91875  0.72606  0.72648  1.0000
  H   H1124     1.0  0.67124  0.78114  0.91094  1.0000
  H   H1125     1.0  0.02684  0.79299  0.74027  1.0000
  H   H1126     1.0  0.72232  0.80151  0.86298  1.0000
  H   H1127     1.0  0.68890  0.73112  0.89634  1.0000
  C   C635      1.0  0.60531  0.02269  0.62593  1.0000
  C   C636      1.0  0.91961  0.72280  0.64336  1.0000
  C   C637      1.0  0.56953  0.01457  0.92625  1.0000
  H   H1128     1.0  0.95716  0.76987  0.55161  1.0000
  H   H1129     1.0  0.90412  0.71758  0.95191  1.0000
  H   H1130     1.0  0.91229  0.77704  0.83689  1.0000
  H   H1131     1.0  0.79036  0.74232  0.82914  1.0000
  C   C638      1.0  0.79025  0.73806  0.88902  1.0000
  H   H1132     1.0  0.64653  0.91834  0.58496  1.0000
  H   H1133     1.0  0.68384  0.78274  0.95825  1.0000
  H   H1134     1.0  0.98663  0.74853  0.53471  1.0000
  H   H1135     1.0  0.74698  0.98455  0.54518  1.0000
  H   H1136     1.0  0.69985  0.96926  0.52214  1.0000
  H   H1137     1.0  0.85374  0.72335  0.77695  1.0000
  H   H1138     1.0  0.98378  0.78356  0.71306  1.0000
  H   H1139     1.0  0.00641  0.75214  0.70791  1.0000
  H   H1140     1.0  0.73539  0.93102  0.50386  1.0000
  H   H1141     1.0  0.78149  0.80301  0.94030  1.0000
  C   C639      1.0  0.88375  0.73752  0.79005  1.0000
  H   H1142     1.0  0.91864  0.75359  0.49430  1.0000
  C   C640      1.0  0.74294  0.95982  0.49016  1.0000
  C   C641      1.0  0.71312  0.90142  0.94950  1.0000
  H   H1143     1.0  0.97958  0.72933  0.90471  1.0000
  H   H1144     1.0  0.97163  0.78235  0.48389  1.0000
  H   H1145     1.0  0.79003  0.73365  0.53505  1.0000
  H   H1146     1.0  0.86031  0.74037  0.84456  1.0000
  H   H1147     1.0  0.96922  0.71443  0.47305  1.0000
  H   H1148     1.0  0.02183  0.75499  0.61851  1.0000
  S   S144      1.0  0.04841  0.72361  0.46330  1.0000
  C   C642      1.0  0.77691  0.72338  0.85311  1.0000
  C   C643      1.0  0.94289  0.71884  0.46812  1.0000
  H   H1149     1.0  0.76490  0.72401  0.59990  1.0000
  C   C644      1.0  0.88178  0.71827  0.65172  1.0000
  C   C645      1.0  0.93114  0.71023  0.74316  1.0000
  C   C646      1.0  0.05167  0.78144  0.62263  1.0000
  H   H1150     1.0  0.73998  0.92690  0.93683  1.0000
  C   C647      1.0  0.94850  0.70550  0.89896  1.0000
  H   H1151     1.0  0.55235  0.00404  0.65823  1.0000
  H   H1152     1.0  0.62614  0.70551  0.93448  1.0000
  C   C648      1.0  0.65369  0.70678  0.94590  1.0000
