data_image0
_chemical_formula_structural       FeS2FeS2FeSFeS3HCSCH5FeCH2C2H3C7H4C6H3NC6HCH13CH4CH2C2HCNHC2H2CHCH12C2H7CH2NH3C2H2C3H4C2H6CH5CH6CH4CHSH2CHC2H2CHCHNH4CH2SH3C3HNH2CH2C2H5C2H12CH2CH2CH5CHFeS2FeS2FeSFeS3FeCSCH3CHC6H6CH2SHC6H5C2HCH7C4H2CHC2HCHC2H2CHCH7CH5NC12H29CNHS2H5CHCHCHC3H5NHNHC2H2C2H3SH2CH2C4H4CH2C2H4CHSHCFeSC3H3CH2CH4NHSC2HCH7CHC2H2CH2C2H2C2H5CH4CHC2H2CFeS2FeS2HCFeCFeS2FeS2FeSFeS3CFeHC5HC7H4CH5C2H6C4SCHSHCHNC7H15C2HNCH3CH5C2HNH3C2H6CH6CHCH6CH2CHCH3CH3CH12C2HC4H4C3HCHNHSH4C2H3CHC5SH2C2H7CH6CHC2H4C3H5CHCFeS2FeSCFe2S3FeS2FeSHFeS2FeS2FeSFeS3CH4C6H2CHCHC6H4C2H5C6H4C2H3C2NC4HCNSHC2H3CH11C2HCHC3H7SH2C2NCHCHCH6CH2CH2C3H5C2HC2H3CH4C5HCH2CH2CH4C2H4CH2CH2CHCH2C3H16CH2CH2CH2C2H3C3H2CHCH4CH2NH6C2H3FeH4CHC2H6FeSFeS2FeSH2S2FeS2FeSFeSFeS2FeS2FeSFeS3HC6H4C6H4C4H2C3H2CH2CHC6H4SHCH4CHC2HCH4CH3CH4C2HCSH9C2NC2HC9H4C2H20CH3C2H9NC8HC3H3CH12NH8CHC2H2C3HCH6CHSH4CHC2H4CH3CHNHC2H3C2HC2NH4CHCH2C2HCH4CHCH9CHCSHCH4CHSCH2FeH8CHCHFeSFeSHFe3SCSFeS2FeS2FeSFeS3C2HCHCHSH4SCH2C7H3C7H4CHCSC3HCH4CSH2SC2SNC12H27NC3H2C4HC2H2C2H2C2HFeH3CH2NCH4CHC3H4C2HSFeNH6SH8C2H4CHCH8CHCHCHC2H7CH3C2HSHSHC2H5CHC2HC2HCH2SFeHCH2CH3FeSHS3Fe2SHFeSHSCHSH2C2H3C6H3C7SH2C2H4NHC5HC2H5CH5CHFeCH11CHCHC3HCH2CH7CH2NCHC2HCHFeH5CHCHCH2SH3CH5C2NH2SFeH7CH2SH2FeH3C2H2S2H2SHC4H3CH4CHNC2HCH5C2HCH3SH2CHCH6CH2C2HNSC3Fe2CH6CH5C2HCSH2C3HCHC2H2C3NC2H2CH6S2FeCH3CH3C2HC3H5CHCHFeH4CHSCHSCH3CSH2C2FeSHSFeS2FeSFeCFeS3CH2C2SH2C6H3CSC2HC2H3NC7SC3H15FeH6CHNCH4CH2SC2H6CH9C2H9CH2C3HCH3CH5CSCHCH7NCHCHFeC
_chemical_formula_sum              "Fe72 S144 H1152 C648 N36"
_cell_length_a       42.8791
_cell_length_b       42.5135
_cell_length_c       58.2496
_cell_angle_alpha    88.454
_cell_angle_beta     91.4294
_cell_angle_gamma    118.662

_space_group_name_H-M_alt    "P 1"
_space_group_IT_number       1

loop_
  _space_group_symop_operation_xyz
  'x, y, z'

loop_
  _atom_site_type_symbol
  _atom_site_label
  _atom_site_symmetry_multiplicity
  _atom_site_fract_x
  _atom_site_fract_y
  _atom_site_fract_z
  _atom_site_occupancy
  Fe  Fe1       1.0  0.18763  0.12556  0.09926  1.0000
  S   S1        1.0  0.17974  0.10881  0.06254  1.0000
  S   S2        1.0  0.14592  0.13120  0.11927  1.0000
  Fe  Fe2       1.0  0.26173  0.13168  0.10251  1.0000
  S   S3        1.0  0.25859  0.11493  0.06574  1.0000
  S   S4        1.0  0.31088  0.13954  0.12320  1.0000
  Fe  Fe3       1.0  0.23584  0.15179  0.05778  1.0000
  S   S5        1.0  0.25496  0.19058  0.02731  1.0000
  Fe  Fe4       1.0  0.20272  0.07331  0.07360  1.0000
  S   S6        1.0  0.17754  0.01861  0.05757  1.0000
  S   S7        1.0  0.24272  0.17160  0.09399  1.0000
  S   S8        1.0  0.20695  0.08687  0.11089  1.0000
  H   H1        1.0  0.05278  0.98875  0.08424  1.0000
  C   C1        1.0  0.10250  0.03663  0.08356  1.0000
  S   S9        1.0  0.42596  0.27394  0.17873  1.0000
  C   C2        1.0  0.99101  0.00633  0.07729  1.0000
  H   H2        1.0  0.06676  0.10509  0.05213  1.0000
  H   H3        1.0  0.04683  0.13106  0.02454  1.0000
  H   H4        1.0  0.41329  0.25753  0.08021  1.0000
  H   H5        1.0  0.05357  0.04885  0.09920  1.0000
  H   H6        1.0  0.39604  0.29013  0.04294  1.0000
  Fe  Fe5       1.0  0.47319  0.27781  0.20011  1.0000
  C   C3        1.0  0.02097  0.04484  0.15110  1.0000
  H   H7        1.0  0.18363  0.13313  0.01839  1.0000
  H   H8        1.0  0.07987  0.23099  0.01479  1.0000
  C   C4        1.0  0.35783  0.22214  0.05745  1.0000
  C   C5        1.0  0.05649  0.14273  0.00720  1.0000
  H   H9        1.0  0.31645  0.27125  0.04144  1.0000
  H   H10       1.0  0.38447  0.25057  0.10330  1.0000
  H   H11       1.0  0.26953  0.15986  0.16203  1.0000
  C   C6        1.0  0.37183  0.22317  0.22441  1.0000
  C   C7        1.0  0.39538  0.23741  0.16203  1.0000
  C   C8        1.0  0.36380  0.23678  0.15415  1.0000
  C   C9        1.0  0.33800  0.20747  0.14172  1.0000
  C   C10       1.0  0.34356  0.17846  0.13707  1.0000
  C   C11       1.0  0.37551  0.17952  0.14447  1.0000
  C   C12       1.0  0.40149  0.20900  0.15667  1.0000
  H   H12       1.0  0.35898  0.25880  0.15809  1.0000
  H   H13       1.0  0.31345  0.20690  0.13631  1.0000
  H   H14       1.0  0.38012  0.15724  0.14088  1.0000
  H   H15       1.0  0.42594  0.20946  0.16229  1.0000
  C   C13       1.0  0.04348  0.11372  0.08201  1.0000
  C   C14       1.0  0.04824  0.12143  0.10542  1.0000
  C   C15       1.0  0.07981  0.12694  0.11679  1.0000
  C   C16       1.0  0.10681  0.12507  0.10474  1.0000
  C   C17       1.0  0.10196  0.11776  0.08132  1.0000
  C   C18       1.0  0.07035  0.11165  0.07009  1.0000
  H   H16       1.0  0.02791  0.12380  0.11463  1.0000
  H   H17       1.0  0.08343  0.13294  0.13491  1.0000
  H   H18       1.0  0.12249  0.11669  0.07178  1.0000
  N   N1        1.0  0.32894  0.15505  0.22002  1.0000
  C   C19       1.0  0.30866  0.12160  0.23449  1.0000
  C   C20       1.0  0.35711  0.15142  0.20717  1.0000
  C   C21       1.0  0.30496  0.16036  0.20274  1.0000
  C   C22       1.0  0.28273  0.12831  0.18673  1.0000
  C   C23       1.0  0.38645  0.14915  0.22214  1.0000
  C   C24       1.0  0.41549  0.14968  0.20716  1.0000
  H   H19       1.0  0.45934  0.29927  0.10922  1.0000
  C   C25       1.0  0.25661  0.08301  0.26023  1.0000
  H   H20       1.0  0.32607  0.12024  0.24854  1.0000
  H   H21       1.0  0.30103  0.09715  0.22424  1.0000
  H   H22       1.0  0.34490  0.12689  0.19656  1.0000
  H   H23       1.0  0.37007  0.17382  0.19460  1.0000
  H   H24       1.0  0.32395  0.19141  0.24312  1.0000
  H   H25       1.0  0.26746  0.10286  0.19645  1.0000
  H   H26       1.0  0.30035  0.12464  0.17470  1.0000
  H   H27       1.0  0.39945  0.17194  0.23401  1.0000
  H   H28       1.0  0.37502  0.12386  0.23245  1.0000
  H   H29       1.0  0.42883  0.17523  0.19715  1.0000
  H   H30       1.0  0.43594  0.14755  0.21819  1.0000
  H   H31       1.0  0.40416  0.12689  0.19513  1.0000
  H   H32       1.0  0.98528  0.02792  0.08233  1.0000
  C   C26       1.0  0.34511  0.18693  0.23567  1.0000
  H   H33       1.0  0.35863  0.18179  0.25074  1.0000
  H   H34       1.0  0.23257  0.08098  0.26842  1.0000
  H   H35       1.0  0.24823  0.05947  0.24902  1.0000
  H   H36       1.0  0.40222  0.24687  0.25579  1.0000
  C   C27       1.0  0.03390  0.18830  0.03082  1.0000
  H   H37       1.0  0.01284  0.16037  0.02775  1.0000
  H   H38       1.0  0.35871  0.23138  0.21065  1.0000
  C   C28       1.0  0.10663  0.18988  0.03000  1.0000
  C   C29       1.0  0.13608  0.17867  0.02958  1.0000
  H   H39       1.0  0.23611  0.13626  0.18355  1.0000
  C   C30       1.0  0.38748  0.25308  0.24202  1.0000
  N   N2        1.0  0.01562  0.00251  0.11794  1.0000
  H   H40       1.0  0.22987  0.11097  0.01265  1.0000
  C   C31       1.0  0.16267  0.19532  0.04942  1.0000
  C   C32       1.0  0.35212  0.18951  0.07288  1.0000
  H   H41       1.0  0.40049  0.31872  0.09641  1.0000
  H   H42       1.0  0.08145  0.01068  0.02338  1.0000
  C   C33       1.0  0.35262  0.30928  0.01733  1.0000
  H   H43       1.0  0.24158  0.11219  0.16035  1.0000
  C   C34       1.0  0.06186  0.20212  0.01138  1.0000
  H   H44       1.0  0.32544  0.17754  0.08060  1.0000
  H   H45       1.0  0.37765  0.31577  0.00841  1.0000
  H   H46       1.0  0.11985  0.21901  0.03383  1.0000
  H   H47       1.0  0.09054  0.17652  0.04545  1.0000
  H   H48       1.0  0.15166  0.18754  0.01363  1.0000
  H   H49       1.0  0.12431  0.14923  0.03167  1.0000
  H   H50       1.0  0.00638  0.08737  0.14874  1.0000
  H   H51       1.0  0.34776  0.13681  0.07026  1.0000
  H   H52       1.0  0.04645  0.18903  0.04782  1.0000
  H   H53       1.0  0.12248  0.05641  0.09548  1.0000
  H   H54       1.0  0.28166  0.14036  0.25794  1.0000
  H   H55       1.0  0.01947  0.02532  0.16461  1.0000
  C   C35       1.0  0.25591  0.13471  0.17236  1.0000
  C   C36       1.0  0.05292  0.02658  0.10999  1.0000
  H   H56       1.0  0.38093  0.17049  0.05193  1.0000
  H   H57       1.0  0.18205  0.18496  0.04966  1.0000
  H   H58       1.0  0.17766  0.22494  0.04727  1.0000
  H   H59       1.0  0.14894  0.18852  0.06619  1.0000
  H   H60       1.0  0.17907  0.06251  0.01670  1.0000
  H   H61       1.0  0.43327  0.32055  0.07711  1.0000
  H   H62       1.0  0.09368  0.05053  0.07069  1.0000
  C   C37       1.0  0.39392  0.26557  0.08670  1.0000
  H   H63       1.0  0.32088  0.18361  0.19116  1.0000
  H   H64       1.0  0.36623  0.25701  0.24977  1.0000
  N   N3        1.0  0.36300  0.25507  0.06992  1.0000
  H   H65       1.0  0.01662  0.07780  0.17732  1.0000
  H   H66       1.0  0.11503  0.02360  0.07412  1.0000
  H   H67       1.0  0.42676  0.29916  0.12841  1.0000
  C   C38       1.0  0.32925  0.24563  0.08252  1.0000
  C   C39       1.0  0.32852  0.27642  0.09565  1.0000
  H   H68       1.0  0.38101  0.22902  0.04622  1.0000
  H   H69       1.0  0.40649  0.27858  0.23338  1.0000
  C   C40       1.0  0.19190  0.15091  0.00370  1.0000
  C   C41       1.0  0.00222  0.02591  0.12841  1.0000
  C   C42       1.0  0.29177  0.26485  0.10541  1.0000
  H   H70       1.0  0.17118  0.00578  0.10669  1.0000
  H   H71       1.0  0.10102  0.05298  0.00785  1.0000
  H   H72       1.0  0.01724  0.01887  0.06879  1.0000
  H   H73       1.0  0.33401  0.21193  0.04591  1.0000
  C   C43       1.0  0.01542  0.21125  0.03222  1.0000
  C   C44       1.0  0.07079  0.00853  0.09683  1.0000
  H   H74       1.0  0.33135  0.30304  0.00415  1.0000
  H   H75       1.0  0.00145  0.21063  0.01578  1.0000
  H   H76       1.0  0.30587  0.23366  0.07062  1.0000
  H   H77       1.0  0.32400  0.22418  0.09557  1.0000
  H   H78       1.0  0.33526  0.30015  0.08437  1.0000
  H   H79       1.0  0.34738  0.28411  0.11045  1.0000
  C   C45       1.0  0.00353  0.06556  0.16079  1.0000
  H   H80       1.0  0.35622  0.33301  0.02698  1.0000
  H   H81       1.0  0.04935  0.06421  0.14819  1.0000
  H   H82       1.0  0.39441  0.22150  0.21686  1.0000
  H   H83       1.0  0.12141  0.04780  0.03421  1.0000
  H   H84       1.0  0.37697  0.30994  0.06005  1.0000
  C   C46       1.0  0.44205  0.31144  0.11253  1.0000
  H   H85       1.0  0.25518  0.11745  0.23325  1.0000
  H   H86       1.0  0.28659  0.16768  0.21147  1.0000
  H   H87       1.0  0.29199  0.28764  0.11442  1.0000
  H   H88       1.0  0.27138  0.25643  0.09143  1.0000
  H   H89       1.0  0.28444  0.24239  0.11799  1.0000
  H   H90       1.0  0.33725  0.25394  0.02269  1.0000
  C   C47       1.0  0.41681  0.30599  0.09220  1.0000
  H   H91       1.0  0.44437  0.20730  0.30106  1.0000
  H   H92       1.0  0.00458  0.04748  0.11624  1.0000
  H   H93       1.0  0.13181  0.00149  0.01557  1.0000
  H   H94       1.0  0.07100  0.04016  0.12475  1.0000
  C   C48       1.0  0.27485  0.11786  0.24613  1.0000
  H   H95       1.0  0.27475  0.08237  0.27398  1.0000
  S   S10       1.0  0.00534  0.10835  0.06676  1.0000
  H   H96       1.0  0.03853  0.07040  0.01625  1.0000
  H   H97       1.0  0.29406  0.14772  0.01165  1.0000
  C   C49       1.0  0.10686  0.03419  0.01836  1.0000
  H   H98       1.0  0.33416  0.15186  0.04460  1.0000
  C   C50       1.0  0.35390  0.16049  0.05894  1.0000
  C   C51       1.0  0.37123  0.28435  0.05204  1.0000
  H   H99       1.0  0.41762  0.18919  0.32639  1.0000
  H   H100      1.0  0.20370  0.02449  0.01313  1.0000
  C   C52       1.0  0.34191  0.27691  0.03350  1.0000
  H   H101      1.0  0.37213  0.19679  0.08696  1.0000
  C   C53       1.0  0.44020  0.21340  0.31880  1.0000
  H   H102      1.0  0.08076  0.99496  0.10919  1.0000
  N   N4        1.0  0.08290  0.18225  0.00893  1.0000
  H   H103      1.0  0.03498  0.23941  0.03626  1.0000
  H   H104      1.0  0.99546  0.20049  0.04612  1.0000
  H   H105      1.0  0.43346  0.23560  0.31770  1.0000
  H   H106      1.0  0.99116  0.47141  0.27000  1.0000
  C   C54       1.0  0.12892  0.02181  0.00477  1.0000
  H   H107      1.0  0.25050  0.08278  0.01249  1.0000
  H   H108      1.0  0.45924  0.34054  0.11547  1.0000
  S   S11       1.0  0.46933  0.24260  0.23057  1.0000
  H   H109      1.0  0.03900  0.98941  0.14759  1.0000
  H   H110      1.0  0.15010  0.24388  0.00052  1.0000
  H   H111      1.0  0.09413  0.12190  0.00197  1.0000
  C   C55       1.0  0.22557  0.18100  0.00343  1.0000
  C   C56       1.0  0.47409  0.22442  0.33315  1.0000
  C   C57       1.0  0.24450  0.10138  0.00193  1.0000
  H   H112      1.0  0.46269  0.22985  0.40261  1.0000
  N   N5        1.0  0.08492  0.46661  0.51177  1.0000
  H   H113      1.0  0.05771  0.44568  0.55691  1.0000
  H   H114      1.0  0.05533  0.48390  0.58694  1.0000
  C   C58       1.0  0.10065  0.38335  0.50810  1.0000
  H   H115      1.0  0.09743  0.36457  0.49422  1.0000
  H   H116      1.0  0.08477  0.36743  0.52305  1.0000
  C   C59       1.0  0.08804  0.40971  0.49945  1.0000
  C   C60       1.0  0.04680  0.45389  0.50407  1.0000
  H   H117      1.0  0.05983  0.39352  0.49405  1.0000
  H   H118      1.0  0.07178  0.41838  0.53188  1.0000
  H   H119      1.0  0.04831  0.42836  0.47146  1.0000
  H   H120      1.0  0.12921  0.39791  0.51320  1.0000
  H   H121      1.0  0.04865  0.47034  0.46788  1.0000
  C   C61       1.0  0.03750  0.44508  0.47827  1.0000
  C   C62       1.0  0.09109  0.43550  0.51865  1.0000
  H   H122      1.0  0.46904  0.28771  0.38576  1.0000
  H   H123      1.0  0.02843  0.43013  0.51457  1.0000
  H   H124      1.0  0.10437  0.42414  0.48439  1.0000
  H   H125      1.0  0.11759  0.44537  0.52720  1.0000
  H   H126      1.0  0.23882  0.41460  0.66019  1.0000
  H   H127      1.0  0.37540  0.47015  0.64657  1.0000
  H   H128      1.0  0.03913  0.47505  0.50720  1.0000
  H   H129      1.0  0.10592  0.47491  0.47715  1.0000
  H   H130      1.0  0.98501  0.39870  0.48278  1.0000
  H   H131      1.0  0.44387  0.21631  0.36426  1.0000
  H   H132      1.0  0.03863  0.47283  0.54630  1.0000
  H   H133      1.0  0.45312  0.11843  0.39472  1.0000
  C   C63       1.0  0.47026  0.23601  0.35738  1.0000
  H   H134      1.0  0.47629  0.47760  0.45569  1.0000
  H   H135      1.0  0.26890  0.46810  0.63379  1.0000
  C   C64       1.0  0.06377  0.47335  0.55203  1.0000
  H   H136      1.0  0.44774  0.16659  0.37304  1.0000
  H   H137      1.0  0.45155  0.26989  0.42674  1.0000
  C   C65       1.0  0.99726  0.42553  0.47422  1.0000
  H   H138      1.0  0.46851  0.26104  0.35456  1.0000
  H   H139      1.0  0.22507  0.46502  0.66197  1.0000
  H   H140      1.0  0.99133  0.42195  0.45550  1.0000
  H   H141      1.0  0.45998  0.17758  0.40283  1.0000
  H   H142      1.0  0.47629  0.31760  0.42216  1.0000
  C   C66       1.0  0.46944  0.17417  0.38601  1.0000
  H   H143      1.0  0.98509  0.44133  0.48089  1.0000
  Fe  Fe6       1.0  0.10958  0.19067  0.87178  1.0000
  S   S12       1.0  0.15150  0.21199  0.84488  1.0000
  S   S13       1.0  0.05450  0.18248  0.86464  1.0000
  Fe  Fe7       1.0  0.15700  0.18332  0.90810  1.0000
  S   S14       1.0  0.20376  0.20369  0.88455  1.0000
  S   S15       1.0  0.14629  0.15707  0.94356  1.0000
  Fe  Fe8       1.0  0.18870  0.24577  0.87250  1.0000
  S   S16       1.0  0.23453  0.30175  0.86445  1.0000
  Fe  Fe9       1.0  0.16436  0.16938  0.85783  1.0000
  S   S17       1.0  0.17737  0.14181  0.83008  1.0000
  S   S18       1.0  0.14521  0.22832  0.89879  1.0000
  S   S19       1.0  0.11889  0.14493  0.88213  1.0000
  Fe  Fe10      1.0  0.28873  0.46206  0.76675  1.0000
  C   C67       1.0  0.06351  0.04267  0.86071  1.0000
  S   S20       1.0  0.24535  0.40862  0.78149  1.0000
  C   C68       1.0  0.06857  0.11843  0.99507  1.0000
  H   H144      1.0  0.06393  0.09845  0.78432  1.0000
  H   H145      1.0  0.22024  0.21419  0.95006  1.0000
  H   H146      1.0  0.18769  0.01294  0.90691  1.0000
  C   C69       1.0  0.00498  0.17164  0.94220  1.0000
  H   H147      1.0  0.05142  0.11923  0.80653  1.0000
  C   C70       1.0  0.23686  0.33155  0.84159  1.0000
  C   C71       1.0  0.20733  0.32514  0.82776  1.0000
  C   C72       1.0  0.21045  0.34923  0.80967  1.0000
  C   C73       1.0  0.24303  0.38012  0.80516  1.0000
  C   C74       1.0  0.27256  0.38663  0.81905  1.0000
  C   C75       1.0  0.26943  0.36249  0.83715  1.0000
  H   H148      1.0  0.18202  0.30172  0.83106  1.0000
  H   H149      1.0  0.18741  0.34391  0.79908  1.0000
  H   H150      1.0  0.29779  0.41021  0.81584  1.0000
  H   H151      1.0  0.29242  0.36786  0.84781  1.0000
  H   H152      1.0  0.27496  0.15362  0.98513  1.0000
  H   H153      1.0  0.01496  0.17229  0.96011  1.0000
  C   C76       1.0  0.02215  0.13867  0.85766  1.0000
  H   H154      1.0  0.04755  0.20139  0.99501  1.0000
  H   H155      1.0  0.98578  0.14450  0.89824  1.0000
  S   S21       1.0  0.34588  0.47839  0.75905  1.0000
  H   H156      1.0  0.03930  0.11230  0.88297  1.0000
  C   C77       1.0  0.17833  0.03678  0.84773  1.0000
  C   C78       1.0  0.19165  0.05489  0.82688  1.0000
  C   C79       1.0  0.19048  0.08663  0.82149  1.0000
  C   C80       1.0  0.17710  0.10124  0.83725  1.0000
  C   C81       1.0  0.16393  0.08338  0.85821  1.0000
  C   C82       1.0  0.16389  0.05075  0.86325  1.0000
  H   H157      1.0  0.20305  0.04440  0.81486  1.0000
  H   H158      1.0  0.20072  0.10033  0.80528  1.0000
  H   H159      1.0  0.15423  0.09502  0.87055  1.0000
  H   H160      1.0  0.15388  0.03711  0.87939  1.0000
  H   H161      1.0  0.45031  0.48494  0.72707  1.0000
  C   C83       1.0  0.17839  0.16655  0.96560  1.0000
  C   C84       1.0  0.21234  0.19641  0.96494  1.0000
  H   H162      1.0  0.14699  0.00884  0.96211  1.0000
  C   C85       1.0  0.17088  0.03558  0.96078  1.0000
  H   H163      1.0  0.04146  0.24649  0.93495  1.0000
  H   H164      1.0  0.25342  0.98828  0.81788  1.0000
  H   H165      1.0  0.07165  0.12481  0.97636  1.0000
  H   H166      1.0  0.26193  0.22696  0.98343  1.0000
  H   H167      1.0  0.16043  0.05396  0.95481  1.0000
  H   H168      1.0  0.31494  0.04178  0.81822  1.0000
  H   H169      1.0  0.10970  0.06438  0.89781  1.0000
  C   C86       1.0  0.32622  0.02339  0.81588  1.0000
  C   C87       1.0  0.06963  0.01864  0.87863  1.0000
  C   C88       1.0  0.10381  0.19551  0.98705  1.0000
  C   C89       1.0  0.04209  0.05351  0.82374  1.0000
  H   H170      1.0  0.99893  0.15689  0.83083  1.0000
  H   H171      1.0  0.33081  0.02211  0.79732  1.0000
  C   C90       1.0  0.15209  0.24587  0.96374  1.0000
  H   H172      1.0  0.09845  0.08290  0.81347  1.0000
  C   C91       1.0  0.05837  0.23322  0.93568  1.0000
  C   C92       1.0  0.03766  0.19494  0.92689  1.0000
  H   H173      1.0  0.29678  0.12611  0.98613  1.0000
  C   C93       1.0  0.16849  0.14380  0.98494  1.0000
  H   H174      1.0  0.08658  0.10484  0.83508  1.0000
  C   C94       1.0  0.07201  0.11231  0.80104  1.0000
  C   C95       1.0  0.25176  0.46963  0.66772  1.0000
  H   H175      1.0  0.09739  0.13759  0.79872  1.0000
  H   H176      1.0  0.02777  0.12761  0.94646  1.0000
  C   C96       1.0  0.01551  0.06186  0.93137  1.0000
  H   H177      1.0  0.11354  0.00912  0.98899  1.0000
  C   C97       1.0  0.43385  0.45767  0.68570  1.0000
  H   H178      1.0  0.99447  0.00684  0.85520  1.0000
  H   H179      1.0  0.24130  0.07985  0.96855  1.0000
  H   H180      1.0  0.15052  0.01809  0.91639  1.0000
  H   H181      1.0  0.13399  0.23844  0.94853  1.0000
  H   H182      1.0  0.00266  0.03244  0.93457  1.0000
  H   H183      1.0  0.08530  0.18933  0.97203  1.0000
  H   H184      1.0  0.11716  0.25254  0.98614  1.0000
  C   C98       1.0  0.30120  0.98601  0.82553  1.0000
  H   H185      1.0  0.02010  0.12397  0.91645  1.0000
  H   H186      1.0  0.03052  0.04254  0.80659  1.0000
  H   H187      1.0  0.09053  0.06508  0.85732  1.0000
  H   H188      1.0  0.14246  0.12053  0.98543  1.0000
  H   H189      1.0  0.04874  0.05477  0.86905  1.0000
  N   N6        1.0  0.24888  0.25379  0.79179  1.0000
  C   C99       1.0  0.24445  0.21943  0.78186  1.0000
  C   C100      1.0  0.21247  0.24846  0.79738  1.0000
  C   C101      1.0  0.26725  0.28378  0.77445  1.0000
  C   C102      1.0  0.27105  0.26325  0.81359  1.0000
  C   C103      1.0  0.25935  0.23308  0.83216  1.0000
  C   C104      1.0  0.27924  0.21785  0.77761  1.0000
  C   C105      1.0  0.27161  0.32074  0.78124  1.0000
  C   C106      1.0  0.18814  0.24597  0.77654  1.0000
  C   C107      1.0  0.15142  0.23847  0.78439  1.0000
  C   C108      1.0  0.28452  0.24552  0.85298  1.0000
  C   C109      1.0  0.27102  0.18049  0.76998  1.0000
  C   C110      1.0  0.28744  0.34826  0.76166  1.0000
  H   H190      1.0  0.23023  0.21431  0.76502  1.0000
  H   H191      1.0  0.22694  0.19595  0.79291  1.0000
  H   H192      1.0  0.19776  0.22331  0.80766  1.0000
  H   H193      1.0  0.21445  0.27006  0.80866  1.0000
  H   H194      1.0  0.25339  0.27641  0.75745  1.0000
  H   H195      1.0  0.29456  0.28824  0.77132  1.0000
  H   H196      1.0  0.29953  0.27290  0.80974  1.0000
  H   H197      1.0  0.27058  0.28625  0.82202  1.0000
  H   H198      1.0  0.25931  0.20879  0.82566  1.0000
  H   H199      1.0  0.23222  0.22541  0.83805  1.0000
  H   H200      1.0  0.29488  0.23725  0.76387  1.0000
  H   H201      1.0  0.29614  0.22394  0.79331  1.0000
  H   H202      1.0  0.28972  0.33137  0.79634  1.0000
  H   H203      1.0  0.24580  0.31889  0.78554  1.0000
  H   H204      1.0  0.19951  0.27145  0.76645  1.0000
  H   H205      1.0  0.18429  0.22406  0.76500  1.0000
  H   H206      1.0  0.13764  0.21197  0.79332  1.0000
  H   H207      1.0  0.15370  0.25968  0.79612  1.0000
  H   H208      1.0  0.13498  0.23809  0.76925  1.0000
  H   H209      1.0  0.31219  0.25377  0.84784  1.0000
  H   H210      1.0  0.28372  0.26838  0.86124  1.0000
  H   H211      1.0  0.27625  0.22320  0.86576  1.0000
  H   H212      1.0  0.25637  0.16018  0.78360  1.0000
  H   H213      1.0  0.25477  0.17321  0.75390  1.0000
  H   H214      1.0  0.29620  0.18002  0.76675  1.0000
  H   H215      1.0  0.26923  0.33998  0.74648  1.0000
  H   H216      1.0  0.29120  0.37464  0.76728  1.0000
  H   H217      1.0  0.31371  0.35156  0.75673  1.0000
  H   H218      1.0  0.16820  0.23184  0.96309  1.0000
  C   C111      1.0  0.22262  0.08296  0.98001  1.0000
  N   N7        1.0  0.04505  0.02523  0.83854  1.0000
  H   H219      1.0  0.01472  0.07384  0.99108  1.0000
  S   S22       1.0  0.35189  0.47657  0.69111  1.0000
  S   S23       1.0  0.27684  0.47223  0.73014  1.0000
  H   H220      1.0  0.21213  0.02392  0.94740  1.0000
  H   H221      1.0  0.02919  0.19676  0.90898  1.0000
  H   H222      1.0  0.06788  0.23339  0.95358  1.0000
  H   H223      1.0  0.08182  0.24891  0.92464  1.0000
  H   H224      1.0  0.04467  0.99407  0.88282  1.0000
  C   C112      1.0  0.07727  0.08868  0.81926  1.0000
  H   H225      1.0  0.21568  0.10238  0.97105  1.0000
  C   C113      1.0  0.13089  0.23612  0.98591  1.0000
  H   H226      1.0  0.17045  0.27519  0.96291  1.0000
  C   C114      1.0  0.17096  0.01043  0.92183  1.0000
  H   H227      1.0  0.02327  0.06122  0.83137  1.0000
  C   C115      1.0  0.19404  0.03426  0.94119  1.0000
  C   C116      1.0  0.20022  0.02091  0.99424  1.0000
  C   C117      1.0  0.23585  0.20365  0.98389  1.0000
  H   H228      1.0  0.05636  0.18381  0.92657  1.0000
  H   H229      1.0  0.98082  0.06764  0.95450  1.0000
  H   H230      1.0  0.21051  0.06169  0.93389  1.0000
  H   H231      1.0  0.35224  0.03450  0.82510  1.0000
  H   H232      1.0  0.22685  0.02655  0.98812  1.0000
  N   N8        1.0  0.18956  0.04732  0.98372  1.0000
  H   H233      1.0  0.22820  0.42112  0.68884  1.0000
  N   N9        1.0  0.98214  0.13325  0.93490  1.0000
  H   H234      1.0  0.11884  0.18096  0.98370  1.0000
  C   C118      1.0  0.01949  0.10878  0.87004  1.0000
  C   C119      1.0  0.99701  0.13392  0.84048  1.0000
  H   H235      1.0  0.06297  0.01326  0.80694  1.0000
  H   H236      1.0  0.09539  0.02913  0.82910  1.0000
  C   C120      1.0  0.00622  0.11654  0.93315  1.0000
  C   C121      1.0  0.04112  0.07882  0.99785  1.0000
  H   H237      1.0  0.98908  0.18600  0.94239  1.0000
  H   H238      1.0  0.03954  0.07508  0.94257  1.0000
  H   H239      1.0  0.08904  0.01107  0.87198  1.0000
  S   S24       1.0  0.18345  0.99885  0.85451  1.0000
  H   H240      1.0  0.06564  0.04414  0.90957  1.0000
  H   H241      1.0  0.09239  0.02203  0.91281  1.0000
  C   C122      1.0  0.00775  0.99629  0.84385  1.0000
  H   H242      1.0  0.02356  0.06724  0.91314  1.0000
  H   H243      1.0  0.98783  0.05161  0.87610  1.0000
  C   C123      1.0  0.06640  0.01149  0.82587  1.0000
  C   C124      1.0  0.08526  0.03861  0.90102  1.0000
  C   C125      1.0  0.98918  0.07530  0.93641  1.0000
  C   C126      1.0  0.27974  0.13416  0.99571  1.0000
  H   H244      1.0  0.40468  0.44550  0.68812  1.0000
  H   H245      1.0  0.03232  0.13899  0.99737  1.0000
  H   H246      1.0  0.27375  0.43604  0.68151  1.0000
  H   H247      1.0  0.04964  0.06213  0.98819  1.0000
  C   C127      1.0  0.24798  0.43313  0.67492  1.0000
  H   H248      1.0  0.16184  0.07603  0.99255  1.0000
  H   H249      1.0  0.44451  0.44338  0.69690  1.0000
  C   C128      1.0  0.16600  0.05376  0.99960  1.0000
  C   C129      1.0  0.99054  0.07453  0.86609  1.0000
  H   H250      1.0  0.03030  0.98861  0.94088  1.0000
  H   H251      1.0  0.29847  0.98905  0.84410  1.0000
  H   H252      1.0  0.43862  0.45420  0.66751  1.0000
  H   H253      1.0  0.07375  0.48524  0.67436  1.0000
  C   C130      1.0  0.11550  0.85411  0.05511  1.0000
  H   H254      1.0  0.06858  0.90441  0.06873  1.0000
  S   S25       1.0  0.00725  0.80410  0.08243  1.0000
  H   H255      1.0  0.98398  0.75442  0.04083  1.0000
  C   C131      1.0  0.00938  0.94203  0.02353  1.0000
  Fe  Fe11      1.0  0.01249  0.85196  0.10102  1.0000
  S   S26       1.0  0.06368  0.89118  0.11808  1.0000
  C   C132      1.0  0.01360  0.91874  0.14972  1.0000
  C   C133      1.0  0.09084  0.92652  0.07701  1.0000
  C   C134      1.0  0.14885  0.98382  0.09835  1.0000
  H   H256      1.0  0.00756  0.89151  0.14447  1.0000
  H   H257      1.0  0.05932  0.79238  0.04953  1.0000
  H   H258      1.0  0.04048  0.87983  0.02791  1.0000
  C   C135      1.0  0.09446  0.92669  0.10095  1.0000
  H   H259      1.0  0.99652  0.96224  0.09122  1.0000
  H   H260      1.0  0.10116  0.77615  0.04117  1.0000
  C   C136      1.0  0.01117  0.94008  0.12884  1.0000
  H   H261      1.0  0.17249  0.88955  0.05918  1.0000
  H   H262      1.0  0.01731  0.76263  0.00482  1.0000
  H   H263      1.0  0.19559  0.79914  0.02883  1.0000
  H   H264      1.0  0.14566  0.89239  0.08159  1.0000
  N   N10       1.0  0.09236  0.81371  0.01944  1.0000
  H   H265      1.0  0.04402  0.81392  0.02937  1.0000
  S   S27       1.0  0.98593  0.86890  0.07341  1.0000
  C   C137      1.0  0.11665  0.95468  0.06375  1.0000
  C   C138      1.0  0.12344  0.95538  0.11156  1.0000
  H   H266      1.0  0.15523  0.76549  0.04186  1.0000
  C   C139      1.0  0.14707  0.88929  0.06282  1.0000
  H   H267      1.0  0.14675  0.91243  0.05379  1.0000
  H   H268      1.0  0.16409  0.82966  0.01161  1.0000
  H   H269      1.0  0.99174  0.96884  0.14787  1.0000
  H   H270      1.0  0.12628  0.95560  0.13008  1.0000
  H   H271      1.0  0.11811  0.83165  0.06338  1.0000
  H   H272      1.0  0.03190  0.94353  0.11659  1.0000
  H   H273      1.0  0.00783  0.73353  0.05464  1.0000
  C   C140      1.0  0.99807  0.73879  0.03789  1.0000
  H   H274      1.0  0.14034  0.86525  0.02162  1.0000
  C   C141      1.0  0.11033  0.79106  0.02452  1.0000
  C   C142      1.0  0.11305  0.85127  0.02852  1.0000
  H   H275      1.0  0.09086  0.85312  0.06163  1.0000
  H   H276      1.0  0.10085  0.86792  0.02223  1.0000
  C   C143      1.0  0.05639  0.79613  0.03076  1.0000
  H   H277      1.0  0.04089  0.93218  0.15726  1.0000
  H   H278      1.0  0.98492  0.92350  0.12052  1.0000
  C   C144      1.0  0.03923  0.87539  0.00963  1.0000
  C   C145      1.0  0.16616  0.78434  0.02699  1.0000
  H   H279      1.0  0.11400  0.95422  0.04524  1.0000
  H   H280      1.0  0.02108  0.96859  0.03177  1.0000
  C   C146      1.0  0.18361  0.95664  0.00577  1.0000
  C   C147      1.0  0.15161  0.81088  0.02620  1.0000
  H   H281      1.0  0.03130  0.93669  0.01883  1.0000
  H   H282      1.0  0.17942  0.96106  0.02390  1.0000
  H   H283      1.0  0.16068  0.82669  0.04216  1.0000
  H   H284      1.0  0.15927  0.76885  0.01087  1.0000
  H   H285      1.0  0.99417  0.91586  0.16296  1.0000
  C   C148      1.0  0.01480  0.97639  0.13640  1.0000
  H   H286      1.0  0.99208  0.92145  0.03622  1.0000
  H   H287      1.0  0.97871  0.71271  0.03043  1.0000
  H   H288      1.0  0.10215  0.76977  0.01144  1.0000
  H   H289      1.0  0.04126  0.74181  0.01839  1.0000
  C   C149      1.0  0.02885  0.75899  0.02135  1.0000
  H   H290      1.0  0.08859  0.92326  0.00269  1.0000
  C   C150      1.0  0.99082  0.98288  0.09824  1.0000
  C   C151      1.0  0.14579  0.98329  0.07441  1.0000
  H   H291      1.0  0.16560  0.92809  0.00169  1.0000
  H   H292      1.0  0.21153  0.96237  0.00370  1.0000
  C   C152      1.0  0.98788  0.94198  0.00220  1.0000
  Fe  Fe12      1.0  0.44483  0.85297  0.54996  1.0000
  S   S28       1.0  0.39010  0.84700  0.55292  1.0000
  S   S29       1.0  0.41291  0.52677  0.55779  1.0000
  Fe  Fe13      1.0  0.40778  0.56211  0.53006  1.0000
  S   S30       1.0  0.43275  0.61244  0.55035  1.0000
  S   S31       1.0  0.35980  0.54756  0.50730  1.0000
  H   H293      1.0  0.41066  0.63897  0.46641  1.0000
  C   C153      1.0  0.41203  0.55964  0.63458  1.0000
  Fe  Fe14      1.0  0.44148  0.57833  0.57724  1.0000
  C   C154      1.0  0.29901  0.54821  0.66124  1.0000
  Fe  Fe15      1.0  0.20456  0.62461  0.58635  1.0000
  S   S32       1.0  0.18623  0.65554  0.56267  1.0000
  S   S33       1.0  0.21715  0.62578  0.62457  1.0000
  Fe  Fe16      1.0  0.20691  0.57913  0.54793  1.0000
  S   S34       1.0  0.18890  0.60553  0.52073  1.0000
  S   S35       1.0  0.21369  0.53083  0.54175  1.0000
  Fe  Fe17      1.0  0.22697  0.65645  0.53854  1.0000
  S   S36       1.0  0.26237  0.70323  0.51586  1.0000
  Fe  Fe18      1.0  0.14922  0.60232  0.54631  1.0000
  S   S37       1.0  0.09000  0.58276  0.53909  1.0000
  S   S38       1.0  0.24834  0.63010  0.56329  1.0000
  S   S39       1.0  0.16420  0.57158  0.57223  1.0000
  C   C155      1.0  0.32024  0.54368  0.51833  1.0000
  Fe  Fe19      1.0  0.46616  0.54231  0.54184  1.0000
  H   H294      1.0  0.41101  0.59820  0.65731  1.0000
  C   C156      1.0  0.25529  0.53729  0.53286  1.0000
  C   C157      1.0  0.28750  0.56431  0.54180  1.0000
  C   C158      1.0  0.32006  0.56723  0.53470  1.0000
  C   C159      1.0  0.46101  0.68622  0.63557  1.0000
  C   C160      1.0  0.23983  0.66544  0.66355  1.0000
  H   H295      1.0  0.40977  0.65435  0.61875  1.0000
  C   C161      1.0  0.40249  0.65538  0.49991  1.0000
  C   C162      1.0  0.35483  0.80629  0.54326  1.0000
  C   C163      1.0  0.32776  0.80719  0.52986  1.0000
  C   C164      1.0  0.29914  0.77533  0.52199  1.0000
  C   C165      1.0  0.29631  0.74215  0.52844  1.0000
  C   C166      1.0  0.32265  0.74098  0.54261  1.0000
  C   C167      1.0  0.35239  0.77312  0.54958  1.0000
  H   H296      1.0  0.32936  0.83268  0.52506  1.0000
  H   H297      1.0  0.27909  0.77642  0.51085  1.0000
  H   H298      1.0  0.32048  0.71534  0.54763  1.0000
  H   H299      1.0  0.37301  0.77232  0.56021  1.0000
  C   C168      1.0  0.42210  0.67637  0.63132  1.0000
  H   H300      1.0  0.41716  0.75869  0.47905  1.0000
  H   H301      1.0  0.25412  0.76058  0.56952  1.0000
  H   H302      1.0  0.42986  0.85632  0.60488  1.0000
  H   H303      1.0  0.40733  0.66681  0.64765  1.0000
  H   H304      1.0  0.42650  0.86378  0.63490  1.0000
  C   C169      1.0  0.21009  0.68484  0.63528  1.0000
  C   C170      1.0  0.22265  0.66118  0.64212  1.0000
  H   H305      1.0  0.40819  0.51496  0.61579  1.0000
  H   H306      1.0  0.19647  0.68148  0.61891  1.0000
  H   H307      1.0  0.23249  0.51379  0.64386  1.0000
  H   H308      1.0  0.37518  0.78064  0.46553  1.0000
  H   H309      1.0  0.04470  0.60458  0.48164  1.0000
  H   H310      1.0  0.11814  0.49540  0.54093  1.0000
  C   C171      1.0  0.06494  0.56102  0.51416  1.0000
  C   C172      1.0  0.02757  0.54424  0.51469  1.0000
  C   C173      1.0  0.00677  0.52689  0.49519  1.0000
  C   C174      1.0  0.02320  0.52640  0.47486  1.0000
  S   S40       1.0  0.43481  0.59253  0.61335  1.0000
  C   C175      1.0  0.08130  0.56051  0.49383  1.0000
  H   H311      1.0  0.01462  0.54456  0.53033  1.0000
  S   S41       1.0  0.45311  0.80532  0.55463  1.0000
  H   H312      1.0  0.11001  0.57368  0.49308  1.0000
  C   C176      1.0  0.42518  0.64859  0.48298  1.0000
  H   H313      1.0  0.31234  0.73606  0.65789  1.0000
  N   N11       1.0  0.36980  0.69267  0.50520  1.0000
  C   C177      1.0  0.33355  0.66014  0.50755  1.0000
  C   C178      1.0  0.38615  0.70595  0.52868  1.0000
  C   C179      1.0  0.36466  0.72187  0.49318  1.0000
  C   C180      1.0  0.31170  0.64574  0.48502  1.0000
  C   C181      1.0  0.37676  0.67760  0.54837  1.0000
  C   C182      1.0  0.39978  0.69408  0.56972  1.0000
  C   C183      1.0  0.27837  0.60985  0.48923  1.0000
  H   H314      1.0  0.31684  0.66635  0.51905  1.0000
  H   H315      1.0  0.33538  0.63743  0.51602  1.0000
  H   H316      1.0  0.41556  0.72144  0.52750  1.0000
  H   H317      1.0  0.37814  0.72537  0.53512  1.0000
  H   H318      1.0  0.34354  0.72514  0.50184  1.0000
  H   H319      1.0  0.30273  0.66474  0.47814  1.0000
  H   H320      1.0  0.35502  0.71436  0.47521  1.0000
  H   H321      1.0  0.34854  0.66695  0.55327  1.0000
  H   H322      1.0  0.38032  0.65462  0.54342  1.0000
  H   H323      1.0  0.42826  0.70362  0.56601  1.0000
  H   H324      1.0  0.39651  0.71691  0.57575  1.0000
  H   H325      1.0  0.39160  0.67343  0.58362  1.0000
  H   H326      1.0  0.26170  0.60160  0.47336  1.0000
  H   H327      1.0  0.28582  0.58880  0.49385  1.0000
  H   H328      1.0  0.26237  0.61194  0.50325  1.0000
  C   C184      1.0  0.38841  0.78778  0.48267  1.0000
  C   C185      1.0  0.39817  0.75936  0.49137  1.0000
  H   H329      1.0  0.29533  0.74017  0.58501  1.0000
  N   N12       1.0  0.33713  0.76464  0.62655  1.0000
  C   C186      1.0  0.25815  0.75955  0.58839  1.0000
  H   H330      1.0  0.41290  0.81410  0.48117  1.0000
  H   H331      1.0  0.38449  0.67945  0.47291  1.0000
  H   H332      1.0  0.37039  0.79051  0.49489  1.0000
  C   C187      1.0  0.06054  0.54328  0.47433  1.0000
  H   H333      1.0  0.12172  0.54621  0.66384  1.0000
  H   H334      1.0  0.41987  0.70005  0.62483  1.0000
  H   H335      1.0  0.31457  0.60046  0.64334  1.0000
  H   H336      1.0  0.00170  0.61906  0.40456  1.0000
  H   H337      1.0  0.10418  0.51194  0.48840  1.0000
  C   C188      1.0  0.02863  0.60449  0.43225  1.0000
  C   C189      1.0  0.05087  0.62904  0.47107  1.0000
  H   H338      1.0  0.28457  0.51784  0.59076  1.0000
  N   N13       1.0  0.02202  0.62085  0.45305  1.0000
  H   H339      1.0  0.06631  0.73676  0.41872  1.0000
  H   H340      1.0  0.34364  0.67031  0.61600  1.0000
  H   H341      1.0  0.15657  0.52612  0.51357  1.0000
  C   C190      1.0  0.08924  0.64169  0.46261  1.0000
  C   C191      1.0  0.11640  0.65702  0.48229  1.0000
  H   H342      1.0  0.16686  0.55053  0.47378  1.0000
  H   H343      1.0  0.03533  0.59239  0.38603  1.0000
  H   H344      1.0  0.32298  0.67474  0.58942  1.0000
  H   H345      1.0  0.15803  0.48662  0.50431  1.0000
  H   H346      1.0  0.05479  0.62238  0.42455  1.0000
  H   H347      1.0  0.10076  0.49594  0.58090  1.0000
  C   C192      1.0  0.25575  0.51367  0.51684  1.0000
  H   H348      1.0  0.30682  0.68973  0.63781  1.0000
  H   H349      1.0  0.34495  0.58786  0.54154  1.0000
  H   H350      1.0  0.36647  0.73574  0.62227  1.0000
  H   H351      1.0  0.47569  0.74997  0.53634  1.0000
  H   H352      1.0  0.06037  0.67619  0.42036  1.0000
  H   H353      1.0  0.07327  0.69786  0.44796  1.0000
  C   C193      1.0  0.00097  0.59457  0.41229  1.0000
  H   H354      1.0  0.46852  0.68535  0.59880  1.0000
  C   C194      1.0  0.32431  0.58890  0.65714  1.0000
  H   H355      1.0  0.22397  0.57206  0.59728  1.0000
  H   H356      1.0  0.09100  0.61848  0.45568  1.0000
  H   H357      1.0  0.09735  0.66239  0.44886  1.0000
  H   H358      1.0  0.14320  0.66357  0.47617  1.0000
  H   H359      1.0  0.11752  0.68193  0.48869  1.0000
  H   H360      1.0  0.10946  0.63734  0.49674  1.0000
  C   C195      1.0  0.30678  0.51640  0.60006  1.0000
  H   H361      1.0  0.46130  0.66147  0.64162  1.0000
  H   H362      1.0  0.36112  0.52953  0.59219  1.0000
  C   C196      1.0  0.40346  0.57029  0.65497  1.0000
  H   H363      1.0  0.21533  0.52705  0.59252  1.0000
  C   C197      1.0  0.33741  0.75981  0.65233  1.0000
  H   H364      1.0  0.41802  0.66363  0.51619  1.0000
  H   H365      1.0  0.37787  0.62964  0.50260  1.0000
  H   H366      1.0  0.05160  0.64906  0.48335  1.0000
  C   C198      1.0  0.21497  0.71282  0.64976  1.0000
  H   H367      1.0  0.32736  0.64152  0.47177  1.0000
  H   H368      1.0  0.41208  0.76852  0.50812  1.0000
  H   H369      1.0  0.42083  0.70989  0.48959  1.0000
  C   C199      1.0  0.39446  0.68538  0.49092  1.0000
  H   H370      1.0  0.43122  0.62761  0.49019  1.0000
  H   H371      1.0  0.23696  0.73356  0.59511  1.0000
  H   H372      1.0  0.03012  0.57988  0.43757  1.0000
  H   H373      1.0  0.06037  0.50542  0.65125  1.0000
  H   H374      1.0  0.03355  0.72471  0.44077  1.0000
  H   H375      1.0  0.20532  0.73121  0.64437  1.0000
  H   H376      1.0  0.07353  0.54317  0.45867  1.0000
  H   H377      1.0  0.97807  0.51382  0.49592  1.0000
  H   H378      1.0  0.31456  0.78838  0.58519  1.0000
  H   H379      1.0  0.40695  0.80047  0.64414  1.0000
  H   H380      1.0  0.20147  0.54101  0.48415  1.0000
  H   H381      1.0  0.25913  0.57566  0.63213  1.0000
  C   C200      1.0  0.40500  0.80773  0.62597  1.0000
  C   C201      1.0  0.28803  0.51729  0.50929  1.0000
  H   H382      1.0  0.36258  0.82263  0.62495  1.0000
  C   C202      1.0  0.17295  0.52871  0.47901  1.0000
  C   C203      1.0  0.05123  0.68515  0.43523  1.0000
  C   C204      1.0  0.29478  0.76296  0.59336  1.0000
  C   C205      1.0  0.43175  0.84733  0.62269  1.0000
  H   H383      1.0  0.28726  0.58244  0.55437  1.0000
  H   H384      1.0  0.29949  0.48787  0.60304  1.0000
  H   H385      1.0  0.30015  0.78582  0.62659  1.0000
  H   H386      1.0  0.33150  0.51775  0.56767  1.0000
  C   C206      1.0  0.15012  0.50719  0.49931  1.0000
  C   C207      1.0  0.40172  0.52343  0.63151  1.0000
  C   C208      1.0  0.30217  0.76283  0.61954  1.0000
  H   H387      1.0  0.47133  0.70623  0.64948  1.0000
  C   C209      1.0  0.31932  0.66939  0.60819  1.0000
  H   H388      1.0  0.34777  0.56108  0.58050  1.0000
  N   N14       1.0  0.28679  0.52434  0.64041  1.0000
  H   H389      1.0  0.19833  0.53736  0.61782  1.0000
  S   S42       1.0  0.99871  0.50513  0.44966  1.0000
  H   H390      1.0  0.33957  0.53671  0.63062  1.0000
  H   H391      1.0  0.25585  0.78185  0.59626  1.0000
  H   H392      1.0  0.35876  0.75343  0.65800  1.0000
  H   H393      1.0  0.36715  0.80313  0.59986  1.0000
  C   C210      1.0  0.25287  0.52157  0.63036  1.0000
  C   C211      1.0  0.25543  0.55586  0.61888  1.0000
  H   H394      1.0  0.32527  0.56567  0.61778  1.0000
  H   H395      1.0  0.28593  0.69355  0.61147  1.0000
  H   H396      1.0  0.24110  0.49954  0.61769  1.0000
  C   C212      1.0  0.04233  0.71418  0.42645  1.0000
  H   H397      1.0  0.34599  0.74061  0.59677  1.0000
  C   C213      1.0  0.31593  0.53729  0.62286  1.0000
  C   C214      1.0  0.22104  0.54732  0.60588  1.0000
  C   C215      1.0  0.36694  0.80042  0.61892  1.0000
  C   C216      1.0  0.27925  0.48716  0.64822  1.0000
  C   C217      1.0  0.33878  0.53226  0.58418  1.0000
  S   S43       1.0  0.45833  0.57322  0.51266  1.0000
  H   H398      1.0  0.27730  0.56820  0.60637  1.0000
  H   H399      1.0  0.99497  0.64660  0.43553  1.0000
  C   C218      1.0  0.00859  0.57515  0.39332  1.0000
  C   C219      1.0  0.34180  0.73547  0.61556  1.0000
  H   H400      1.0  0.16841  0.51104  0.46419  1.0000
  H   H401      1.0  0.27966  0.73865  0.62721  1.0000
  H   H402      1.0  0.30434  0.48749  0.65412  1.0000
  H   H403      1.0  0.29669  0.64203  0.61090  1.0000
  H   H404      1.0  0.45916  0.85155  0.62585  1.0000
  H   H405      1.0  0.45071  0.67340  0.47994  1.0000
  H   H406      1.0  0.35092  0.59324  0.65215  1.0000
  C   C220      1.0  0.31112  0.69673  0.61927  1.0000
  H   H407      1.0  0.41325  0.79205  0.61502  1.0000
  H   H408      1.0  0.09458  0.51600  0.52788  1.0000
  H   H409      1.0  0.47073  0.57453  0.46092  1.0000
  H   H410      1.0  0.46203  0.49768  0.49180  1.0000
  H   H411      1.0  0.28804  0.49925  0.49653  1.0000
  H   H412      1.0  0.08185  0.52357  0.57004  1.0000
  C   C221      1.0  0.38307  0.49811  0.64892  1.0000
  H   H413      1.0  0.36764  0.81576  0.66404  1.0000
  C   C222      1.0  0.07635  0.49565  0.57376  1.0000
  C   C223      1.0  0.98693  0.59330  0.46306  1.0000
  H   H414      1.0  0.32033  0.79911  0.66194  1.0000
  H   H415      1.0  0.23102  0.49272  0.50995  1.0000
  H   H416      1.0  0.20148  0.56388  0.65869  1.0000
  H   H417      1.0  0.02101  0.70332  0.41307  1.0000
  C   C224      1.0  0.01873  0.65380  0.44681  1.0000
  C   C225      1.0  0.09210  0.48941  0.53281  1.0000
  C   C226      1.0  0.11001  0.48982  0.49322  1.0000
  H   H418      1.0  0.00705  0.54977  0.40015  1.0000
  H   H419      1.0  0.01367  0.66513  0.46238  1.0000
  H   H420      1.0  0.98539  0.56637  0.46383  1.0000
  H   H421      1.0  0.98837  0.56835  0.37934  1.0000
  H   H422      1.0  0.99746  0.60038  0.50052  1.0000
  C   C227      1.0  0.97827  0.60065  0.48747  1.0000
  H   H423      1.0  0.97876  0.62691  0.48807  1.0000
  C   C228      1.0  0.34131  0.79183  0.66663  1.0000
  Fe  Fe20      1.0  0.10301  0.91178  0.91685  1.0000
  S   S44       1.0  0.07331  0.85839  0.89966  1.0000
  S   S45       1.0  0.10102  0.92427  0.95438  1.0000
  Fe  Fe21      1.0  0.14040  0.95045  0.87266  1.0000
  S   S46       1.0  0.11281  0.90046  0.85196  1.0000
  C   C229      1.0  0.05782  0.97203  0.83091  1.0000
  Fe  Fe22      1.0  0.06443  0.89076  0.87152  1.0000
  Fe  Fe23      1.0  0.12457  0.87282  0.88141  1.0000
  S   S47       1.0  0.15164  0.83809  0.87797  1.0000
  S   S48       1.0  0.09098  0.94324  0.88967  1.0000
  S   S49       1.0  0.15511  0.92359  0.90128  1.0000
  Fe  Fe24      1.0  0.35673  0.53437  0.76741  1.0000
  S   S50       1.0  0.34993  0.54906  0.73125  1.0000
  S   S51       1.0  0.40512  0.57251  0.78789  1.0000
  Fe  Fe25      1.0  0.29307  0.52834  0.74074  1.0000
  S   S52       1.0  0.26759  0.55969  0.72479  1.0000
  H   H424      1.0  0.12334  0.67056  0.70730  1.0000
  Fe  Fe26      1.0  0.30883  0.79408  0.76197  1.0000
  S   S53       1.0  0.27314  0.76871  0.79223  1.0000
  S   S54       1.0  0.36638  0.83687  0.76293  1.0000
  Fe  Fe27      1.0  0.25016  0.75347  0.72682  1.0000
  S   S55       1.0  0.20959  0.72387  0.75408  1.0000
  S   S56       1.0  0.23807  0.75273  0.68863  1.0000
  Fe  Fe28      1.0  0.23178  0.77674  0.77224  1.0000
  S   S57       1.0  0.19467  0.79864  0.78269  1.0000
  Fe  Fe29      1.0  0.25381  0.71815  0.77183  1.0000
  S   S58       1.0  0.24856  0.66745  0.78861  1.0000
  S   S59       1.0  0.26948  0.80663  0.74354  1.0000
  S   S60       1.0  0.29248  0.74326  0.74318  1.0000
  C   C230      1.0  0.17518  0.98056  0.98963  1.0000
  H   H425      1.0  0.07066  0.83034  0.99065  1.0000
  H   H426      1.0  0.43589  0.95604  0.76007  1.0000
  H   H427      1.0  0.23732  0.58870  0.67889  1.0000
  H   H428      1.0  0.43860  0.78270  0.71869  1.0000
  C   C231      1.0  0.39831  0.82692  0.77579  1.0000
  C   C232      1.0  0.41517  0.84401  0.79614  1.0000
  C   C233      1.0  0.44515  0.84214  0.80457  1.0000
  C   C234      1.0  0.45936  0.82414  0.79238  1.0000
  C   C235      1.0  0.44221  0.80640  0.77220  1.0000
  C   C236      1.0  0.41160  0.80765  0.76396  1.0000
  H   H429      1.0  0.40554  0.85953  0.80514  1.0000
  H   H430      1.0  0.45812  0.85572  0.82024  1.0000
  C   C237      1.0  0.33714  0.74899  0.81825  1.0000
  H   H431      1.0  0.39895  0.79481  0.74807  1.0000
  C   C238      1.0  0.43139  0.92908  0.75524  1.0000
  H   H432      1.0  0.37764  0.55359  0.68759  1.0000
  C   C239      1.0  0.26395  0.59050  0.74267  1.0000
  C   C240      1.0  0.25882  0.61818  0.73280  1.0000
  C   C241      1.0  0.25427  0.64208  0.74674  1.0000
  C   C242      1.0  0.25480  0.63838  0.77067  1.0000
  C   C243      1.0  0.26026  0.61094  0.78053  1.0000
  C   C244      1.0  0.26502  0.58717  0.76658  1.0000
  H   H433      1.0  0.25851  0.62126  0.71435  1.0000
  H   H434      1.0  0.24995  0.66309  0.73899  1.0000
  H   H435      1.0  0.26055  0.60789  0.79903  1.0000
  H   H436      1.0  0.26864  0.56577  0.77436  1.0000
  C   C245      1.0  0.43493  0.61373  0.77491  1.0000
  C   C246      1.0  0.42448  0.62829  0.75635  1.0000
  H   H437      1.0  0.15966  0.64900  0.73028  1.0000
  H   H438      1.0  0.44159  0.67033  0.73047  1.0000
  H   H439      1.0  0.39723  0.61520  0.75039  1.0000
  H   H440      1.0  0.46864  0.70717  0.83184  1.0000
  H   H441      1.0  0.34425  0.74734  0.83654  1.0000
  C   C247      1.0  0.16267  0.82613  0.85147  1.0000
  C   C248      1.0  0.14754  0.82940  0.83061  1.0000
  C   C249      1.0  0.15704  0.81992  0.80991  1.0000
  C   C250      1.0  0.18205  0.80741  0.80967  1.0000
  C   C251      1.0  0.19701  0.80383  0.83056  1.0000
  C   C252      1.0  0.18722  0.81299  0.85134  1.0000
  H   H442      1.0  0.12832  0.83903  0.83042  1.0000
  H   H443      1.0  0.14513  0.82260  0.79389  1.0000
  H   H444      1.0  0.21621  0.79417  0.83070  1.0000
  H   H445      1.0  0.19891  0.81008  0.86738  1.0000
  C   C253      1.0  0.03647  0.86403  0.96222  1.0000
  C   C254      1.0  0.06537  0.89412  0.97160  1.0000
  H   H446      1.0  0.42446  0.51810  0.79431  1.0000
  H   H447      1.0  0.03526  0.85937  0.94397  1.0000
  H   H448      1.0  0.17797  0.60239  0.73666  1.0000
  C   C255      1.0  0.17496  0.58832  0.69358  1.0000
  C   C256      1.0  0.14997  0.58206  0.73265  1.0000
  N   N15       1.0  0.23808  0.93188  0.81957  1.0000
  C   C257      1.0  0.25237  0.90629  0.81524  1.0000
  C   C258      1.0  0.22670  0.92855  0.84437  1.0000
  C   C259      1.0  0.20564  0.92107  0.80431  1.0000
  C   C260      1.0  0.36045  0.63458  0.82059  1.0000
  H   H449      1.0  0.11338  0.52813  0.74571  1.0000
  C   C261      1.0  0.26182  0.90369  0.79008  1.0000
  N   N16       1.0  0.37731  0.69092  0.79471  1.0000
  S   S61       1.0  0.30054  0.51735  0.77786  1.0000
  H   H450      1.0  0.34060  0.80563  0.70219  1.0000
  C   C262      1.0  0.18519  0.55796  0.69446  1.0000
  C   C263      1.0  0.28215  0.88247  0.78878  1.0000
  H   H451      1.0  0.13558  0.94073  0.79608  1.0000
  H   H452      1.0  0.23249  0.87873  0.82080  1.0000
  H   H453      1.0  0.27631  0.91257  0.82591  1.0000
  C   C264      1.0  0.01978  0.96470  0.92982  1.0000
  H   H454      1.0  0.19881  0.90656  0.84641  1.0000
  H   H455      1.0  0.18689  0.89209  0.80685  1.0000
  H   H456      1.0  0.21286  0.92452  0.78585  1.0000
  H   H457      1.0  0.98801  0.89565  0.98742  1.0000
  H   H458      1.0  0.98727  0.81600  0.96918  1.0000
  H   H459      1.0  0.38789  0.75971  0.80625  1.0000
  H   H460      1.0  0.15114  0.52561  0.77728  1.0000
  H   H461      1.0  0.23717  0.88936  0.77953  1.0000
  H   H462      1.0  0.27862  0.93054  0.78230  1.0000
  H   H463      1.0  0.35270  0.69665  0.82515  1.0000
  H   H464      1.0  0.26840  0.97357  0.79461  1.0000
  C   C265      1.0  0.08534  0.96393  0.82027  1.0000
  C   C266      1.0  0.15004  0.92536  0.79344  1.0000
  H   H465      1.0  0.32420  0.68316  0.80087  1.0000
  C   C267      1.0  0.18458  0.94182  0.80756  1.0000
  H   H466      1.0  0.40585  0.91543  0.74549  1.0000
  C   C268      1.0  0.37453  0.50884  0.66937  1.0000
  C   C269      1.0  0.44951  0.65992  0.74534  1.0000
  C   C270      1.0  0.35980  0.74028  0.80251  1.0000
  H   H467      1.0  0.30838  0.89679  0.79764  1.0000
  H   H468      1.0  0.26672  0.85541  0.79679  1.0000
  H   H469      1.0  0.28662  0.87903  0.77053  1.0000
  H   H470      1.0  0.47147  0.55020  0.79508  1.0000
  H   H471      1.0  0.16917  0.70406  0.70992  1.0000
  H   H472      1.0  0.27753  0.93639  0.86051  1.0000
  H   H473      1.0  0.15568  0.92620  0.77486  1.0000
  S   S62       1.0  0.01286  0.87204  0.85200  1.0000
  H   H474      1.0  0.46387  0.94962  0.72545  1.0000
  H   H475      1.0  0.17744  0.94127  0.82572  1.0000
  C   C271      1.0  0.38442  0.54497  0.67217  1.0000
  C   C272      1.0  0.24439  0.69315  0.67813  1.0000
  N   N17       1.0  0.14269  0.58183  0.70706  1.0000
  C   C273      1.0  0.06751  0.50719  0.66982  1.0000
  H   H476      1.0  0.25759  0.69619  0.69463  1.0000
  C   C274      1.0  0.45258  0.54156  0.74888  1.0000
  H   H477      1.0  0.25641  0.91940  0.89961  1.0000
  C   C275      1.0  0.45153  0.52218  0.79100  1.0000
  H   H478      1.0  0.00788  0.97385  0.85387  1.0000
  H   H479      1.0  0.00321  0.96744  0.91579  1.0000
  H   H480      1.0  0.42434  0.53593  0.74815  1.0000
  H   H481      1.0  0.18740  0.56799  0.76845  1.0000
  H   H482      1.0  0.19881  0.61278  0.69969  1.0000
  H   H483      1.0  0.13309  0.59062  0.74212  1.0000
  C   C276      1.0  0.00929  0.83951  0.97653  1.0000
  H   H484      1.0  0.19753  0.55774  0.71137  1.0000
  H   H485      1.0  0.43568  0.61739  0.70056  1.0000
  C   C277      1.0  0.16063  0.64934  0.71125  1.0000
  H   H486      1.0  0.35885  0.77576  0.69824  1.0000
  H   H487      1.0  0.35024  0.58250  0.80827  1.0000
  C   C278      1.0  0.21229  0.56340  0.67615  1.0000
  C   C279      1.0  0.15802  0.55185  0.76887  1.0000
  C   C280      1.0  0.14255  0.54599  0.74448  1.0000
  H   H488      1.0  0.42780  0.55636  0.71028  1.0000
  H   H489      1.0  0.36579  0.73306  0.73113  1.0000
  H   H490      1.0  0.47382  0.61173  0.73177  1.0000
  H   H491      1.0  0.34198  0.77672  0.81450  1.0000
  H   H492      1.0  0.39617  0.73207  0.76812  1.0000
  C   C281      1.0  0.47010  0.63196  0.78310  1.0000
  C   C282      1.0  0.13453  0.61208  0.70135  1.0000
  H   H493      1.0  0.10759  0.60534  0.70756  1.0000
  C   C283      1.0  0.11970  0.83378  0.97875  1.0000
  C   C284      1.0  0.11015  0.54738  0.70047  1.0000
  H   H494      1.0  0.11303  0.52354  0.70539  1.0000
  H   H495      1.0  0.45262  0.79187  0.76296  1.0000
  H   H496      1.0  0.15371  0.53158  0.73505  1.0000
  C   C285      1.0  0.45425  0.51371  0.76605  1.0000
  H   H497      1.0  0.42490  0.73920  0.80471  1.0000
  H   H498      1.0  0.24996  0.64747  0.66882  1.0000
  H   H499      1.0  0.25973  0.48667  0.68312  1.0000
  H   H500      1.0  0.30379  0.60866  0.68389  1.0000
  C   C286      1.0  0.47724  0.60590  0.71391  1.0000
  C   C287      1.0  0.36176  0.65070  0.79619  1.0000
  C   C288      1.0  0.26436  0.97019  0.81350  1.0000
  C   C289      1.0  0.44168  0.70034  0.79862  1.0000
  C   C290      1.0  0.35227  0.70101  0.80626  1.0000
  H   H501      1.0  0.33944  0.58266  0.83790  1.0000
  C   C291      1.0  0.33888  0.59370  0.82049  1.0000
  H   H502      1.0  0.14730  0.56591  0.77929  1.0000
  H   H503      1.0  0.13410  0.84844  0.94300  1.0000
  C   C292      1.0  0.45678  0.56521  0.70947  1.0000
  H   H504      1.0  0.43204  0.67109  0.79904  1.0000
  H   H505      1.0  0.39952  0.69353  0.76135  1.0000
  C   C293      1.0  0.46423  0.62617  0.69768  1.0000
  H   H506      1.0  0.24204  0.89121  0.86140  1.0000
  H   H507      1.0  0.15316  0.68064  0.68339  1.0000
  H   H508      1.0  0.37619  0.64141  0.78490  1.0000
  H   H509      1.0  0.18832  0.65785  0.70638  1.0000
  C   C294      1.0  0.45641  0.89545  0.73340  1.0000
  C   C295      1.0  0.33799  0.78251  0.69225  1.0000
  H   H510      1.0  0.31149  0.75933  0.69569  1.0000
  H   H511      1.0  0.38765  0.64187  0.82697  1.0000
  H   H512      1.0  0.32758  0.69353  0.76241  1.0000
  H   H513      1.0  0.30847  0.73005  0.81545  1.0000
  C   C296      1.0  0.47492  0.71765  0.81393  1.0000
  H   H514      1.0  0.31076  0.58500  0.81550  1.0000
  H   H515      1.0  0.33402  0.63756  0.78937  1.0000
  C   C297      1.0  0.34753  0.68744  0.75494  1.0000
  H   H516      1.0  0.20038  0.97023  0.80190  1.0000
  H   H517      1.0  0.05689  0.96565  0.84946  1.0000
  C   C298      1.0  0.44401  0.83235  0.70313  1.0000
  H   H518      1.0  0.99622  0.97493  0.80858  1.0000
  C   C299      1.0  0.15084  0.67772  0.70238  1.0000
  H   H519      1.0  0.35348  0.74476  0.78453  1.0000
  H   H520      1.0  0.34785  0.64414  0.83300  1.0000
  C   C300      1.0  0.35505  0.70356  0.73064  1.0000
  C   C301      1.0  0.38208  0.70236  0.76976  1.0000
  C   C302      1.0  0.24855  0.91978  0.86270  1.0000
  H   H521      1.0  0.99149  0.90742  0.93282  1.0000
  H   H522      1.0  0.46241  0.56294  0.69130  1.0000
  H   H523      1.0  0.13263  0.89710  0.79898  1.0000
  H   H524      1.0  0.37435  0.69743  0.72209  1.0000
  H   H525      1.0  0.14693  0.97285  0.99179  1.0000
  H   H526      1.0  0.33558  0.65792  0.75341  1.0000
  H   H527      1.0  0.41591  0.77736  0.69142  1.0000
  H   H528      1.0  0.09222  0.80834  0.94686  1.0000
  H   H529      1.0  0.44395  0.84252  0.68542  1.0000
  H   H530      1.0  0.13375  0.81765  0.97939  1.0000
  H   H531      1.0  0.21851  0.54092  0.67733  1.0000
  H   H532      1.0  0.09229  0.56445  0.66891  1.0000
  H   H533      1.0  0.42013  0.82947  0.71194  1.0000
  H   H534      1.0  0.40988  0.70448  0.82571  1.0000
  H   H535      1.0  0.09585  0.85183  0.95149  1.0000
  H   H536      1.0  0.41566  0.49402  0.71760  1.0000
  C   C303      1.0  0.10972  0.83562  0.95355  1.0000
  H   H537      1.0  0.22614  0.95332  0.84959  1.0000
  H   H538      1.0  0.32992  0.69193  0.72038  1.0000
  C   C304      1.0  0.01070  0.84495  0.00026  1.0000
  H   H539      1.0  0.46814  0.62176  0.67951  1.0000
  H   H540      1.0  0.08685  0.54418  0.71039  1.0000
  C   C305      1.0  0.44034  0.79490  0.70134  1.0000
  H   H541      1.0  0.45207  0.87866  0.74915  1.0000
  H   H542      1.0  0.03154  0.95305  0.82347  1.0000
  C   C306      1.0  0.98267  0.98025  0.82275  1.0000
  C   C307      1.0  0.41298  0.70961  0.80684  1.0000
  H   H543      1.0  0.43162  0.48664  0.76266  1.0000
  H   H544      1.0  0.01604  0.93021  0.95805  1.0000
  H   H545      1.0  0.11178  0.97994  0.82857  1.0000
  C   C308      1.0  0.46216  0.93272  0.74071  1.0000
  C   C309      1.0  0.23198  0.71696  0.67124  1.0000
  C   C310      1.0  0.44476  0.50365  0.71622  1.0000
  H   H546      1.0  0.21161  0.90674  0.89073  1.0000
  H   H547      1.0  0.06987  0.78868  0.98677  1.0000
  C   C311      1.0  0.08623  0.81589  0.99391  1.0000
  H   H548      1.0  0.27573  0.54535  0.67096  1.0000
  C   C312      1.0  0.09962  0.54370  0.67459  1.0000
  H   H549      1.0  0.13801  0.86158  0.98412  1.0000
  H   H550      1.0  0.43048  0.88244  0.72399  1.0000
  H   H551      1.0  0.31371  0.53943  0.67363  1.0000
  H   H552      1.0  0.13381  0.61606  0.68240  1.0000
  C   C313      1.0  0.98002  0.90128  0.87768  1.0000
  H   H553      1.0  0.07720  0.93506  0.82289  1.0000
  H   H554      1.0  0.16211  0.53125  0.69151  1.0000
  N   N18       1.0  0.46561  0.54149  0.72501  1.0000
  H   H555      1.0  0.00675  0.96190  0.98982  1.0000
  H   H556      1.0  0.17187  0.59452  0.67522  1.0000
  H   H557      1.0  0.42937  0.91342  0.77124  1.0000
  H   H558      1.0  0.46346  0.79622  0.69235  1.0000
  H   H559      1.0  0.45822  0.90146  0.68877  1.0000
  H   H560      1.0  0.44988  0.71067  0.78086  1.0000
  C   C314      1.0  0.06642  0.89997  0.99530  1.0000
  C   C315      1.0  0.99831  0.93065  0.94403  1.0000
  H   H561      1.0  0.47648  0.84490  0.73375  1.0000
  H   H562      1.0  0.00578  0.92476  0.87926  1.0000
  H   H563      1.0  0.04251  0.96331  0.92213  1.0000
  Fe  Fe30      1.0  0.33456  0.49238  0.72335  1.0000
  H   H564      1.0  0.31413  0.96919  0.82316  1.0000
  H   H565      1.0  0.04424  0.50356  0.67981  1.0000
  H   H566      1.0  0.44140  0.51013  0.67862  1.0000
  H   H567      1.0  0.15736  0.98206  0.92777  1.0000
  C   C316      1.0  0.32934  0.61025  0.67889  1.0000
  H   H568      1.0  0.08736  0.96990  0.80152  1.0000
  C   C317      1.0  0.45211  0.49760  0.69116  1.0000
  C   C318      1.0  0.23992  0.92530  0.88704  1.0000
  H   H569      1.0  0.24543  0.95337  0.88929  1.0000
  H   H570      1.0  0.46700  0.56854  0.75653  1.0000
  H   H571      1.0  0.17831  0.97421  0.97174  1.0000
  H   H572      1.0  0.45625  0.50373  0.80264  1.0000
  H   H573      1.0  0.34889  0.63886  0.67578  1.0000
  H   H574      1.0  0.33937  0.59976  0.69331  1.0000
  Fe  Fe31      1.0  0.90303  0.02757  0.11772  1.0000
  S   S63       1.0  0.91627  0.02830  0.08078  1.0000
  Fe  Fe32      1.0  0.89884  0.09724  0.11345  1.0000
  S   S64       1.0  0.91266  0.10355  0.07586  1.0000
  S   S65       1.0  0.89271  0.14373  0.12752  1.0000
  Fe  Fe33      1.0  0.87475  0.04490  0.07367  1.0000
  S   S66       1.0  0.83643  0.02366  0.04365  1.0000
  H   H575      1.0  0.95348  0.43006  0.23981  1.0000
  H   H576      1.0  0.60489  0.14101  0.22409  1.0000
  S   S67       1.0  0.85764  0.03913  0.11049  1.0000
  S   S68       1.0  0.94345  0.08538  0.12349  1.0000
  Fe  Fe34      1.0  0.55302  0.32602  0.20877  1.0000
  S   S69       1.0  0.55544  0.29485  0.23994  1.0000
  S   S70       1.0  0.60094  0.37165  0.19215  1.0000
  Fe  Fe35      1.0  0.52075  0.24717  0.21872  1.0000
  S   S71       1.0  0.52758  0.19801  0.21953  1.0000
  Fe  Fe36      1.0  0.50417  0.29322  0.24951  1.0000
  S   S72       1.0  0.52188  0.27798  0.18662  1.0000
  Fe  Fe37      1.0  0.77089  0.19727  0.20045  1.0000
  S   S73       1.0  0.80646  0.24824  0.21914  1.0000
  S   S74       1.0  0.78143  0.14996  0.19596  1.0000
  Fe  Fe38      1.0  0.71359  0.21996  0.19249  1.0000
  S   S75       1.0  0.74443  0.27261  0.20999  1.0000
  S   S76       1.0  0.66161  0.20224  0.17381  1.0000
  Fe  Fe39      1.0  0.79079  0.27574  0.19128  1.0000
  S   S77       1.0  0.83103  0.32393  0.17173  1.0000
  Fe  Fe40      1.0  0.75690  0.24060  0.23646  1.0000
  S   S78       1.0  0.75855  0.25578  0.27361  1.0000
  S   S79       1.0  0.75903  0.22551  0.17136  1.0000
  S   S80       1.0  0.72227  0.18732  0.22031  1.0000
  H   H577      1.0  0.83595  0.14683  0.10086  1.0000
  C   C319      1.0  0.82759  0.36342  0.16948  1.0000
  C   C320      1.0  0.81054  0.37284  0.18606  1.0000
  C   C321      1.0  0.81176  0.40658  0.18466  1.0000
  C   C322      1.0  0.82882  0.43012  0.16625  1.0000
  C   C323      1.0  0.84465  0.41998  0.14937  1.0000
  C   C324      1.0  0.84461  0.38710  0.15121  1.0000
  H   H578      1.0  0.79746  0.35468  0.20027  1.0000
  H   H579      1.0  0.79919  0.41419  0.19762  1.0000
  H   H580      1.0  0.85782  0.43799  0.13510  1.0000
  H   H581      1.0  0.85792  0.37998  0.13842  1.0000
  C   C325      1.0  0.56551  0.20187  0.20608  1.0000
  C   C326      1.0  0.59961  0.23045  0.21050  1.0000
  C   C327      1.0  0.62977  0.22991  0.20185  1.0000
  C   C328      1.0  0.62554  0.20218  0.18746  1.0000
  C   C329      1.0  0.59144  0.17452  0.18250  1.0000
  C   C330      1.0  0.56168  0.17381  0.19232  1.0000
  H   H582      1.0  0.60273  0.25230  0.22109  1.0000
  H   H583      1.0  0.65614  0.25136  0.20567  1.0000
  H   H584      1.0  0.58803  0.15315  0.17131  1.0000
  H   H585      1.0  0.53551  0.15160  0.18897  1.0000
  C   C331      1.0  0.63656  0.40047  0.20985  1.0000
  C   C332      1.0  0.66596  0.42932  0.19964  1.0000
  C   C333      1.0  0.66709  0.41646  0.24680  1.0000
  C   C334      1.0  0.63699  0.39422  0.23352  1.0000
  H   H586      1.0  0.62621  0.11839  0.23864  1.0000
  H   H587      1.0  0.61424  0.37225  0.24156  1.0000
  C   C335      1.0  0.73287  0.23254  0.31691  1.0000
  C   C336      1.0  0.73129  0.22310  0.29384  1.0000
  C   C337      1.0  0.70899  0.18768  0.28747  1.0000
  H   H588      1.0  0.74374  0.02561  0.11756  1.0000
  H   H589      1.0  0.70687  0.18030  0.26970  1.0000
  C   C338      1.0  0.55222  0.34998  0.29789  1.0000
  H   H590      1.0  0.56066  0.34800  0.28089  1.0000
  H   H591      1.0  0.53599  0.23842  0.29476  1.0000
  C   C339      1.0  0.93360  0.44912  0.26693  1.0000
  H   H592      1.0  0.58163  0.10771  0.24628  1.0000
  C   C340      1.0  0.86089  0.14431  0.14631  1.0000
  C   C341      1.0  0.85956  0.17651  0.14869  1.0000
  C   C342      1.0  0.83501  0.17853  0.16346  1.0000
  C   C343      1.0  0.81171  0.14837  0.17627  1.0000
  C   C344      1.0  0.81298  0.11613  0.17388  1.0000
  C   C345      1.0  0.83728  0.11402  0.15889  1.0000
  H   H593      1.0  0.87778  0.20017  0.13913  1.0000
  H   H594      1.0  0.83446  0.20354  0.16514  1.0000
  H   H595      1.0  0.79513  0.09265  0.18374  1.0000
  H   H596      1.0  0.83810  0.08913  0.15734  1.0000
  S   S81       1.0  0.50454  0.32867  0.22003  1.0000
  H   H597      1.0  0.88669  0.42095  0.19758  1.0000
  C   C346      1.0  0.81212  0.22679  0.32575  1.0000
  H   H598      1.0  0.65366  0.27814  0.29358  1.0000
  H   H599      1.0  0.93571  0.47357  0.25848  1.0000
  H   H600      1.0  0.74229  0.48044  0.30203  1.0000
  H   H601      1.0  0.93119  0.42978  0.20251  1.0000
  C   C347      1.0  0.83618  0.14167  0.08225  1.0000
  H   H602      1.0  0.91731  0.48137  0.30942  1.0000
  C   C348      1.0  0.79459  0.19112  0.31321  1.0000
  C   C349      1.0  0.68056  0.44672  0.32105  1.0000
  H   H603      1.0  0.71120  0.44950  0.15637  1.0000
  C   C350      1.0  0.86615  0.41160  0.24193  1.0000
  H   H604      1.0  0.67441  0.38205  0.16783  1.0000
  H   H605      1.0  0.77193  0.07374  0.04964  1.0000
  H   H606      1.0  0.78579  0.44428  0.11695  1.0000
  H   H607      1.0  0.90361  0.47962  0.17867  1.0000
  C   C351      1.0  0.80992  0.08935  0.01176  1.0000
  H   H608      1.0  0.87475  0.30811  0.20422  1.0000
  H   H609      1.0  0.92546  0.39669  0.25956  1.0000
  H   H610      1.0  0.76639  0.39623  0.27339  1.0000
  C   C352      1.0  0.85603  0.17938  0.07061  1.0000
  H   H611      1.0  0.80219  0.21376  0.27865  1.0000
  H   H612      1.0  0.75313  0.19478  0.09109  1.0000
  H   H613      1.0  0.68275  0.43400  0.30510  1.0000
  H   H614      1.0  0.84664  0.12997  0.03405  1.0000
  C   C353      1.0  0.60792  0.12971  0.24090  1.0000
  C   C354      1.0  0.64812  0.23451  0.27063  1.0000
  H   H615      1.0  0.82112  0.07109  0.01574  1.0000
  C   C355      1.0  0.77032  0.15512  0.08603  1.0000
  S   S82       1.0  0.83070  0.47222  0.16345  1.0000
  H   H616      1.0  0.87407  0.43924  0.24733  1.0000
  H   H617      1.0  0.47940  0.31310  0.33167  1.0000
  H   H618      1.0  0.78347  0.02681  0.12950  1.0000
  H   H619      1.0  0.81434  0.33687  0.24482  1.0000
  H   H620      1.0  0.96604  0.43656  0.29103  1.0000
  H   H621      1.0  0.54718  0.18640  0.30326  1.0000
  H   H622      1.0  0.70759  0.32628  0.27517  1.0000
  H   H623      1.0  0.84712  0.38219  0.31803  1.0000
  H   H624      1.0  0.86481  0.37710  0.27185  1.0000
  C   C356      1.0  0.69641  0.45092  0.21276  1.0000
  C   C357      1.0  0.96752  0.46000  0.28122  1.0000
  N   N19       1.0  0.79823  0.16118  0.27565  1.0000
  C   C358      1.0  0.81348  0.17139  0.25185  1.0000
  C   C359      1.0  0.75818  0.14272  0.27365  1.0000
  H   H625      1.0  0.79138  0.04691  0.08901  1.0000
  C   C360      1.0  0.81075  0.13807  0.28882  1.0000
  C   C361      1.0  0.81851  0.11214  0.27468  1.0000
  C   C362      1.0  0.85408  0.19718  0.25066  1.0000
  C   C363      1.0  0.92205  0.47239  0.21260  1.0000
  C   C364      1.0  0.73997  0.10732  0.26020  1.0000
  C   C365      1.0  0.70013  0.09437  0.25723  1.0000
  C   C366      1.0  0.82448  0.08609  0.29040  1.0000
  C   C367      1.0  0.86827  0.19826  0.22666  1.0000
  C   C368      1.0  0.73175  0.44390  0.14931  1.0000
  H   H626      1.0  0.80016  0.18445  0.24193  1.0000
  H   H627      1.0  0.80759  0.14737  0.24179  1.0000
  H   H628      1.0  0.74586  0.13569  0.29089  1.0000
  H   H629      1.0  0.74978  0.16144  0.26541  1.0000
  C   C369      1.0  0.64689  0.48403  0.29548  1.0000
  C   C370      1.0  0.80960  0.19545  0.28863  1.0000
  H   H630      1.0  0.83588  0.15507  0.29846  1.0000
  H   H631      1.0  0.79111  0.12191  0.30226  1.0000
  H   H632      1.0  0.84295  0.12744  0.26447  1.0000
  H   H633      1.0  0.79672  0.09613  0.26251  1.0000
  H   H634      1.0  0.85981  0.22492  0.25454  1.0000
  H   H635      1.0  0.86895  0.18918  0.26324  1.0000
  H   H636      1.0  0.65447  0.24055  0.32023  1.0000
  H   H637      1.0  0.67837  0.37996  0.32462  1.0000
  H   H638      1.0  0.75101  0.11040  0.24279  1.0000
  H   H639      1.0  0.74277  0.08599  0.26991  1.0000
  H   H640      1.0  0.68725  0.08986  0.27421  1.0000
  H   H641      1.0  0.69546  0.11429  0.24712  1.0000
  H   H642      1.0  0.68751  0.06870  0.24784  1.0000
  H   H643      1.0  0.83086  0.06855  0.27988  1.0000
  H   H644      1.0  0.84702  0.10095  0.30250  1.0000
  H   H645      1.0  0.80012  0.06882  0.30031  1.0000
  H   H646      1.0  0.89731  0.21692  0.22631  1.0000
  H   H647      1.0  0.86356  0.17122  0.22176  1.0000
  H   H648      1.0  0.85504  0.20783  0.21377  1.0000
  H   H649      1.0  0.59513  0.24576  0.28761  1.0000
  C   C371      1.0  0.77840  0.09094  0.09292  1.0000
  H   H650      1.0  0.86018  0.36091  0.21474  1.0000
  H   H651      1.0  0.75290  0.11745  0.05821  1.0000
  H   H652      1.0  0.90860  0.18313  0.07340  1.0000
  C   C372      1.0  0.79313  0.06607  0.10220  1.0000
  C   C373      1.0  0.66011  0.27436  0.27597  1.0000
  H   H653      1.0  0.72578  0.25996  0.13637  1.0000
  H   H654      1.0  0.67354  0.13385  0.29931  1.0000
  H   H655      1.0  0.62701  0.14654  0.27507  1.0000
  H   H656      1.0  0.79922  0.38484  0.30719  1.0000
  H   H657      1.0  0.85315  0.12850  0.08110  1.0000
  H   H658      1.0  0.90921  0.04522  0.03184  1.0000
  H   H659      1.0  0.91320  0.37220  0.19473  1.0000
  H   H660      1.0  0.77697  0.44004  0.28377  1.0000
  H   H661      1.0  0.72886  0.29546  0.11736  1.0000
  N   N20       1.0  0.69248  0.34230  0.16631  1.0000
  C   C374      1.0  0.71235  0.33257  0.14926  1.0000
  C   C375      1.0  0.69418  0.37730  0.15862  1.0000
  C   C376      1.0  0.70979  0.34540  0.18959  1.0000
  C   C377      1.0  0.65406  0.31405  0.16780  1.0000
  C   C378      1.0  0.63221  0.30631  0.14510  1.0000
  C   C379      1.0  0.70621  0.29348  0.15086  1.0000
  C   C380      1.0  0.69376  0.35632  0.20944  1.0000
  C   C381      1.0  0.73108  0.41112  0.16122  1.0000
  H   H662      1.0  0.63398  0.18310  0.30319  1.0000
  C   C382      1.0  0.59615  0.27268  0.14769  1.0000
  C   C383      1.0  0.73180  0.28846  0.13549  1.0000
  C   C384      1.0  0.71946  0.36991  0.22990  1.0000
  H   H663      1.0  0.74152  0.35057  0.15115  1.0000
  H   H664      1.0  0.70588  0.33723  0.13129  1.0000
  H   H665      1.0  0.68593  0.37591  0.14024  1.0000
  C   C385      1.0  0.59812  0.17506  0.26282  1.0000
  H   H666      1.0  0.73870  0.36436  0.18874  1.0000
  H   H667      1.0  0.70817  0.31946  0.19513  1.0000
  H   H668      1.0  0.65196  0.28855  0.17471  1.0000
  H   H669      1.0  0.63980  0.32182  0.18030  1.0000
  H   H670      1.0  0.64598  0.30210  0.13062  1.0000
  H   H671      1.0  0.62735  0.32917  0.14054  1.0000
  H   H672      1.0  0.71016  0.28594  0.16857  1.0000
  H   H673      1.0  0.67875  0.27421  0.14529  1.0000
  H   H674      1.0  0.66873  0.33284  0.21528  1.0000
  H   H675      1.0  0.68762  0.37786  0.20418  1.0000
  H   H676      1.0  0.73778  0.41758  0.17964  1.0000
  H   H677      1.0  0.75224  0.40701  0.15361  1.0000
  N   N21       1.0  0.61179  0.20655  0.27879  1.0000
  H   H678      1.0  0.60864  0.29320  0.33371  1.0000
  H   H679      1.0  0.74256  0.39634  0.22562  1.0000
  H   H680      1.0  0.59968  0.24871  0.15111  1.0000
  H   H681      1.0  0.58128  0.27560  0.16208  1.0000
  H   H682      1.0  0.58017  0.26837  0.13166  1.0000
  H   H683      1.0  0.75973  0.30537  0.14139  1.0000
  H   H684      1.0  0.70564  0.37335  0.24469  1.0000
  H   H685      1.0  0.72916  0.35068  0.23480  1.0000
  C   C386      1.0  0.68997  0.16145  0.30425  1.0000
  H   H686      1.0  0.64976  0.17945  0.25281  1.0000
  C   C387      1.0  0.79957  0.09467  0.05394  1.0000
  C   C388      1.0  0.81161  0.35495  0.25704  1.0000
  H   H687      1.0  0.74770  0.41244  0.32055  1.0000
  H   H688      1.0  0.66515  0.43466  0.18147  1.0000
  C   C389      1.0  0.51735  0.32713  0.30458  1.0000
  C   C390      1.0  0.62331  0.15893  0.25896  1.0000
  C   C391      1.0  0.52449  0.21418  0.28395  1.0000
  H   H689      1.0  0.59163  0.18268  0.24565  1.0000
  C   C392      1.0  0.69704  0.44448  0.23637  1.0000
  H   H690      1.0  0.66890  0.22797  0.27744  1.0000
  H   H691      1.0  0.57281  0.15251  0.26917  1.0000
  H   H692      1.0  0.64964  0.23398  0.25156  1.0000
  H   H693      1.0  0.66732  0.41151  0.26508  1.0000
  H   H694      1.0  0.75810  0.46771  0.15221  1.0000
  H   H695      1.0  0.72716  0.43967  0.13053  1.0000
  C   C393      1.0  0.61431  0.19313  0.30264  1.0000
  H   H696      1.0  0.58874  0.16935  0.30742  1.0000
  S   S83       1.0  0.48700  0.29410  0.28589  1.0000
  H   H697      1.0  0.84587  0.40670  0.22820  1.0000
  H   H698      1.0  0.78089  0.07313  0.00845  1.0000
  H   H699      1.0  0.58419  0.22992  0.25937  1.0000
  H   H700      1.0  0.53443  0.17181  0.27402  1.0000
  C   C394      1.0  0.79375  0.40276  0.31795  1.0000
  H   H701      1.0  0.71913  0.47281  0.20467  1.0000
  C   C395      1.0  0.58589  0.22125  0.27736  1.0000
  C   C396      1.0  0.54741  0.19553  0.28522  1.0000
  H   H702      1.0  0.47945  0.20139  0.33374  1.0000
  H   H703      1.0  0.64653  0.28466  0.26381  1.0000
  H   H704      1.0  0.79354  0.36439  0.24935  1.0000
  H   H705      1.0  0.79307  0.15692  0.05296  1.0000
  C   C397      1.0  0.88446  0.37072  0.22581  1.0000
  H   H706      1.0  0.90885  0.22544  0.06910  1.0000
  H   H707      1.0  0.87625  0.35293  0.24132  1.0000
  H   H708      1.0  0.71464  0.29041  0.28662  1.0000
  C   C398      1.0  0.84776  0.38686  0.26305  1.0000
  H   H709      1.0  0.77615  0.45413  0.08795  1.0000
  N   N22       1.0  0.89733  0.40925  0.23233  1.0000
  H   H710      1.0  0.79920  0.33918  0.27289  1.0000
  C   C399      1.0  0.90887  0.43167  0.21048  1.0000
  C   C400      1.0  0.77177  0.04360  0.12276  1.0000
  H   H711      1.0  0.84297  0.40290  0.27590  1.0000
  H   H712      1.0  0.97483  0.04739  0.16393  1.0000
  H   H713      1.0  0.81397  0.43047  0.31276  1.0000
  C   C401      1.0  0.91164  0.36335  0.21300  1.0000
  C   C402      1.0  0.92809  0.42026  0.24921  1.0000
  H   H714      1.0  0.82121  0.08218  0.10786  1.0000
  C   C403      1.0  0.50662  0.33019  0.32663  1.0000
  C   C404      1.0  0.77877  0.13638  0.06641  1.0000
  N   N23       1.0  0.79896  0.11676  0.07369  1.0000
  H   H715      1.0  0.49732  0.19550  0.29004  1.0000
  H   H716      1.0  0.73135  0.40651  0.27987  1.0000
  H   H717      1.0  0.80459  0.43413  0.09287  1.0000
  H   H718      1.0  0.60293  0.39306  0.30759  1.0000
  C   C405      1.0  0.57620  0.37566  0.31314  1.0000
  H   H719      1.0  0.93856  0.37772  0.22087  1.0000
  C   C406      1.0  0.62588  0.22080  0.32201  1.0000
  H   H720      1.0  0.77768  0.10586  0.10815  1.0000
  H   H721      1.0  0.70854  0.29397  0.25601  1.0000
  C   C407      1.0  0.75691  0.39740  0.30996  1.0000
  C   C408      1.0  0.90073  0.32344  0.21313  1.0000
  H   H722      1.0  0.73720  0.36849  0.31036  1.0000
  C   C409      1.0  0.89237  0.03207  0.01721  1.0000
  H   H723      1.0  0.78286  0.20489  0.06740  1.0000
  H   H724      1.0  0.80770  0.13399  0.02574  1.0000
  H   H725      1.0  0.89892  0.31289  0.23098  1.0000
  H   H726      1.0  0.84412  0.19623  0.07569  1.0000
  C   C410      1.0  0.75813  0.41083  0.28523  1.0000
  H   H727      1.0  0.76570  0.18208  0.31257  1.0000
  C   C411      1.0  0.76018  0.18295  0.07664  1.0000
  H   H728      1.0  0.83901  0.21022  0.29073  1.0000
  H   H729      1.0  0.85485  0.17821  0.05168  1.0000
  H   H730      1.0  0.77232  0.06107  0.13677  1.0000
  H   H731      1.0  0.75019  0.07359  0.08750  1.0000
  H   H732      1.0  0.60987  0.23492  0.32194  1.0000
  H   H733      1.0  0.74743  0.13493  0.09609  1.0000
  H   H734      1.0  0.79327  0.16863  0.09805  1.0000
  H   H735      1.0  0.92076  0.31929  0.20387  1.0000
  H   H736      1.0  0.90256  0.47807  0.22116  1.0000
  C   C412      1.0  0.70020  0.29765  0.27321  1.0000
  H   H737      1.0  0.81431  0.07990  0.05888  1.0000
  C   C413      1.0  0.89517  0.19888  0.07793  1.0000
  S   S84       1.0  0.81637  0.47185  0.23037  1.0000
  H   H738      1.0  0.91115  0.43882  0.27904  1.0000
  C   C414      1.0  0.81736  0.11514  0.03149  1.0000
  H   H739      1.0  0.73687  0.17028  0.06479  1.0000
  H   H740      1.0  0.94772  0.48519  0.22217  1.0000
  H   H741      1.0  0.89771  0.20319  0.09675  1.0000
  H   H742      1.0  0.90630  0.42816  0.33212  1.0000
  C   C415      1.0  0.79687  0.45363  0.09954  1.0000
  H   H743      1.0  0.63200  0.45468  0.29272  1.0000
  S   S85       1.0  0.73485  0.47112  0.25320  1.0000
  C   C416      1.0  0.85567  0.01906  0.01835  1.0000
  H   H744      1.0  0.52221  0.22223  0.26596  1.0000
  H   H745      1.0  0.84094  0.23617  0.32855  1.0000
  Fe  Fe41      1.0  0.95347  0.08671  0.08577  1.0000
  H   H746      1.0  0.79906  0.17143  0.32368  1.0000
  H   H747      1.0  0.80860  0.24752  0.31573  1.0000
  H   H748      1.0  0.96388  0.00082  0.04445  1.0000
  H   H749      1.0  0.97340  0.00976  0.13200  1.0000
  H   H750      1.0  0.75010  0.25992  0.32197  1.0000
  H   H751      1.0  0.58109  0.31454  0.33186  1.0000
  H   H752      1.0  0.65203  0.43800  0.32306  1.0000
  H   H753      1.0  0.49589  0.24739  0.32402  1.0000
  C   C417      1.0  0.69229  0.17062  0.32742  1.0000
  H   H754      1.0  0.97084  0.48083  0.29362  1.0000
  C   C418      1.0  0.71331  0.20641  0.33367  1.0000
  H   H755      1.0  0.90197  0.38385  0.33379  1.0000
  Fe  Fe42      1.0  0.87642  0.42002  0.41652  1.0000
  S   S86       1.0  0.85141  0.36587  0.39951  1.0000
  Fe  Fe43      1.0  0.64440  0.45205  0.43155  1.0000
  S   S87       1.0  0.60343  0.42557  0.45906  1.0000
  H   H756      1.0  0.71546  0.21370  0.35151  1.0000
  Fe  Fe44      1.0  0.59206  0.41366  0.39230  1.0000
  Fe  Fe45      1.0  0.56701  0.43619  0.43539  1.0000
  Fe  Fe46      1.0  0.58608  0.37573  0.43819  1.0000
  S   S88       1.0  0.57180  0.32209  0.45512  1.0000
  C   C419      1.0  0.50321  0.20869  0.37843  1.0000
  S   S89       1.0  0.63007  0.40158  0.41288  1.0000
  Fe  Fe47      1.0  0.68678  0.18780  0.42897  1.0000
  S   S90       1.0  0.67363  0.20456  0.39489  1.0000
  S   S91       1.0  0.73155  0.22885  0.45058  1.0000
  Fe  Fe48      1.0  0.62198  0.11274  0.42891  1.0000
  S   S92       1.0  0.60393  0.12458  0.39461  1.0000
  S   S93       1.0  0.58287  0.05683  0.44319  1.0000
  Fe  Fe49      1.0  0.66078  0.14954  0.38389  1.0000
  S   S94       1.0  0.66966  0.13635  0.34798  1.0000
  Fe  Fe50      1.0  0.61816  0.17856  0.40815  1.0000
  S   S95       1.0  0.58335  0.20346  0.39916  1.0000
  S   S96       1.0  0.67851  0.13405  0.41715  1.0000
  S   S97       1.0  0.63164  0.16542  0.44320  1.0000
  C   C420      1.0  0.57927  0.03157  0.46881  1.0000
  C   C421      1.0  0.53233  0.12921  0.53653  1.0000
  H   H757      1.0  0.69861  0.02450  0.47007  1.0000
  C   C422      1.0  0.54928  0.99758  0.47148  1.0000
  H   H758      1.0  0.54090  0.07117  0.54208  1.0000
  C   C423      1.0  0.60486  0.04422  0.48646  1.0000
  H   H759      1.0  0.50060  0.06194  0.50430  1.0000
  S   S98       1.0  0.54656  0.38407  0.41636  1.0000
  H   H760      1.0  0.62820  0.07018  0.48463  1.0000
  H   H761      1.0  0.54774  0.15883  0.50407  1.0000
  H   H762      1.0  0.49889  0.14913  0.40177  1.0000
  H   H763      1.0  0.73825  0.35146  0.37463  1.0000
  S   S99       1.0  0.89186  0.43325  0.45361  1.0000
  C   C424      1.0  0.50944  0.01662  0.53190  1.0000
  H   H764      1.0  0.52227  0.35820  0.35892  1.0000
  H   H765      1.0  0.79114  0.41100  0.37683  1.0000
  C   C425      1.0  0.57938  0.29068  0.44059  1.0000
  C   C426      1.0  0.56508  0.25561  0.44950  1.0000
  C   C427      1.0  0.56839  0.22916  0.43754  1.0000
  C   C428      1.0  0.58667  0.23783  0.41681  1.0000
  C   C429      1.0  0.60222  0.27322  0.40834  1.0000
  C   C430      1.0  0.59851  0.29959  0.42017  1.0000
  C   C431      1.0  0.83725  0.40812  0.34739  1.0000
  H   H766      1.0  0.55569  0.20177  0.44393  1.0000
  H   H767      1.0  0.61617  0.27999  0.39223  1.0000
  H   H768      1.0  0.60965  0.32650  0.41317  1.0000
  C   C432      1.0  0.71898  0.30066  0.35849  1.0000
  C   C433      1.0  0.81666  0.32889  0.41364  1.0000
  C   C434      1.0  0.79541  0.29763  0.40131  1.0000
  C   C435      1.0  0.76853  0.26719  0.41235  1.0000
  C   C436      1.0  0.76320  0.26758  0.43592  1.0000
  C   C437      1.0  0.78420  0.29898  0.44820  1.0000
  C   C438      1.0  0.81060  0.32970  0.43704  1.0000
  H   H769      1.0  0.80017  0.29669  0.38326  1.0000
  H   H770      1.0  0.75292  0.24296  0.40281  1.0000
  H   H771      1.0  0.78039  0.29933  0.46645  1.0000
  H   H772      1.0  0.82714  0.35358  0.44667  1.0000
  C   C439      1.0  0.56575  0.37862  0.33532  1.0000
  H   H773      1.0  0.53531  0.13419  0.43081  1.0000
  C   C440      1.0  0.73288  0.47103  0.46789  1.0000
  S   S100      1.0  0.52875  0.45755  0.44397  1.0000
  C   C441      1.0  0.65246  0.17544  0.51023  1.0000
  C   C442      1.0  0.51877  0.47008  0.47063  1.0000
  C   C443      1.0  0.78779  0.41730  0.35852  1.0000
  H   H774      1.0  0.53501  0.09169  0.42866  1.0000
  C   C444      1.0  0.79003  0.47260  0.46340  1.0000
  H   H775      1.0  0.51510  0.31009  0.39442  1.0000
  H   H776      1.0  0.66923  0.20504  0.50913  1.0000
  H   H777      1.0  0.66181  0.16345  0.49712  1.0000
  H   H778      1.0  0.51272  0.20165  0.36287  1.0000
  C   C445      1.0  0.77747  0.35642  0.34930  1.0000
  S   S101      1.0  0.59710  0.41169  0.35370  1.0000
  H   H779      1.0  0.79068  0.35000  0.36409  1.0000
  H   H780      1.0  0.75928  0.40943  0.35648  1.0000
  S   S102      1.0  0.60952  0.46644  0.40923  1.0000
  C   C446      1.0  0.52951  0.07024  0.50445  1.0000
  C   C447      1.0  0.52976  0.48367  0.51137  1.0000
  S   S103      1.0  0.84496  0.44933  0.41337  1.0000
  N   N24       1.0  0.70155  0.35780  0.46766  1.0000
  C   C448      1.0  0.74027  0.36841  0.47189  1.0000
  C   C449      1.0  0.69704  0.37669  0.44639  1.0000
  C   C450      1.0  0.68908  0.36990  0.48804  1.0000
  C   C451      1.0  0.67886  0.31781  0.46588  1.0000
  C   C452      1.0  0.68829  0.29996  0.44644  1.0000
  C   C453      1.0  0.74859  0.34913  0.49222  1.0000
  C   C454      1.0  0.65073  0.36484  0.48627  1.0000
  C   C455      1.0  0.72355  0.38530  0.42652  1.0000
  C   C456      1.0  0.71233  0.39959  0.40534  1.0000
  C   C457      1.0  0.66841  0.25927  0.44930  1.0000
  C   C458      1.0  0.78869  0.36544  0.49627  1.0000
  C   C459      1.0  0.64330  0.38327  0.50595  1.0000
  H   H781      1.0  0.75569  0.39778  0.47464  1.0000
  H   H782      1.0  0.75244  0.36363  0.45672  1.0000
  H   H783      1.0  0.66956  0.36122  0.43920  1.0000
  H   H784      1.0  0.69972  0.40319  0.45084  1.0000
  H   H785      1.0  0.70742  0.39875  0.49125  1.0000
  H   H786      1.0  0.68969  0.35531  0.50398  1.0000
  H   H787      1.0  0.67909  0.30437  0.48251  1.0000
  H   H788      1.0  0.65053  0.31066  0.46280  1.0000
  H   H789      1.0  0.71704  0.30828  0.44619  1.0000
  H   H790      1.0  0.68016  0.30678  0.42960  1.0000
  H   H791      1.0  0.73715  0.35131  0.50853  1.0000
  H   H792      1.0  0.73806  0.32029  0.48843  1.0000
  H   H793      1.0  0.63102  0.33592  0.48734  1.0000
  H   H794      1.0  0.64598  0.37621  0.47004  1.0000
  H   H795      1.0  0.75044  0.40643  0.43187  1.0000
  H   H796      1.0  0.72561  0.36147  0.42144  1.0000
  H   H797      1.0  0.73245  0.40708  0.39183  1.0000
  H   H798      1.0  0.71035  0.42390  0.40959  1.0000
  H   H799      1.0  0.63942  0.24922  0.45061  1.0000
  H   H800      1.0  0.67334  0.24704  0.43420  1.0000
  H   H801      1.0  0.67797  0.25082  0.46496  1.0000
  H   H802      1.0  0.79419  0.34989  0.50988  1.0000
  H   H803      1.0  0.80217  0.36502  0.48036  1.0000
  H   H804      1.0  0.80003  0.39364  0.50190  1.0000
  H   H805      1.0  0.66130  0.41269  0.50510  1.0000
  H   H806      1.0  0.61544  0.37839  0.50448  1.0000
  H   H807      1.0  0.64683  0.37246  0.52280  1.0000
  N   N25       1.0  0.55105  0.11018  0.49964  1.0000
  C   C460      1.0  0.58917  0.12414  0.50764  1.0000
  C   C461      1.0  0.57049  0.98888  0.50905  1.0000
  C   C462      1.0  0.55169  0.11607  0.47388  1.0000
  H   H808      1.0  0.56993  0.25005  0.36242  1.0000
  H   H809      1.0  0.49399  0.09355  0.42628  1.0000
  C   C463      1.0  0.61352  0.16538  0.50576  1.0000
  C   C464      1.0  0.62165  0.20270  0.34554  1.0000
  C   C465      1.0  0.66929  0.01035  0.46760  1.0000
  C   C466      1.0  0.60055  0.02288  0.50639  1.0000
  H   H810      1.0  0.55111  0.28675  0.38264  1.0000
  C   C467      1.0  0.80870  0.45859  0.35532  1.0000
  C   C468      1.0  0.76087  0.46596  0.47698  1.0000
  H   H811      1.0  0.60155  0.11067  0.49803  1.0000
  H   H812      1.0  0.59098  0.11722  0.52592  1.0000
  C   C469      1.0  0.53788  0.47220  0.49089  1.0000
  C   C470      1.0  0.85208  0.38485  0.33681  1.0000
  H   H813      1.0  0.56799  0.10549  0.46586  1.0000
  H   H814      1.0  0.56457  0.14509  0.46936  1.0000
  C   C471      1.0  0.51518  0.09911  0.46109  1.0000
  C   C472      1.0  0.52139  0.15615  0.54508  1.0000
  H   H815      1.0  0.49893  0.11144  0.46648  1.0000
  Fe  Fe51      1.0  0.93972  0.48293  0.44021  1.0000
  H   H816      1.0  0.61201  0.17648  0.48866  1.0000
  H   H817      1.0  0.60583  0.17907  0.51867  1.0000
  H   H818      1.0  0.69174  0.29092  0.36512  1.0000
  C   C473      1.0  0.47730  0.14278  0.38882  1.0000
  H   H819      1.0  0.67774  0.37686  0.35558  1.0000
  H   H820      1.0  0.54150  0.18397  0.54030  1.0000
  N   N26       1.0  0.79820  0.39597  0.34310  1.0000
  C   C474      1.0  0.52028  0.10510  0.43515  1.0000
  H   H821      1.0  0.63707  0.18789  0.34670  1.0000
  H   H822      1.0  0.71677  0.28925  0.34122  1.0000
  H   H823      1.0  0.68188  0.43648  0.35803  1.0000
  H   H824      1.0  0.55899  0.46514  0.49076  1.0000
  C   C475      1.0  0.69025  0.42957  0.34187  1.0000
  H   H825      1.0  0.64164  0.37842  0.34012  1.0000
  C   C476      1.0  0.53448  0.27321  0.36730  1.0000
  C   C477      1.0  0.53079  0.35576  0.34204  1.0000
  C   C478      1.0  0.53817  0.05508  0.52685  1.0000
  H   H826      1.0  0.59324  0.18373  0.34893  1.0000
  H   H827      1.0  0.52995  0.29406  0.35828  1.0000
  H   H828      1.0  0.83691  0.46844  0.36011  1.0000
  H   H829      1.0  0.48412  0.01599  0.53635  1.0000
  C   C479      1.0  0.73845  0.34165  0.35715  1.0000
  C   C480      1.0  0.49139  0.47935  0.47121  1.0000
  H   H830      1.0  0.52406  0.21411  0.39176  1.0000
  S   S104      1.0  0.92642  0.46683  0.40305  1.0000
  Fe  Fe52      1.0  0.86334  0.46601  0.44937  1.0000
  N   N27       1.0  0.49937  0.24193  0.37457  1.0000
  H   H831      1.0  0.76007  0.45702  0.49462  1.0000
  H   H832      1.0  0.50840  0.25154  0.41111  1.0000
  H   H833      1.0  0.84319  0.40967  0.36617  1.0000
  H   H834      1.0  0.55028  0.24862  0.46529  1.0000
  H   H835      1.0  0.79953  0.22333  0.34275  1.0000
  H   H836      1.0  0.79738  0.47100  0.38924  1.0000
  S   S105      1.0  0.82372  0.46400  0.47489  1.0000
  H   H837      1.0  0.63168  0.22340  0.35901  1.0000
  H   H838      1.0  0.68629  0.37879  0.39859  1.0000
  H   H839      1.0  0.56371  0.05477  0.52491  1.0000
  H   H840      1.0  0.65601  0.16606  0.52760  1.0000
  H   H841      1.0  0.53311  0.05488  0.49045  1.0000
  H   H842      1.0  0.62073  0.03269  0.51981  1.0000
  H   H843      1.0  0.51804  0.00528  0.54662  1.0000
  H   H844      1.0  0.89874  0.40469  0.35947  1.0000
  C   C481      1.0  0.53409  0.13028  0.51003  1.0000
  C   C482      1.0  0.79486  0.47738  0.37093  1.0000
  H   H845      1.0  0.49801  0.29420  0.43516  1.0000
  H   H846      1.0  0.65807  0.02424  0.47770  1.0000
  H   H847      1.0  0.77769  0.33990  0.33484  1.0000
  H   H848      1.0  0.55826  0.13563  0.54472  1.0000
  C   C483      1.0  0.67083  0.38869  0.34038  1.0000
  H   H849      1.0  0.66317  0.01193  0.44909  1.0000
  C   C484      1.0  0.48867  0.28698  0.39820  1.0000
  H   H850      1.0  0.85381  0.43577  0.34057  1.0000
  H   H851      1.0  0.76664  0.46920  0.36710  1.0000
  H   H852      1.0  0.52921  0.98754  0.45800  1.0000
  H   H853      1.0  0.83976  0.35757  0.34475  1.0000
  H   H854      1.0  0.72300  0.35020  0.34559  1.0000
  H   H855      1.0  0.54489  0.24874  0.33714  1.0000
  H   H856      1.0  0.71068  0.46629  0.47854  1.0000
  H   H857      1.0  0.73322  0.29076  0.37034  1.0000
  C   C485      1.0  0.48953  0.25089  0.39732  1.0000
  H   H858      1.0  0.71895  0.43823  0.34276  1.0000
  C   C486      1.0  0.73435  0.48362  0.44529  1.0000
  H   H859      1.0  0.51937  0.15416  0.56410  1.0000
  C   C487      1.0  0.47797  0.29234  0.42204  1.0000
  H   H860      1.0  0.49993  0.06974  0.46423  1.0000
  C   C488      1.0  0.89222  0.40153  0.34080  1.0000
  C   C489      1.0  0.55903  0.26506  0.35218  1.0000
  H   H861      1.0  0.51191  0.10221  0.54245  1.0000
  H   H862      1.0  0.60563  0.31688  0.35809  1.0000
  H   H863      1.0  0.50616  0.11948  0.50381  1.0000
  H   H864      1.0  0.50476  0.99940  0.51683  1.0000
  H   H865      1.0  0.49510  0.15052  0.53771  1.0000
  H   H866      1.0  0.48556  0.13694  0.37224  1.0000
  H   H867      1.0  0.80696  0.46690  0.33732  1.0000
  C   C490      1.0  0.59054  0.29961  0.34345  1.0000
  H   H868      1.0  0.54470  0.48519  0.52693  1.0000
  H   H869      1.0  0.94619  0.08083  0.89727  1.0000
  H   H870      1.0  0.94407  0.15637  0.96592  1.0000
  C   C491      1.0  0.90005  0.10539  0.97445  1.0000
  C   C492      1.0  0.91683  0.10474  0.88181  1.0000
  H   H871      1.0  0.95486  0.15342  0.91207  1.0000
  S   S106      1.0  0.93190  0.02708  0.84109  1.0000
  H   H872      1.0  0.83267  0.98584  0.96403  1.0000
  S   S107      1.0  0.90690  0.00844  0.95295  1.0000
  H   H873      1.0  0.93783  0.08549  0.94923  1.0000
  C   C493      1.0  0.90746  0.02831  0.99705  1.0000
  C   C494      1.0  0.84935  0.99868  0.97881  1.0000
  H   H874      1.0  0.88279  0.11748  0.97798  1.0000
  H   H875      1.0  0.91641  0.13227  0.94180  1.0000
  H   H876      1.0  0.82254  0.10476  0.99585  1.0000
  H   H877      1.0  0.90142  0.11820  0.88688  1.0000
  H   H878      1.0  0.96829  0.11396  0.96986  1.0000
  C   C495      1.0  0.96537  0.13403  0.91189  1.0000
  H   H879      1.0  0.93660  0.12169  0.86877  1.0000
  C   C496      1.0  0.88605  0.01157  0.97783  1.0000
  C   C497      1.0  0.93517  0.09811  0.90283  1.0000
  H   H880      1.0  0.89831  0.07887  0.87376  1.0000
  C   C498      1.0  0.96572  0.06988  0.84860  1.0000
  C   C499      1.0  0.92940  0.12967  0.95791  1.0000
  H   H881      1.0  0.95073  0.09601  0.82178  1.0000
  C   C500      1.0  0.95482  0.11418  0.95328  1.0000
  H   H882      1.0  0.91431  0.08332  0.91570  1.0000
  H   H883      1.0  0.93588  0.03846  0.99638  1.0000
  S   S108      1.0  0.86030  0.00296  0.88990  1.0000
  Fe  Fe53      1.0  0.89671  0.99099  0.86911  1.0000
  H   H884      1.0  0.91156  0.10190  0.99101  1.0000
  C   C501      1.0  0.96957  0.09953  0.83550  1.0000
  H   H885      1.0  0.96569  0.06093  0.92514  1.0000
  H   H886      1.0  0.88322  0.07866  0.96680  1.0000
  C   C502      1.0  0.83421  0.00254  0.99905  1.0000
  H   H887      1.0  0.97374  0.99941  0.81611  1.0000
  H   H888      1.0  0.80580  0.99248  0.99980  1.0000
  H   H889      1.0  0.75932  0.53989  0.28843  1.0000
  Fe  Fe54      1.0  0.93619  0.83366  0.09273  1.0000
  S   S109      1.0  0.89138  0.84732  0.09339  1.0000
  H   H890      1.0  0.92602  0.93401  0.15571  1.0000
  S   S110      1.0  0.92474  0.78405  0.07355  1.0000
  S   S111      1.0  0.89560  0.50738  0.26968  1.0000
  S   S112      1.0  0.79718  0.52597  0.19876  1.0000
  Fe  Fe55      1.0  0.83108  0.49927  0.19613  1.0000
  Fe  Fe56      1.0  0.86315  0.52100  0.24404  1.0000
  S   S113      1.0  0.88126  0.54616  0.20891  1.0000
  H   H891      1.0  0.92965  0.64970  0.13397  1.0000
  Fe  Fe57      1.0  0.84652  0.57168  0.21391  1.0000
  S   S114      1.0  0.86119  0.62982  0.20485  1.0000
  H   H892      1.0  0.82944  0.74363  0.18370  1.0000
  S   S115      1.0  0.83237  0.55011  0.25035  1.0000
  C   C503      1.0  0.82352  0.81545  0.13799  1.0000
  H   H893      1.0  0.79143  0.68913  0.14510  1.0000
  S   S116      1.0  0.90213  0.98428  0.14159  1.0000
  H   H894      1.0  0.80901  0.66358  0.17882  1.0000
  H   H895      1.0  0.80935  0.50904  0.12712  1.0000
  C   C504      1.0  0.88335  0.53891  0.30687  1.0000
  C   C505      1.0  0.89520  0.51566  0.29918  1.0000
  H   H896      1.0  0.70099  0.52671  0.29435  1.0000
  H   H897      1.0  0.87444  0.55252  0.29459  1.0000
  H   H898      1.0  0.78844  0.68114  0.19773  1.0000
  C   C506      1.0  0.92144  0.69459  0.14077  1.0000
  C   C507      1.0  0.90882  0.70957  0.15676  1.0000
  C   C508      1.0  0.89136  0.68987  0.17667  1.0000
  C   C509      1.0  0.88658  0.65511  0.18089  1.0000
  C   C510      1.0  0.90109  0.64103  0.16563  1.0000
  C   C511      1.0  0.91834  0.66065  0.14566  1.0000
  H   H899      1.0  0.91243  0.73619  0.15369  1.0000
  H   H900      1.0  0.88139  0.70147  0.18888  1.0000
  H   H901      1.0  0.89896  0.61504  0.16935  1.0000
  C   C512      1.0  0.78793  0.67158  0.18009  1.0000
  C   C513      1.0  0.89979  0.94675  0.12784  1.0000
  C   C514      1.0  0.88405  0.93678  0.10607  1.0000
  C   C515      1.0  0.88224  0.90664  0.09545  1.0000
  C   C516      1.0  0.89730  0.88704  0.10611  1.0000
  C   C517      1.0  0.91354  0.89733  0.12773  1.0000
  C   C518      1.0  0.91416  0.92666  0.13877  1.0000
  S   S117      1.0  0.96324  0.82064  0.12218  1.0000
  H   H902      1.0  0.86901  0.89845  0.07892  1.0000
  H   H903      1.0  0.92457  0.88197  0.13623  1.0000
  C   C519      1.0  0.85383  0.73124  0.11820  1.0000
  C   C520      1.0  0.84231  0.71483  0.09444  1.0000
  H   H904      1.0  0.88295  0.74951  0.11791  1.0000
  H   H905      1.0  0.84619  0.73580  0.08131  1.0000
  H   H906      1.0  0.85860  0.70212  0.08971  1.0000
  H   H907      1.0  0.81389  0.69404  0.09444  1.0000
  N   N28       1.0  0.84927  0.55722  0.11037  1.0000
  H   H908      1.0  0.84867  0.70899  0.13048  1.0000
  C   C521      1.0  0.83334  0.57982  0.11863  1.0000
  C   C522      1.0  0.87838  0.56074  0.12696  1.0000
  C   C523      1.0  0.90940  0.55610  0.11737  1.0000
  C   C524      1.0  0.88832  0.61085  0.08355  1.0000
  C   C525      1.0  0.81573  0.56974  0.14259  1.0000
  H   H909      1.0  0.93922  0.81509  0.18079  1.0000
  C   C526      1.0  0.90834  0.61977  0.06093  1.0000
  C   C527      1.0  0.80423  0.59691  0.14990  1.0000
  H   H910      1.0  0.81314  0.57933  0.10600  1.0000
  H   H911      1.0  0.85417  0.60840  0.11988  1.0000
  H   H912      1.0  0.89138  0.58760  0.13471  1.0000
  H   H913      1.0  0.86678  0.54189  0.14182  1.0000
  H   H914      1.0  0.91468  0.52641  0.14689  1.0000
  C   C528      1.0  0.86252  0.56998  0.08633  1.0000
  H   H915      1.0  0.87314  0.62596  0.08355  1.0000
  H   H916      1.0  0.90810  0.62097  0.09780  1.0000
  H   H917      1.0  0.83452  0.56916  0.15583  1.0000
  H   H918      1.0  0.79146  0.54320  0.14243  1.0000
  H   H919      1.0  0.92561  0.64927  0.05933  1.0000
  C   C529      1.0  0.82985  0.73472  0.16599  1.0000
  H   H920      1.0  0.94087  0.85247  0.16437  1.0000
  Fe  Fe58      1.0  0.95571  0.77344  0.10157  1.0000
  C   C530      1.0  0.88417  0.54553  0.33048  1.0000
  H   H921      1.0  0.78334  0.59645  0.13805  1.0000
  H   H922      1.0  0.79337  0.59014  0.16754  1.0000
  H   H923      1.0  0.82717  0.62444  0.15005  1.0000
  H   H924      1.0  0.80926  0.54816  0.32944  1.0000
  H   H925      1.0  0.92747  0.58027  0.10722  1.0000
  H   H926      1.0  0.81659  0.78859  0.17122  1.0000
  H   H927      1.0  0.90032  0.53288  0.10599  1.0000
  H   H928      1.0  0.85137  0.83658  0.14023  1.0000
  H   H929      1.0  0.77132  0.70713  0.16378  1.0000
  H   H930      1.0  0.80962  0.52935  0.30199  1.0000
  H   H931      1.0  0.94188  0.57460  0.14859  1.0000
  C   C531      1.0  0.92795  0.83377  0.17899  1.0000
  H   H932      1.0  0.80636  0.85561  0.13366  1.0000
  C   C532      1.0  0.80294  0.54814  0.31083  1.0000
  H   H933      1.0  0.96888  0.95108  0.00746  1.0000
  C   C533      1.0  0.82956  0.49072  0.10073  1.0000
  C   C534      1.0  0.73972  0.49771  0.31509  1.0000
  C   C535      1.0  0.90769  0.49898  0.31526  1.0000
  H   H934      1.0  0.93422  0.84959  0.19492  1.0000
  C   C536      1.0  0.81563  0.78163  0.15282  1.0000
  H   H935      1.0  0.83965  0.56353  0.07434  1.0000
  H   H936      1.0  0.81964  0.57555  0.30365  1.0000
  C   C537      1.0  0.81981  0.51885  0.10963  1.0000
  H   H937      1.0  0.79703  0.51718  0.09906  1.0000
  H   H938      1.0  0.96312  0.96766  0.10450  1.0000
  H   H939      1.0  0.78741  0.76182  0.14924  1.0000
  H   H940      1.0  0.85069  0.72629  0.16660  1.0000
  H   H941      1.0  0.65037  0.53116  0.27729  1.0000
  H   H942      1.0  0.80528  0.73575  0.12037  1.0000
  H   H943      1.0  0.77144  0.81187  0.14203  1.0000
  C   C538      1.0  0.79341  0.70076  0.16222  1.0000
  H   H944      1.0  0.87730  0.83230  0.17526  1.0000
  H   H945      1.0  0.81856  0.80885  0.11950  1.0000
  N   N29       1.0  0.83935  0.76521  0.14891  1.0000
  C   C539      1.0  0.93134  0.55137  0.13690  1.0000
  H   H946      1.0  0.87583  0.55545  0.07951  1.0000
  C   C540      1.0  0.88768  0.81287  0.17530  1.0000
  C   C541      1.0  0.79996  0.83152  0.14463  1.0000
  H   H947      1.0  0.75756  0.55588  0.31641  1.0000
  C   C542      1.0  0.87800  0.79224  0.15238  1.0000
  H   H948      1.0  0.69578  0.53072  0.33292  1.0000
  Fe  Fe59      1.0  0.78646  0.50223  0.23445  1.0000
  H   H949      1.0  0.87659  0.79450  0.19029  1.0000
  H   H950      1.0  0.92546  0.60680  0.06046  1.0000
  H   H951      1.0  0.84363  0.77536  0.11220  1.0000
  H   H952      1.0  0.88764  0.81236  0.13806  1.0000
  H   H953      1.0  0.89466  0.77883  0.15154  1.0000
  C   C543      1.0  0.76365  0.53707  0.30712  1.0000
  H   H954      1.0  0.76178  0.64751  0.17712  1.0000
  C   C544      1.0  0.63751  0.50166  0.27520  1.0000
  H   H955      1.0  0.87235  0.95170  0.09766  1.0000
  C   C545      1.0  0.83408  0.75227  0.12453  1.0000
  H   H956      1.0  0.88940  0.61073  0.04613  1.0000
  H   H957      1.0  0.80483  0.83992  0.16284  1.0000
  S   S118      1.0  0.93962  0.71606  0.11401  1.0000
  H   H958      1.0  0.95408  0.54936  0.12977  1.0000
  H   H959      1.0  0.93589  0.97174  0.06688  1.0000
  H   H960      1.0  0.84099  0.49776  0.08331  1.0000
  C   C546      1.0  0.68748  0.49706  0.29680  1.0000
  H   H961      1.0  0.63731  0.49009  0.31144  1.0000
  H   H962      1.0  0.93857  0.51987  0.19092  1.0000
  H   H963      1.0  0.60826  0.49099  0.27427  1.0000
  H   H964      1.0  0.64619  0.49561  0.25883  1.0000
  H   H965      1.0  0.96748  0.96169  0.05353  1.0000
  C   C547      1.0  0.96288  0.98368  0.05945  1.0000
  C   C548      1.0  0.92868  0.49068  0.18893  1.0000
  N   N30       1.0  0.70108  0.48695  0.31845  1.0000
  H   H966      1.0  0.69402  0.48648  0.28147  1.0000
  H   H967      1.0  0.75173  0.49285  0.33091  1.0000
  S   S119      1.0  0.97670  0.81278  0.01761  1.0000
  Fe  Fe60      1.0  0.97665  0.81855  0.05621  1.0000
  H   H968      1.0  0.94883  0.48690  0.17954  1.0000
  H   H969      1.0  0.84858  0.48801  0.11279  1.0000
  H   H970      1.0  0.95218  0.88527  0.00562  1.0000
  H   H971      1.0  0.73037  0.53896  0.39274  1.0000
  H   H972      1.0  0.57675  0.63004  0.52653  1.0000
  H   H973      1.0  0.93578  0.57721  0.51234  1.0000
  H   H974      1.0  0.56883  0.64956  0.49181  1.0000
  C   C549      1.0  0.57982  0.58942  0.54740  1.0000
  H   H975      1.0  0.53336  0.75307  0.63629  1.0000
  H   H976      1.0  0.57108  0.56022  0.54728  1.0000
  S   S120      1.0  0.89601  0.53676  0.37607  1.0000
  H   H977      1.0  0.87545  0.56394  0.33632  1.0000
  H   H978      1.0  0.62450  0.91509  0.39362  1.0000
  Fe  Fe61      1.0  0.52345  0.90496  0.54206  1.0000
  H   H979      1.0  0.57835  0.63654  0.61829  1.0000
  H   H980      1.0  0.53057  0.76790  0.47269  1.0000
  H   H981      1.0  0.58172  0.90962  0.65678  1.0000
  C   C550      1.0  0.56506  0.78078  0.56600  1.0000
  C   C551      1.0  0.50901  0.92992  0.65549  1.0000
  H   H982      1.0  0.72303  0.49132  0.36629  1.0000
  H   H983      1.0  0.64087  0.85919  0.51329  1.0000
  S   S121      1.0  0.49256  0.79672  0.49589  1.0000
  S   S122      1.0  0.53815  0.86078  0.54753  1.0000
  H   H984      1.0  0.52155  0.95053  0.49331  1.0000
  H   H985      1.0  0.91775  0.49223  0.35116  1.0000
  S   S123      1.0  0.56695  0.96234  0.53403  1.0000
  H   H986      1.0  0.54485  0.71926  0.48292  1.0000
  C   C552      1.0  0.52559  0.59144  0.45159  1.0000
  C   C553      1.0  0.54531  0.86616  0.63539  1.0000
  C   C554      1.0  0.52163  0.82943  0.63443  1.0000
  C   C555      1.0  0.51928  0.67174  0.61619  1.0000
  H   H987      1.0  0.54988  0.88293  0.62020  1.0000
  H   H988      1.0  0.62902  0.71848  0.47342  1.0000
  H   H989      1.0  0.76586  0.50222  0.41472  1.0000
  C   C556      1.0  0.89632  0.52855  0.34656  1.0000
  H   H990      1.0  0.62676  0.61256  0.46830  1.0000
  H   H991      1.0  0.54619  0.77898  0.59998  1.0000
  H   H992      1.0  0.63881  0.57016  0.44565  1.0000
  H   H993      1.0  0.57077  0.74867  0.62915  1.0000
  C   C557      1.0  0.51618  0.70527  0.51464  1.0000
  H   H994      1.0  0.96442  0.59041  0.45180  1.0000
  N   N31       1.0  0.57689  0.60560  0.48104  1.0000
  C   C558      1.0  0.59820  0.59960  0.46311  1.0000
  C   C559      1.0  0.51603  0.80790  0.65422  1.0000
  H   H995      1.0  0.61291  0.60321  0.50700  1.0000
  C   C560      1.0  0.55307  0.63661  0.62188  1.0000
  H   H996      1.0  0.60222  0.95874  0.48728  1.0000
  H   H997      1.0  0.60917  0.60450  0.54953  1.0000
  H   H998      1.0  0.54388  0.86449  0.47546  1.0000
  H   H999      1.0  0.57251  0.56296  0.50414  1.0000
  H   H1000     1.0  0.56147  0.67436  0.59444  1.0000
  C   C561      1.0  0.58388  0.59265  0.50399  1.0000
  C   C562      1.0  0.53804  0.90100  0.45257  1.0000
  H   H1001     1.0  0.66025  0.72672  0.49679  1.0000
  C   C563      1.0  0.56814  0.60106  0.52521  1.0000
  H   H1002     1.0  0.81453  0.49192  0.43054  1.0000
  H   H1003     1.0  0.59269  0.78989  0.57227  1.0000
  H   H1004     1.0  0.58977  0.54587  0.47392  1.0000
  S   S124      1.0  0.52803  0.67195  0.52165  1.0000
  H   H1005     1.0  0.93948  0.54486  0.49487  1.0000
  H   H1006     1.0  0.56763  0.59479  0.56235  1.0000
  C   C564      1.0  0.62601  0.67031  0.48980  1.0000
  H   H1007     1.0  0.61208  0.86229  0.53436  1.0000
  C   C565      1.0  0.53763  0.58499  0.47579  1.0000
  H   H1008     1.0  0.54874  0.93002  0.44882  1.0000
  H   H1009     1.0  0.48513  0.88804  0.44018  1.0000
  H   H1010     1.0  0.58529  0.65464  0.46376  1.0000
  H   H1011     1.0  0.74850  0.53536  0.35414  1.0000
  H   H1012     1.0  0.52794  0.55586  0.47814  1.0000
  H   H1013     1.0  0.52263  0.59156  0.48834  1.0000
  C   C566      1.0  0.61280  0.84952  0.51812  1.0000
  H   H1014     1.0  0.53869  0.58638  0.52433  1.0000
  H   H1015     1.0  0.70844  0.55477  0.37247  1.0000
  C   C567      1.0  0.94126  0.57182  0.49476  1.0000
  C   C568      1.0  0.52119  0.75301  0.48865  1.0000
  H   H1016     1.0  0.60796  0.56937  0.42346  1.0000
  N   N32       1.0  0.59660  0.91019  0.47281  1.0000
  S   S125      1.0  0.49393  0.50832  0.53801  1.0000
  C   C569      1.0  0.55664  0.89413  0.47375  1.0000
  C   C570      1.0  0.60864  0.89891  0.49467  1.0000
  C   C571      1.0  0.60750  0.89659  0.45240  1.0000
  Fe  Fe62      1.0  0.48380  0.62057  0.53566  1.0000
  Fe  Fe63      1.0  0.49966  0.84126  0.57686  1.0000
  C   C572      1.0  0.59272  0.85787  0.49898  1.0000
  H   H1017     1.0  0.50775  0.65788  0.63268  1.0000
  H   H1018     1.0  0.58690  0.86851  0.44874  1.0000
  H   H1019     1.0  0.63955  0.89104  0.41284  1.0000
  H   H1020     1.0  0.53881  0.58487  0.43783  1.0000
  H   H1021     1.0  0.92052  0.57172  0.48288  1.0000
  H   H1022     1.0  0.60526  0.96083  0.45727  1.0000
  C   C573      1.0  0.65407  0.97132  0.47570  1.0000
  H   H1023     1.0  0.68419  0.51054  0.38552  1.0000
  H   H1024     1.0  0.54905  0.90350  0.48932  1.0000
  H   H1025     1.0  0.60246  0.91021  0.50994  1.0000
  H   H1026     1.0  0.63801  0.91008  0.49486  1.0000
  H   H1027     1.0  0.63217  0.89483  0.45643  1.0000
  C   C574      1.0  0.49587  0.71337  0.52947  1.0000
  C   C575      1.0  0.54193  0.71499  0.65754  1.0000
  H   H1028     1.0  0.59253  0.87335  0.40661  1.0000
  C   C576      1.0  0.58759  0.64495  0.48131  1.0000
  S   S126      1.0  0.49504  0.59095  0.56408  1.0000
  H   H1029     1.0  0.59329  0.84384  0.48335  1.0000
  H   H1030     1.0  0.56483  0.84631  0.50454  1.0000
  C   C577      1.0  0.63263  0.70895  0.49072  1.0000
  C   C578      1.0  0.53860  0.76085  0.58513  1.0000
  C   C579      1.0  0.72138  0.51487  0.35923  1.0000
  H   H1031     1.0  0.59429  0.92640  0.42516  1.0000
  C   C580      1.0  0.54221  0.73267  0.63377  1.0000
  H   H1032     1.0  0.66713  0.95877  0.46611  1.0000
  C   C581      1.0  0.52910  0.72539  0.49438  1.0000
  C   C582      1.0  0.61507  0.91888  0.42962  1.0000
  H   H1033     1.0  0.64569  0.66979  0.47802  1.0000
  H   H1034     1.0  0.64057  0.94417  0.43096  1.0000
  C   C583      1.0  0.71029  0.53075  0.37859  1.0000
  C   C584      1.0  0.61297  0.95050  0.47286  1.0000
  C   C585      1.0  0.55508  0.67170  0.61302  1.0000
  N   N33       1.0  0.52089  0.70799  0.61447  1.0000
  C   C586      1.0  0.49806  0.88498  0.45621  1.0000
  C   C587      1.0  0.50192  0.76194  0.50373  1.0000
  H   H1035     1.0  0.54111  0.88760  0.43738  1.0000
  H   H1036     1.0  0.56262  0.80469  0.56043  1.0000
  C   C588      1.0  0.56338  0.88118  0.65609  1.0000
  H   H1037     1.0  0.56630  0.73072  0.59201  1.0000
  H   H1038     1.0  0.52492  0.70610  0.57750  1.0000
  H   H1039     1.0  0.57729  0.69431  0.62203  1.0000
  H   H1040     1.0  0.54875  0.63362  0.64072  1.0000
  H   H1041     1.0  0.63108  0.66275  0.50730  1.0000
  H   H1042     1.0  0.59752  0.61295  0.44654  1.0000
  S   S127      1.0  0.91210  0.51651  0.43909  1.0000
  S   S128      1.0  0.49873  0.80918  0.60886  1.0000
  Fe  Fe64      1.0  0.49035  0.82853  0.52535  1.0000
  C   C589      1.0  0.53811  0.72504  0.59186  1.0000
  H   H1043     1.0  0.49277  0.89912  0.47004  1.0000
  H   H1044     1.0  0.55970  0.76335  0.55095  1.0000
  H   H1045     1.0  0.61399  0.71089  0.50283  1.0000
  C   C590      1.0  0.58713  0.55981  0.45823  1.0000
  H   H1046     1.0  0.55925  0.54501  0.45190  1.0000
  H   H1047     1.0  0.51192  0.75555  0.57872  1.0000
  H   H1048     1.0  0.60194  0.52824  0.43691  1.0000
  C   C591      1.0  0.61053  0.55697  0.43993  1.0000
  C   C592      1.0  0.61808  0.89820  0.40950  1.0000
  H   H1049     1.0  0.60002  0.82005  0.52110  1.0000
  C   C593      1.0  0.48982  0.74257  0.52439  1.0000
  C   C594      1.0  0.54487  0.97641  0.49144  1.0000
  C   C595      1.0  0.76401  0.49129  0.43193  1.0000
  H   H1050     1.0  0.53096  0.61336  0.61320  1.0000
  H   H1051     1.0  0.48593  0.85595  0.46076  1.0000
  H   H1052     1.0  0.66760  0.48824  0.34534  1.0000
  H   H1053     1.0  0.97364  0.57642  0.41810  1.0000
  H   H1054     1.0  0.53159  0.61976  0.44929  1.0000
  C   C596      1.0  0.48552  0.56800  0.44817  1.0000
  H   H1055     1.0  0.51485  0.69560  0.66315  1.0000
  C   C597      1.0  0.50266  0.49338  0.51185  1.0000
  H   H1056     1.0  0.81077  0.50689  0.36839  1.0000
  Fe  Fe65      1.0  0.89592  0.49725  0.40299  1.0000
  H   H1057     1.0  0.48149  0.91867  0.64851  1.0000
  H   H1058     1.0  0.50078  0.65379  0.60277  1.0000
  H   H1059     1.0  0.48590  0.69797  0.54518  1.0000
  H   H1060     1.0  0.55742  0.70033  0.65694  1.0000
  C   C598      1.0  0.90804  0.50517  0.33889  1.0000
  H   H1061     1.0  0.49761  0.77949  0.65362  1.0000
  S   S129      1.0  0.70195  0.49450  0.43446  1.0000
  C   C599      1.0  0.69496  0.50507  0.33857  1.0000
  H   H1062     1.0  0.66142  0.97144  0.49416  1.0000
  S   S130      1.0  0.48928  0.88831  0.57378  1.0000
  C   C600      1.0  0.48325  0.49078  0.49167  1.0000
  H   H1063     1.0  0.51975  0.95899  0.65859  1.0000
  H   H1064     1.0  0.48332  0.72846  0.61072  1.0000
  H   H1065     1.0  0.52573  0.92677  0.64243  1.0000
  C   C601      1.0  0.48335  0.70251  0.61366  1.0000
  S   S131      1.0  0.47774  0.87334  0.51816  1.0000
  H   H1066     1.0  0.47753  0.57277  0.43069  1.0000
  H   H1067     1.0  0.47800  0.53915  0.44997  1.0000
  C   C602      1.0  0.79159  0.48545  0.44086  1.0000
  C   C603      1.0  0.89745  0.79662  0.96268  1.0000
  Fe  Fe66      1.0  0.87384  0.91915  0.89259  1.0000
  S   S132      1.0  0.87790  0.86847  0.89615  1.0000
  H   H1068     1.0  0.68488  0.88911  0.86581  1.0000
  S   S133      1.0  0.83584  0.92525  0.91527  1.0000
  Fe  Fe67      1.0  0.61105  0.82869  0.77363  1.0000
  S   S134      1.0  0.59841  0.80913  0.73702  1.0000
  S   S135      1.0  0.66861  0.84643  0.78576  1.0000
  Fe  Fe68      1.0  0.53588  0.81904  0.77900  1.0000
  S   S136      1.0  0.51837  0.79992  0.74326  1.0000
  Fe  Fe69      1.0  0.54567  0.76698  0.75030  1.0000
  C   C604      1.0  0.55884  0.74319  0.67616  1.0000
  Fe  Fe70      1.0  0.57199  0.84341  0.73287  1.0000
  S   S137      1.0  0.57882  0.87967  0.70198  1.0000
  S   S138      1.0  0.55988  0.78294  0.78713  1.0000
  S   S139      1.0  0.58790  0.86600  0.76835  1.0000
  C   C605      1.0  0.83199  0.85556  0.83282  1.0000
  H   H1069     1.0  0.92387  0.83026  0.99127  1.0000
  H   H1070     1.0  0.95185  0.92451  0.89477  1.0000
  C   C606      1.0  0.94959  0.90115  0.88642  1.0000
  C   C607      1.0  0.93257  0.86444  0.96043  1.0000
  S   S140      1.0  0.49831  0.82443  0.80314  1.0000
  H   H1071     1.0  0.83691  0.80698  0.82800  1.0000
  H   H1072     1.0  0.54215  0.91465  0.72081  1.0000
  C   C608      1.0  0.73523  0.90404  0.85017  1.0000
  C   C609      1.0  0.75160  0.90306  0.82991  1.0000
  C   C610      1.0  0.73082  0.88587  0.81032  1.0000
  C   C611      1.0  0.69344  0.87000  0.81050  1.0000
  C   C612      1.0  0.67713  0.87161  0.83063  1.0000
  C   C613      1.0  0.69789  0.88838  0.85031  1.0000
  H   H1073     1.0  0.78027  0.91553  0.82934  1.0000
  H   H1074     1.0  0.74380  0.88495  0.79485  1.0000
  H   H1075     1.0  0.64846  0.85947  0.83114  1.0000
  C   C614      1.0  0.49516  0.66352  0.77205  1.0000
  S   S141      1.0  0.51751  0.71132  0.73573  1.0000
  C   C615      1.0  0.56845  0.59601  0.73676  1.0000
  C   C616      1.0  0.91627  0.87050  0.88449  1.0000
  H   H1076     1.0  0.49465  0.94193  0.69814  1.0000
  C   C617      1.0  0.52922  0.58101  0.74248  1.0000
  C   C618      1.0  0.90900  0.83131  0.97567  1.0000
  H   H1077     1.0  0.50404  0.90473  0.76694  1.0000
  H   H1078     1.0  0.50594  0.61666  0.71049  1.0000
  H   H1079     1.0  0.52392  0.60392  0.74365  1.0000
  N   N34       1.0  0.76663  0.81589  0.84759  1.0000
  C   C619      1.0  0.77394  0.83849  0.86867  1.0000
  C   C620      1.0  0.79115  0.83837  0.82852  1.0000
  C   C621      1.0  0.72892  0.80506  0.83973  1.0000
  C   C622      1.0  0.76960  0.78225  0.85225  1.0000
  C   C623      1.0  0.79800  0.78471  0.87027  1.0000
  C   C624      1.0  0.74605  0.82115  0.88800  1.0000
  C   C625      1.0  0.71739  0.78718  0.81593  1.0000
  S   S142      1.0  0.76003  0.92366  0.87580  1.0000
  C   C626      1.0  0.80148  0.75057  0.87091  1.0000
  C   C627      1.0  0.75947  0.84062  0.91069  1.0000
  C   C628      1.0  0.67700  0.76885  0.81273  1.0000
  H   H1080     1.0  0.77505  0.86457  0.86389  1.0000
  H   H1081     1.0  0.80049  0.84613  0.87630  1.0000
  H   H1082     1.0  0.78531  0.82286  0.81247  1.0000
  H   H1083     1.0  0.78556  0.86080  0.82392  1.0000
  H   H1084     1.0  0.72429  0.82872  0.83920  1.0000
  H   H1085     1.0  0.70952  0.78604  0.85235  1.0000
  H   H1086     1.0  0.74391  0.76003  0.85849  1.0000
  H   H1087     1.0  0.77450  0.77234  0.83596  1.0000
  H   H1088     1.0  0.79067  0.78835  0.88776  1.0000
  H   H1089     1.0  0.84591  0.83547  0.80282  1.0000
  H   H1090     1.0  0.72147  0.82250  0.88314  1.0000
  H   H1091     1.0  0.73884  0.79259  0.89093  1.0000
  H   H1092     1.0  0.72618  0.76680  0.81374  1.0000
  H   H1093     1.0  0.72902  0.80792  0.80207  1.0000
  H   H1094     1.0  0.56064  0.73019  0.69257  1.0000
  Fe  Fe71      1.0  0.81955  0.94516  0.88320  1.0000
  H   H1095     1.0  0.77571  0.72691  0.87536  1.0000
  H   H1096     1.0  0.81032  0.74641  0.85402  1.0000
  H   H1097     1.0  0.76343  0.86835  0.90884  1.0000
  H   H1098     1.0  0.73941  0.82654  0.92421  1.0000
  H   H1099     1.0  0.78480  0.84134  0.91622  1.0000
  H   H1100     1.0  0.66971  0.75912  0.79488  1.0000
  C   C629      1.0  0.52486  0.90554  0.75567  1.0000
  H   H1101     1.0  0.66687  0.78801  0.81577  1.0000
  N   N35       1.0  0.94437  0.90045  0.97104  1.0000
  C   C630      1.0  0.91316  0.90424  0.97909  1.0000
  H   H1102     1.0  0.52262  0.67654  0.77781  1.0000
  H   H1103     1.0  0.82164  0.75305  0.88413  1.0000
  H   H1104     1.0  0.84458  0.88267  0.82456  1.0000
  H   H1105     1.0  0.52937  0.80622  0.69011  1.0000
  C   C631      1.0  0.88253  0.89526  0.96138  1.0000
  H   H1106     1.0  0.91850  0.86240  0.94372  1.0000
  H   H1107     1.0  0.88777  0.81657  0.87204  1.0000
  S   S143      1.0  0.85492  0.93509  0.86035  1.0000
  C   C632      1.0  0.84892  0.83516  0.82180  1.0000
  C   C633      1.0  0.85239  0.89914  0.97215  1.0000
  H   H1108     1.0  0.94644  0.92519  0.93779  1.0000
  H   H1109     1.0  0.92204  0.93226  0.98443  1.0000
  H   H1110     1.0  0.90155  0.88746  0.99480  1.0000
  H   H1111     1.0  0.58519  0.61518  0.75016  1.0000
  H   H1112     1.0  0.49541  0.71140  0.80742  1.0000
  H   H1113     1.0  0.52301  0.87857  0.75614  1.0000
  C   C634      1.0  0.91335  0.84035  0.87353  1.0000
  H   H1114     1.0  0.56321  0.92228  0.78380  1.0000
  H   H1115     1.0  0.53782  0.92248  0.68376  1.0000
  H   H1116     1.0  0.88462  0.83173  0.98113  1.0000
  H   H1117     1.0  0.47915  0.51217  0.76425  1.0000
  H   H1118     1.0  0.89194  0.91367  0.94624  1.0000
  H   H1119     1.0  0.87110  0.86736  0.95528  1.0000
  H   H1120     1.0  0.84012  0.86033  0.85102  1.0000
  H   H1121     1.0  0.92103  0.79432  0.95749  1.0000
  H   H1122     1.0  0.93101  0.93569  0.81412  1.0000
  C   C635      1.0  0.94328  0.84111  0.86385  1.0000
  C   C636      1.0  0.55760  0.85968  0.67593  1.0000
  H   H1123     1.0  0.95610  0.86142  0.95600  1.0000
  H   H1124     1.0  0.48099  0.50881  0.68821  1.0000
  H   H1125     1.0  0.82451  0.80736  0.86667  1.0000
  H   H1126     1.0  0.57551  0.57408  0.73618  1.0000
  H   H1127     1.0  0.87778  0.84847  0.82614  1.0000
  H   H1128     1.0  0.82959  0.89016  0.95993  1.0000
  H   H1129     1.0  0.84290  0.88233  0.98801  1.0000
  H   H1130     1.0  0.86146  0.92761  0.97636  1.0000
  H   H1131     1.0  0.94057  0.81808  0.85472  1.0000
  C   C637      1.0  0.50979  0.91027  0.67768  1.0000
  H   H1132     1.0  0.51542  0.56339  0.70710  1.0000
  H   H1133     1.0  0.88157  0.79586  0.94711  1.0000
  C   C638      1.0  0.50485  0.55288  0.72455  1.0000
  C   C639      1.0  0.53397  0.82295  0.67490  1.0000
  C   C640      1.0  0.96800  0.90411  0.99159  1.0000
  H   H1134     1.0  0.66393  0.74564  0.82479  1.0000
  C   C641      1.0  0.96386  0.92915  0.95313  1.0000
  H   H1135     1.0  0.57439  0.61055  0.71995  1.0000
  H   H1136     1.0  0.52520  0.56853  0.75988  1.0000
  H   H1137     1.0  0.50936  0.52933  0.72736  1.0000
  C   C642      1.0  0.94945  0.94533  0.82914  1.0000
  H   H1138     1.0  0.58287  0.93377  0.75572  1.0000
  H   H1139     1.0  0.88085  0.77328  0.97395  1.0000
  H   H1140     1.0  0.93538  0.94969  0.84347  1.0000
  H   H1141     1.0  0.52969  0.94603  0.73010  1.0000
  H   H1142     1.0  0.58609  0.76386  0.67134  1.0000
  C   C643      1.0  0.52137  0.91688  0.73056  1.0000
  S   S144      1.0  0.91870  0.97383  0.89909  1.0000
  C   C644      1.0  0.97671  0.87136  0.86605  1.0000
  H   H1143     1.0  0.97010  0.95603  0.95952  1.0000
  C   C645      1.0  0.56072  0.93183  0.76624  1.0000
  H   H1144     1.0  0.54237  0.75637  0.67907  1.0000
  H   H1145     1.0  0.50138  0.85708  0.70844  1.0000
  H   H1146     1.0  0.95666  0.92427  0.83433  1.0000
  H   H1147     1.0  0.48612  0.74726  0.81384  1.0000
  H   H1148     1.0  0.56294  0.95884  0.76754  1.0000
  H   H1149     1.0  0.50091  0.88199  0.67329  1.0000
  H   H1150     1.0  0.47826  0.62108  0.79761  1.0000
  N   N36       1.0  0.48543  0.89567  0.71915  1.0000
  C   C646      1.0  0.48506  0.67724  0.75289  1.0000
  H   H1151     1.0  0.48678  0.94705  0.75119  1.0000
  C   C647      1.0  0.48565  0.91287  0.69611  1.0000
  H   H1152     1.0  0.47972  0.65536  0.70087  1.0000
  Fe  Fe72      1.0  0.87941  0.98160  0.91979  1.0000
  C   C648      1.0  0.47842  0.85762  0.71658  1.0000
