data_image0
_chemical_formula_structural       FeHSFeSFeHS2HFeSFeS2FeS2FeSFeCS2FeS2CFeS3C6H4C6H4SH2C4HC7HCH2C2H3C2H3CHC2HCH6SH2CH2CHCH2CNH2CH3CHC2HC2SH3CHC2HNHNC12H16CH3SH10NCHCNCH2SHC4H6CH4CHCFeH7SC2H13NH6NH5C3HCHC2H2CHCH2CH4SHCH2C2HCHCH5CH2CH4CH4CHCH6NH2CHC2H2C2H3C3HCHCH6C2H4C2H2CSFeS2FeS2FeSFeS3FeS2H3S2FeSFeHSH3SC2H3C6H4CH4C6H4C6H7C3HFeHC3H3C2HCHC2H2C2H5CFeH4CHCH6CH3CH3CH5C2H4CHCHCH5NH3C3HCH5CH2CHFeH4CH2C2H3C2H2CHNFeHCH4CHC3H2CHCH4CHCHC2H6C2H2CH7SH6C2H3CN2HC3HSH5CH3CHCH2SFeS2FeSHFeSFeHS2HCFeS2FeSHFeSFeS2HFeSCH2FeSHC2H4C6H5C2H3C2H3C3HC3H3C6H4NC4S2CH2CH3CHC2H10CNCH4CHCHSCNC2H8CH2SFeNHCH3SC2H2CNC11H26C4HCHC3H2C2H5CHCHCH6CHCH6CH7CH4CH3SHSHC2H4CHCHC2HCSC2HSH3CH2CH2CH14CHC2HCH2CH2CH3C2H2CH2CHCHFeC2FeSHFeS2FeSFeS3CFeSFeCSFeHSHCSHFeSH3FeSCHC2H2C6H5CH4C2H2CNHC6H4C6HC2H6CHCHCSH2C2HCH12NC8HCHCH16CSHCH8NC6HC4H13SCH13C2FeC2H9CH2C2H2CH3CH2CH2SCSHC2H2C2H5NHSCSH2CHCHCH3CH4CHC2H4SC2H2C2H5C2HCH2SH4CH2FeSHFeSCFeSFeS3CH2SHFeS2FeSFeS3CH3CH3C6H4C2H3CNCH3C8H4CH3CHNHC2NHCHCHCSH6C2H5CH2NHCH2NC8H17CFeC2HCH2SCHCH5C3HCH4SH3C2HCHC3H2CHCH4SH2SH2C2H2CH5CH2SH3CH5C3H5CH3C2H2CH3CHC2H2CHCH2CH4SHC2H2CH3CFeH2FeCH2CHFeS2FeSHFeHFeS3H2SHC7H4C6H3C3HCH4SHC3H5C2HCH2C2H2CH4CH5CHCHCH6CH8CH4CHC3H2NCH3SCH2C2H2NCH2C2H3C2H2CH14C2H4CH2FeS2FeS2Fe2CS3HFeS2FeSFeS3HCSH2C6H4CHCHCH3C3H2C6H9C2HFeHC3H2CH2CSHC2H3C2HCN2HFeH3CHC3H6CHCH10CHC2H5CH7SC2HSHCHCHC3HCH5NC5HCH2CSH11CHC3H7NC7H2CHCH8CHCH3CH8CHCH3CH2FeHCH5CH3CNH3SH2SHFeS2FeS2FeHFeS3H2C6H3C6H6C4H2CHC2HNC5H2C4HNH21C2H2CH3CH4C2H6C3HCHNCH5CHCH4CHC4H7CSHCH6C2HC2FeSHFeS2FeSFeCS2CHSH2C8H4CH3C4H4C2H2NCHC4H3CH6CH9CH2C3H5CH2CH4CNH4CH2CHC2H2SH3CH2CSFeC2H4C2H3CH2CSH2CH5CH4C2H3SH6CH6FeSFeSCFeSFeS3FeCSFeSFeS2HCSH4S2CH2C6H4C2H3CH4C6H4C2H2CH3CHC2SH2NCHCH2CH4FeHCHCHSHNH3CHNC12H19SCH7NC4H2C3H9C2H12NC8H2C2H7CHCH6CH9C2FeCH4C3HSC2H2SHCHC3H3CH7C3H2C2HC2H2C2HNSH3SFeS2FeSHFeSFeS2H3CSC4HCH2CHC6H4NHCH4C2H4CH8CHCHC2HCFeC3H2NC10HCH17CH2CHC2H5CH2SH4CH7CH3CHC2NCHC2HCH4FeS2FeCSFeHFeS2HCS2HSCHFeSFeCSFeS2HSH3C6H8CH4FeHC6H5CSC3HNC7FeCH2CHNH6CH7C2HSCH2C2H2CH2CHC7H14CH2SC2HCH2NH5CH2C2HCHC2H3C4HC2NH2C2HCH2CH2C2HCH5CH5CH3SH3CH2CH2SH3CH3CH11CH2C2H2CHCH3CHCHCH2SHFeHSFeSFeS2HFeS2FeSFeSFeS3FeS2FeSFeSHCH3CH3C2HC3H2C6H6C2H3C6H4C2H2CHC2H4NCH3NC7HC4H22CH5C7H10CH5NC11H26CHCHNHCHCH4CHCH2CH2C10HCHSH11CH2C3H5CNCFeC2H7SH6SCH2CH2C2HCHCH2FeS2FeSCFeCFeS3CHFeSHFeSFeSHCHSFeSFeHCFeSC5H4C6HNH3C2HC4H5C2H2C2HCHC6H8CH3NCHC3HCNC2HC3HC2H2CH12SHC2H3CH2SH2C2H5CHCHNC8HC2H14CH3FeH8C2NC4HCH2CH12CH2C2H6CH5CHCH2C2H4CS3HCH6SCHCH3C2H4CH3C2HSH4SH4SCHSHC2SHC2H7CH9FeS2FeH3S2FeCSFeS2FeHFeS3HFeSFeSFeS2FeS3HC2HC2HCHC7H4C6H4C7H6C3H2CHCSHCH3C2H7CHCFeC3H6CHNHCNC5HCH17CH6S2H3FeHCH5C2NH2CH2CHCH2CHSH8C2H2CHC2H5C2H5CH2CH5CH6CHSH2CH2CH3NC9H6CNCH5CHC2H3CH8C2H2C2H4CHCHC3H2CHCSH5C4H5C2HCH4CHCH5C2SCHFeHSFeSFeH2SFeS2H3S2FeS2FeS2FeSFeS3HCSCSC6H4C6H6C6H8CNH2C4H2C2H2CH2C3H4CH7CH3C2NCH2C2H2C2HSH7CFeH4C3H2C2H3CHCHNC6HC4H6CH7CH7CH3C2H2CFeH2CHCH4NH2CHCH4CHCH4C4H11NH7CHSH2CH2CH3C3HC3H6NC2HC2HC2HCH2CH5CH4CHCHSCH3C
_chemical_formula_sum              "Fe144 H2304 S288 C1296 N72"
_cell_length_a       48.3193
_cell_length_b       48.246
_cell_length_c       52.6137
_cell_angle_alpha    91.8945
_cell_angle_beta     88.8973
_cell_angle_gamma    118.022

_space_group_name_H-M_alt    "P 1"
_space_group_IT_number       1

loop_
  _space_group_symop_operation_xyz
  'x, y, z'

loop_
  _atom_site_type_symbol
  _atom_site_label
  _atom_site_symmetry_multiplicity
  _atom_site_fract_x
  _atom_site_fract_y
  _atom_site_fract_z
  _atom_site_occupancy
  Fe  Fe1       1.0  0.16226  0.37372  0.18944  1.0000
  H   H1        1.0  0.42230  0.24531  0.21779  1.0000
  S   S1        1.0  0.20340  0.36918  0.17063  1.0000
  Fe  Fe2       1.0  0.09063  0.34226  0.19896  1.0000
  S   S2        1.0  0.04196  0.30425  0.18777  1.0000
  Fe  Fe3       1.0  0.12875  0.41302  0.20204  1.0000
  H   H2        1.0  0.34983  0.19039  0.20003  1.0000
  S   S3        1.0  0.12260  0.37768  0.17081  1.0000
  S   S4        1.0  0.12925  0.33402  0.21434  1.0000
  H   H3        1.0  0.05087  0.38921  0.11721  1.0000
  Fe  Fe4       1.0  0.38277  0.12764  0.21003  1.0000
  S   S5        1.0  0.37575  0.13340  0.16788  1.0000
  Fe  Fe5       1.0  0.22040  0.18126  0.04354  1.0000
  S   S6        1.0  0.25354  0.18846  0.01093  1.0000
  S   S7        1.0  0.17603  0.18701  0.04023  1.0000
  Fe  Fe6       1.0  0.26372  0.17111  0.08123  1.0000
  S   S8        1.0  0.29972  0.17939  0.05091  1.0000
  S   S9        1.0  0.26879  0.16007  0.12237  1.0000
  Fe  Fe7       1.0  0.29083  0.21886  0.03918  1.0000
  S   S10       1.0  0.32569  0.26794  0.02737  1.0000
  Fe  Fe8       1.0  0.25843  0.14767  0.02603  1.0000
  C   C1        1.0  0.37450  0.01605  0.18851  1.0000
  S   S11       1.0  0.25758  0.21298  0.07129  1.0000
  S   S12       1.0  0.22257  0.13813  0.05699  1.0000
  Fe  Fe9       1.0  0.40057  0.42960  0.09745  1.0000
  S   S13       1.0  0.36898  0.43340  0.06873  1.0000
  S   S14       1.0  0.39430  0.38130  0.10694  1.0000
  C   C2        1.0  0.98631  0.14038  0.00890  1.0000
  Fe  Fe10      1.0  0.36591  0.46796  0.09684  1.0000
  S   S15       1.0  0.31921  0.46805  0.10534  1.0000
  S   S16       1.0  0.44488  0.46766  0.08083  1.0000
  S   S17       1.0  0.39569  0.46252  0.12666  1.0000
  C   C3        1.0  0.34235  0.29845  0.05062  1.0000
  C   C4        1.0  0.35004  0.29323  0.07489  1.0000
  C   C5        1.0  0.36608  0.31878  0.09203  1.0000
  C   C6        1.0  0.37375  0.34950  0.08527  1.0000
  C   C7        1.0  0.36488  0.35435  0.06138  1.0000
  C   C8        1.0  0.34966  0.32904  0.04402  1.0000
  H   H4        1.0  0.34459  0.26970  0.08011  1.0000
  H   H5        1.0  0.37271  0.31479  0.11052  1.0000
  H   H6        1.0  0.37035  0.37772  0.05606  1.0000
  H   H7        1.0  0.34359  0.33316  0.02536  1.0000
  C   C9        1.0  0.34561  0.14039  0.15547  1.0000
  C   C10       1.0  0.31860  0.13453  0.16946  1.0000
  C   C11       1.0  0.29530  0.14054  0.15902  1.0000
  C   C12       1.0  0.29861  0.15236  0.13443  1.0000
  C   C13       1.0  0.32549  0.15794  0.12031  1.0000
  C   C14       1.0  0.34879  0.15193  0.13077  1.0000
  H   H8        1.0  0.31556  0.12508  0.18826  1.0000
  H   H9        1.0  0.27452  0.13590  0.17006  1.0000
  H   H10       1.0  0.32845  0.16717  0.10143  1.0000
  H   H11       1.0  0.36955  0.15650  0.11973  1.0000
  S   S18       1.0  0.09483  0.37787  0.22919  1.0000
  H   H12       1.0  0.31418  0.03910  0.21614  1.0000
  H   H13       1.0  0.16328  0.28278  0.02252  1.0000
  C   C15       1.0  0.27563  0.04136  0.10044  1.0000
  C   C16       1.0  0.28994  0.05707  0.12658  1.0000
  C   C17       1.0  0.26080  0.04509  0.05608  1.0000
  C   C18       1.0  0.36540  0.25182  0.18495  1.0000
  H   H14       1.0  0.17074  0.34370  0.11676  1.0000
  C   C19       1.0  0.06561  0.12754  0.04310  1.0000
  C   C20       1.0  0.23612  0.39878  0.15426  1.0000
  C   C21       1.0  0.23404  0.42236  0.14094  1.0000
  C   C22       1.0  0.25972  0.44345  0.12626  1.0000
  C   C23       1.0  0.28782  0.44135  0.12470  1.0000
  C   C24       1.0  0.29002  0.41803  0.13831  1.0000
  C   C25       1.0  0.26437  0.39701  0.15302  1.0000
  H   H15       1.0  0.21251  0.42409  0.14162  1.0000
  C   C26       1.0  0.26996  0.38052  0.04023  1.0000
  H   H16       1.0  0.31156  0.41632  0.13761  1.0000
  H   H17       1.0  0.26654  0.37946  0.16375  1.0000
  C   C27       1.0  0.01243  0.29255  0.21144  1.0000
  C   C28       1.0  0.43992  0.21765  0.17858  1.0000
  H   H18       1.0  0.12438  0.19904  0.02976  1.0000
  H   H19       1.0  0.35297  0.38522  0.00347  1.0000
  H   H20       1.0  0.14230  0.33019  0.00506  1.0000
  C   C29       1.0  0.07363  0.44378  0.16989  1.0000
  C   C30       1.0  0.05249  0.45119  0.15728  1.0000
  H   H21       1.0  0.06615  0.42013  0.17605  1.0000
  H   H22       1.0  0.02876  0.43303  0.15378  1.0000
  H   H23       1.0  0.29779  0.41592  0.06844  1.0000
  C   C31       1.0  0.13466  0.22368  0.99438  1.0000
  H   H24       1.0  0.34484  0.25489  0.19117  1.0000
  C   C32       1.0  0.41281  0.39111  0.00126  1.0000
  C   C33       1.0  0.16884  0.20597  0.01460  1.0000
  H   H25       1.0  0.06662  0.17412  0.01704  1.0000
  C   C34       1.0  0.06674  0.44407  0.00386  1.0000
  H   H26       1.0  0.39661  0.01500  0.99586  1.0000
  H   H27       1.0  0.27874  0.31825  0.02444  1.0000
  H   H28       1.0  0.23505  0.99909  0.01769  1.0000
  H   H29       1.0  0.26320  0.38394  0.08122  1.0000
  H   H30       1.0  0.43247  0.40415  0.05122  1.0000
  H   H31       1.0  0.03791  0.46765  0.08535  1.0000
  S   S19       1.0  0.38576  0.08580  0.22477  1.0000
  H   H32       1.0  0.42385  0.04141  0.22346  1.0000
  H   H33       1.0  0.22372  0.37164  0.03014  1.0000
  C   C35       1.0  0.13918  0.30612  0.00760  1.0000
  H   H34       1.0  0.03686  0.16520  0.04006  1.0000
  H   H35       1.0  0.01681  0.43491  0.22552  1.0000
  C   C36       1.0  0.02832  0.24228  0.01738  1.0000
  H   H36       1.0  0.46144  0.40025  0.08713  1.0000
  C   C37       1.0  0.25756  0.30662  0.03657  1.0000
  H   H37       1.0  0.22155  0.28507  0.00779  1.0000
  H   H38       1.0  0.48105  0.39306  0.02013  1.0000
  C   C38       1.0  0.27271  0.39950  0.06472  1.0000
  N   N1        1.0  0.37737  0.24091  0.20675  1.0000
  H   H39       1.0  0.24282  0.99523  0.06411  1.0000
  H   H40       1.0  0.39795  0.03678  0.18703  1.0000
  C   C39       1.0  0.01872  0.20779  0.02192  1.0000
  H   H41       1.0  0.43858  0.01984  0.23976  1.0000
  H   H42       1.0  0.10612  0.47124  0.08587  1.0000
  H   H43       1.0  0.07196  0.42559  0.01083  1.0000
  C   C40       1.0  0.30412  0.01530  0.22272  1.0000
  H   H44       1.0  0.20888  0.29261  0.03794  1.0000
  C   C41       1.0  0.25416  0.27455  0.04300  1.0000
  C   C42       1.0  0.08746  0.48292  0.05243  1.0000
  H   H45       1.0  0.06481  0.13896  0.06159  1.0000
  C   C43       1.0  0.02819  0.19282  0.99897  1.0000
  C   C44       1.0  0.38292  0.26341  0.22914  1.0000
  S   S20       1.0  0.13092  0.46015  0.19322  1.0000
  H   H46       1.0  0.41609  0.28643  0.99149  1.0000
  H   H47       1.0  0.02190  0.40878  0.09229  1.0000
  H   H48       1.0  0.36008  0.02222  0.20176  1.0000
  C   C45       1.0  0.03954  0.12474  0.02549  1.0000
  H   H49       1.0  0.00778  0.31281  0.12698  1.0000
  C   C46       1.0  0.35935  0.00965  0.16227  1.0000
  C   C47       1.0  0.44715  0.39231  0.04762  1.0000
  H   H50       1.0  0.27718  0.35246  0.99968  1.0000
  N   N2        1.0  0.05489  0.45539  0.05052  1.0000
  H   H51       1.0  0.27696  0.06877  0.13539  1.0000
  N   N3        1.0  0.22089  0.29407  0.12542  1.0000
  C   C48       1.0  0.20138  0.26060  0.11583  1.0000
  C   C49       1.0  0.21073  0.31576  0.11303  1.0000
  C   C50       1.0  0.25451  0.30407  0.11775  1.0000
  C   C51       1.0  0.21976  0.29709  0.15402  1.0000
  C   C52       1.0  0.18690  0.28526  0.16623  1.0000
  C   C53       1.0  0.21045  0.23605  0.12585  1.0000
  C   C54       1.0  0.27822  0.33907  0.12327  1.0000
  C   C55       1.0  0.17559  0.30216  0.10597  1.0000
  C   C56       1.0  0.16771  0.32837  0.09965  1.0000
  C   C57       1.0  0.18903  0.28814  0.19524  1.0000
  C   C58       1.0  0.18755  0.20288  0.11643  1.0000
  C   C59       1.0  0.31001  0.34753  0.11119  1.0000
  H   H52       1.0  0.20259  0.25959  0.09465  1.0000
  H   H53       1.0  0.17621  0.25185  0.12040  1.0000
  H   H54       1.0  0.21738  0.33732  0.12518  1.0000
  H   H55       1.0  0.22352  0.32434  0.09475  1.0000
  H   H56       1.0  0.25582  0.29899  0.09708  1.0000
  H   H57       1.0  0.26394  0.29038  0.12778  1.0000
  H   H58       1.0  0.23170  0.28513  0.16314  1.0000
  H   H59       1.0  0.23329  0.32217  0.16029  1.0000
  H   H60       1.0  0.17124  0.26027  0.16110  1.0000
  H   H61       1.0  0.17615  0.29984  0.16029  1.0000
  H   H62       1.0  0.23405  0.24072  0.11893  1.0000
  H   H63       1.0  0.21021  0.23609  0.14693  1.0000
  H   H64       1.0  0.28194  0.34362  0.14406  1.0000
  H   H65       1.0  0.27028  0.35525  0.11569  1.0000
  H   H66       1.0  0.17032  0.28623  0.08895  1.0000
  H   H67       1.0  0.15966  0.28857  0.12144  1.0000
  C   C60       1.0  0.03229  0.46365  0.06486  1.0000
  H   H68       1.0  0.40548  0.99629  0.09205  1.0000
  H   H69       1.0  0.21191  0.21717  0.99463  1.0000
  H   H70       1.0  0.16524  0.28011  0.20350  1.0000
  S   S21       1.0  0.17034  0.41102  0.21941  1.0000
  H   H71       1.0  0.20700  0.01304  0.02552  1.0000
  H   H72       1.0  0.19501  0.18590  0.12333  1.0000
  H   H73       1.0  0.16348  0.19599  0.12359  1.0000
  H   H74       1.0  0.18728  0.20146  0.09532  1.0000
  H   H75       1.0  0.30791  0.34402  0.09020  1.0000
  H   H76       1.0  0.03651  0.40469  0.04926  1.0000
  H   H77       1.0  0.08898  0.14138  0.03412  1.0000
  H   H78       1.0  0.07356  0.23690  0.23884  1.0000
  H   H79       1.0  0.47445  0.07147  0.20068  1.0000
  H   H80       1.0  0.44862  0.02395  0.07149  1.0000
  N   N4        1.0  0.43939  0.38307  0.99866  1.0000
  C   C61       1.0  0.42536  0.01903  0.22244  1.0000
  H   H81       1.0  0.25284  0.05872  0.04419  1.0000
  C   C62       1.0  0.99707  0.43938  0.06181  1.0000
  N   N5        1.0  0.39305  0.99102  0.22272  1.0000
  C   C63       1.0  0.22771  0.30313  0.02342  1.0000
  H   H82       1.0  0.28031  0.39750  0.02471  1.0000
  H   H83       1.0  0.39171  0.20340  0.17062  1.0000
  S   S22       1.0  0.42640  0.16160  0.23132  1.0000
  H   H84       1.0  0.28479  0.36893  0.04229  1.0000
  C   C64       1.0  0.30836  0.08705  0.07554  1.0000
  C   C65       1.0  0.31389  0.10809  0.05234  1.0000
  C   C66       1.0  0.40836  0.24165  0.20016  1.0000
  C   C67       1.0  0.34817  0.13317  0.05047  1.0000
  H   H85       1.0  0.28918  0.02947  0.09288  1.0000
  H   H86       1.0  0.27904  0.04247  0.04447  1.0000
  H   H87       1.0  0.32329  0.07527  0.07253  1.0000
  H   H88       1.0  0.31834  0.10330  0.09224  1.0000
  H   H89       1.0  0.31496  0.07472  0.12465  1.0000
  H   H90       1.0  0.03708  0.41204  0.22151  1.0000
  C   C68       1.0  0.40731  0.21179  0.18729  1.0000
  H   H91       1.0  0.44926  0.23586  0.16388  1.0000
  H   H92       1.0  0.35129  0.14771  0.03365  1.0000
  H   H93       1.0  0.35514  0.14884  0.06769  1.0000
  H   H94       1.0  0.36373  0.12210  0.04822  1.0000
  C   C69       1.0  0.23353  0.01108  0.05794  1.0000
  H   H95       1.0  0.99297  0.19565  0.02509  1.0000
  C   C70       1.0  0.42746  0.34802  0.00031  1.0000
  Fe  Fe11      1.0  0.41317  0.47342  0.05351  1.0000
  H   H96       1.0  0.31593  0.23682  0.15022  1.0000
  H   H97       1.0  0.25359  0.26099  0.02534  1.0000
  H   H98       1.0  0.34121  0.20600  0.16436  1.0000
  H   H99       1.0  0.44525  0.34293  0.00926  1.0000
  H   H100      1.0  0.29228  0.99421  0.18509  1.0000
  H   H101      1.0  0.31990  0.33295  0.11897  1.0000
  H   H102      1.0  0.40008  0.38252  0.01935  1.0000
  S   S23       1.0  0.26408  0.10820  0.00495  1.0000
  C   C71       1.0  0.23515  0.35690  0.03433  1.0000
  C   C72       1.0  0.16850  0.30740  0.01932  1.0000
  H   H103      1.0  0.26009  0.41356  0.06306  1.0000
  H   H104      1.0  0.47404  0.02413  0.04634  1.0000
  H   H105      1.0  0.20384  0.31304  0.20144  1.0000
  H   H106      1.0  0.37798  0.23370  0.15039  1.0000
  H   H107      1.0  0.33564  0.98894  0.16258  1.0000
  H   H108      1.0  0.38900  0.00164  0.06307  1.0000
  H   H109      1.0  0.22394  0.34504  0.05227  1.0000
  H   H110      1.0  0.17248  0.31998  0.03799  1.0000
  H   H111      1.0  0.05412  0.25602  0.01487  1.0000
  H   H112      1.0  0.99631  0.35777  0.22431  1.0000
  H   H113      1.0  0.25196  0.02194  0.10442  1.0000
  H   H114      1.0  0.27460  0.27787  0.05445  1.0000
  H   H115      1.0  0.02129  0.25242  0.03397  1.0000
  N   N6        1.0  0.27474  0.06301  0.08072  1.0000
  H   H116      1.0  0.38330  0.27546  0.17897  1.0000
  H   H117      1.0  0.03492  0.48664  0.05859  1.0000
  H   H118      1.0  0.03031  0.20693  0.03962  1.0000
  H   H119      1.0  0.07715  0.42610  0.05500  1.0000
  H   H120      1.0  0.29958  0.04493  0.16349  1.0000
  H   H121      1.0  0.30904  0.20762  0.20612  1.0000
  N   N7        1.0  0.22903  0.33263  0.01325  1.0000
  H   H122      1.0  0.33399  0.22648  0.12401  1.0000
  H   H123      1.0  0.39861  0.19254  0.20109  1.0000
  H   H124      1.0  0.48353  0.01561  0.10268  1.0000
  H   H125      1.0  0.30802  0.09403  0.03427  1.0000
  H   H126      1.0  0.23245  0.26076  0.05415  1.0000
  C   C73       1.0  0.14099  0.20857  0.01433  1.0000
  C   C74       1.0  0.05762  0.39491  0.09699  1.0000
  C   C75       1.0  0.06173  0.48195  0.14940  1.0000
  H   H127      1.0  0.19902  0.27347  0.20269  1.0000
  C   C76       1.0  0.45776  0.48095  0.99547  1.0000
  H   H128      1.0  0.07387  0.46819  0.22686  1.0000
  C   C77       1.0  0.46421  0.01414  0.06513  1.0000
  C   C78       1.0  0.25729  0.08040  0.09015  1.0000
  H   H129      1.0  0.22007  0.04084  0.11113  1.0000
  H   H130      1.0  0.20776  0.05004  0.08171  1.0000
  C   C79       1.0  0.33879  0.24084  0.14191  1.0000
  H   H131      1.0  0.43846  0.19556  0.17018  1.0000
  C   C80       1.0  0.04742  0.41872  0.08852  1.0000
  H   H132      1.0  0.35288  0.26597  0.13718  1.0000
  H   H133      1.0  0.32656  0.37263  0.11547  1.0000
  C   C81       1.0  0.22289  0.06007  0.09872  1.0000
  H   H134      1.0  0.27025  0.09699  0.10599  1.0000
  H   H135      1.0  0.29945  0.12027  0.05381  1.0000
  H   H136      1.0  0.11343  0.22590  0.99458  1.0000
  H   H137      1.0  0.35491  0.99556  0.10004  1.0000
  S   S24       1.0  0.42292  0.47722  0.01057  1.0000
  H   H138      1.0  0.25638  0.09568  0.07518  1.0000
  C   C82       1.0  0.05443  0.42579  0.05973  1.0000
  H   H139      1.0  0.01652  0.24450  0.00023  1.0000
  H   H140      1.0  0.43246  0.36670  0.05017  1.0000
  C   C83       1.0  0.35378  0.20851  0.21503  1.0000
  C   C84       1.0  0.21060  0.07967  0.11377  1.0000
  H   H141      1.0  0.22420  0.08942  0.13159  1.0000
  C   C85       1.0  0.28862  0.03286  0.14522  1.0000
  H   H142      1.0  0.26394  0.01528  0.14912  1.0000
  C   C86       1.0  0.41014  0.29739  0.22620  1.0000
  H   H143      1.0  0.18309  0.34298  0.08420  1.0000
  H   H144      1.0  0.21234  0.09933  0.10232  1.0000
  H   H145      1.0  0.18561  0.06475  0.11891  1.0000
  H   H146      1.0  0.45183  0.00018  0.19967  1.0000
  H   H147      1.0  0.26123  0.32014  0.05475  1.0000
  C   C87       1.0  0.10415  0.46728  0.17523  1.0000
  H   H148      1.0  0.05923  0.43982  0.10106  1.0000
  H   H149      1.0  0.08350  0.40492  0.09547  1.0000
  C   C88       1.0  0.35646  0.23103  0.16037  1.0000
  H   H150      1.0  0.14292  0.31804  0.09344  1.0000
  H   H151      1.0  0.21526  0.00928  0.07171  1.0000
  H   H152      1.0  0.11871  0.29341  0.02030  1.0000
  H   H153      1.0  0.04435  0.47194  0.01607  1.0000
  C   C89       1.0  0.46165  0.39937  0.02050  1.0000
  H   H154      1.0  0.25774  0.46148  0.11596  1.0000
  H   H155      1.0  0.06268  0.10378  0.04682  1.0000
  H   H156      1.0  0.45627  0.22514  0.19495  1.0000
  H   H157      1.0  0.42268  0.26192  0.18788  1.0000
  C   C90       1.0  0.04173  0.15728  0.02123  1.0000
  H   H158      1.0  0.10415  0.47868  0.04021  1.0000
  C   C91       1.0  0.32081  0.20409  0.22269  1.0000
  H   H159      1.0  0.35697  0.03040  0.15658  1.0000
  H   H160      1.0  0.08917  0.46574  0.00082  1.0000
  H   H161      1.0  0.02141  0.43094  0.02037  1.0000
  H   H162      1.0  0.01689  0.10926  0.03481  1.0000
  H   H163      1.0  0.42213  0.00612  0.03275  1.0000
  H   H164      1.0  0.40678  0.33769  0.01333  1.0000
  N   N8        1.0  0.02049  0.15876  0.00125  1.0000
  H   H165      1.0  0.42229  0.41706  0.00223  1.0000
  H   H166      1.0  0.29674  0.15310  0.21708  1.0000
  C   C92       1.0  0.04546  0.45083  0.02282  1.0000
  H   H167      1.0  0.36164  0.26602  0.23341  1.0000
  C   C93       1.0  0.19041  0.21893  0.99476  1.0000
  C   C94       1.0  0.47814  0.05042  0.20122  1.0000
  H   H168      1.0  0.40568  0.30911  0.21019  1.0000
  H   H169      1.0  0.04626  0.37296  0.08517  1.0000
  C   C95       1.0  0.29171  0.98987  0.20514  1.0000
  C   C96       1.0  0.19747  0.32362  0.00153  1.0000
  H   H170      1.0  0.99633  0.33516  0.10678  1.0000
  H   H171      1.0  0.99348  0.41495  0.06039  1.0000
  H   H172      1.0  0.37413  0.00526  0.14795  1.0000
  C   C97       1.0  0.21776  0.99864  0.03213  1.0000
  C   C98       1.0  0.25324  0.34450  0.99225  1.0000
  C   C99       1.0  0.47258  0.40479  0.06800  1.0000
  H   H173      1.0  0.19686  0.34472  0.99425  1.0000
  C   C100      1.0  0.44678  0.02036  0.19966  1.0000
  H   H174      1.0  0.47307  0.42529  0.01850  1.0000
  C   C101      1.0  0.29998  0.17097  0.23216  1.0000
  H   H175      1.0  0.98794  0.44387  0.04403  1.0000
  H   H176      1.0  0.43597  0.02004  0.18119  1.0000
  H   H177      1.0  0.36330  0.20157  0.23134  1.0000
  H   H178      1.0  0.30165  0.02059  0.13758  1.0000
  H   H179      1.0  0.32207  0.22052  0.23837  1.0000
  H   H180      1.0  0.43294  0.29753  0.22282  1.0000
  C   C102      1.0  0.01988  0.30072  0.23707  1.0000
  C   C103      1.0  0.48365  0.48444  0.00938  1.0000
  H   H181      1.0  0.04184  0.11339  0.00751  1.0000
  H   H182      1.0  0.05116  0.25806  0.23949  1.0000
  H   H183      1.0  0.05382  0.20786  0.99619  1.0000
  H   H184      1.0  0.27656  0.16835  0.23755  1.0000
  C   C104      1.0  0.03090  0.42606  0.23550  1.0000
  C   C105      1.0  0.98833  0.31789  0.12220  1.0000
  H   H185      1.0  0.48275  0.48492  0.02994  1.0000
  H   H186      1.0  0.48257  0.35547  0.28973  1.0000
  C   C106      1.0  0.37292  0.07474  0.46219  1.0000
  S   S25       1.0  0.14138  0.36746  0.28598  1.0000
  Fe  Fe12      1.0  0.16281  0.25550  0.38495  1.0000
  S   S26       1.0  0.17049  0.29235  0.41504  1.0000
  S   S27       1.0  0.15421  0.25873  0.34268  1.0000
  Fe  Fe13      1.0  0.17334  0.21384  0.42372  1.0000
  S   S28       1.0  0.18114  0.24820  0.45610  1.0000
  S   S29       1.0  0.17710  0.16860  0.42738  1.0000
  Fe  Fe14      1.0  0.13979  0.25178  0.44025  1.0000
  S   S30       1.0  0.09928  0.25505  0.46139  1.0000
  Fe  Fe15      1.0  0.21068  0.28473  0.42766  1.0000
  S   S31       1.0  0.25979  0.32334  0.43730  1.0000
  S   S32       1.0  0.13021  0.21522  0.40915  1.0000
  S   S33       1.0  0.20473  0.25010  0.39623  1.0000
  Fe  Fe16      1.0  0.42390  0.38255  0.36727  1.0000
  S   S34       1.0  0.43956  0.35943  0.39585  1.0000
  S   S35       1.0  0.37206  0.36165  0.35781  1.0000
  H   H187      1.0  0.44381  0.05299  0.33306  1.0000
  H   H188      1.0  0.01292  0.42145  0.27431  1.0000
  H   H189      1.0  0.46526  0.03326  0.39998  1.0000
  S   S36       1.0  0.45918  0.43195  0.37905  1.0000
  S   S37       1.0  0.45487  0.37991  0.33564  1.0000
  Fe  Fe17      1.0  0.35558  0.08785  0.25679  1.0000
  S   S38       1.0  0.31782  0.04151  0.27118  1.0000
  Fe  Fe18      1.0  0.39345  0.15990  0.26278  1.0000
  H   H190      1.0  0.37890  0.26048  0.35807  1.0000
  S   S39       1.0  0.39355  0.20532  0.27741  1.0000
  H   H191      1.0  0.46530  0.07871  0.48170  1.0000
  H   H192      1.0  0.37419  0.01911  0.24151  1.0000
  H   H193      1.0  0.40768  0.29020  0.37849  1.0000
  S   S40       1.0  0.39559  0.11992  0.28238  1.0000
  C   C107      1.0  0.40186  0.04247  0.45544  1.0000
  C   C108      1.0  0.21138  0.12406  0.47184  1.0000
  H   H194      1.0  0.00193  0.29696  0.27529  1.0000
  H   H195      1.0  0.24965  0.21538  0.40445  1.0000
  H   H196      1.0  0.31356  0.20092  0.39440  1.0000
  C   C109      1.0  0.45518  0.28529  0.33364  1.0000
  C   C110      1.0  0.43083  0.28621  0.32039  1.0000
  C   C111      1.0  0.41204  0.26126  0.30362  1.0000
  C   C112      1.0  0.41766  0.23538  0.29944  1.0000
  C   C113      1.0  0.44213  0.23449  0.31257  1.0000
  C   C114      1.0  0.46080  0.25937  0.32956  1.0000
  H   H197      1.0  0.42617  0.30592  0.32335  1.0000
  H   H198      1.0  0.39280  0.26190  0.29399  1.0000
  H   H199      1.0  0.44664  0.21467  0.30965  1.0000
  H   H200      1.0  0.25010  0.40741  0.39673  1.0000
  C   C115      1.0  0.06161  0.45432  0.24377  1.0000
  H   H201      1.0  0.07553  0.24371  0.39796  1.0000
  H   H202      1.0  0.00057  0.22854  0.33759  1.0000
  H   H203      1.0  0.02982  0.38865  0.47026  1.0000
  H   H204      1.0  0.43252  0.34192  0.24721  1.0000
  C   C116      1.0  0.29139  0.33232  0.41580  1.0000
  C   C117      1.0  0.32218  0.35343  0.42325  1.0000
  C   C118      1.0  0.34747  0.36178  0.40604  1.0000
  C   C119      1.0  0.34196  0.34955  0.38107  1.0000
  C   C120      1.0  0.31127  0.32806  0.37382  1.0000
  C   C121      1.0  0.28626  0.31913  0.39121  1.0000
  H   H205      1.0  0.32645  0.36364  0.44230  1.0000
  H   H206      1.0  0.37101  0.37842  0.41184  1.0000
  H   H207      1.0  0.30683  0.31834  0.35461  1.0000
  H   H208      1.0  0.26286  0.30251  0.38546  1.0000
  C   C122      1.0  0.14579  0.33739  0.30122  1.0000
  C   C123      1.0  0.14899  0.33895  0.32784  1.0000
  C   C124      1.0  0.15189  0.31530  0.34081  1.0000
  C   C125      1.0  0.15143  0.28962  0.32729  1.0000
  C   C126      1.0  0.14842  0.28815  0.30066  1.0000
  C   C127      1.0  0.14582  0.31196  0.28767  1.0000
  H   H209      1.0  0.14909  0.35855  0.33852  1.0000
  H   H210      1.0  0.15421  0.31682  0.36129  1.0000
  H   H211      1.0  0.14813  0.26846  0.28998  1.0000
  H   H212      1.0  0.14378  0.31061  0.26718  1.0000
  H   H213      1.0  0.08303  0.15731  0.46134  1.0000
  H   H214      1.0  0.34187  0.98746  0.29001  1.0000
  H   H215      1.0  0.04176  0.27869  0.28091  1.0000
  C   C128      1.0  0.21261  0.18285  0.47146  1.0000
  C   C129      1.0  0.19645  0.16057  0.45226  1.0000
  C   C130      1.0  0.19593  0.13117  0.45257  1.0000
  H   H216      1.0  0.32046  0.21490  0.42627  1.0000
  Fe  Fe19      1.0  0.47186  0.35872  0.36475  1.0000
  H   H217      1.0  0.18362  0.11381  0.43773  1.0000
  C   C131      1.0  0.23909  0.27383  0.31738  1.0000
  C   C132      1.0  0.45368  0.07782  0.29787  1.0000
  C   C133      1.0  0.38335  0.98889  0.46947  1.0000
  H   H218      1.0  0.04353  0.34978  0.33125  1.0000
  H   H219      1.0  0.43281  0.08074  0.29883  1.0000
  H   H220      1.0  0.42186  0.06633  0.45359  1.0000
  C   C134      1.0  0.26944  0.22978  0.39165  1.0000
  C   C135      1.0  0.99596  0.29059  0.25554  1.0000
  H   H221      1.0  0.21185  0.35804  0.35092  1.0000
  C   C136      1.0  0.32588  0.25590  0.38416  1.0000
  H   H222      1.0  0.07832  0.24090  0.28533  1.0000
  C   C137      1.0  0.22840  0.19641  0.35846  1.0000
  C   C138      1.0  0.06971  0.25512  0.24938  1.0000
  H   H223      1.0  0.07734  0.44648  0.25265  1.0000
  H   H224      1.0  0.02313  0.28184  0.34752  1.0000
  C   C139      1.0  0.38335  0.28056  0.37129  1.0000
  C   C140      1.0  0.04205  0.23301  0.48568  1.0000
  H   H225      1.0  0.04033  0.25152  0.47595  1.0000
  H   H226      1.0  0.07962  0.29165  0.29304  1.0000
  H   H227      1.0  0.08594  0.22904  0.36937  1.0000
  H   H228      1.0  0.26745  0.25163  0.38925  1.0000
  H   H229      1.0  0.21092  0.10142  0.47173  1.0000
  C   C141      1.0  0.28923  0.27076  0.46974  1.0000
  Fe  Fe20      1.0  0.13542  0.37162  0.24328  1.0000
  H   H230      1.0  0.25772  0.13305  0.43311  1.0000
  H   H231      1.0  0.29584  0.36308  0.29159  1.0000
  H   H232      1.0  0.32281  0.27577  0.37698  1.0000
  H   H233      1.0  0.41304  0.38862  0.48131  1.0000
  C   C142      1.0  0.08244  0.24865  0.37767  1.0000
  H   H234      1.0  0.35249  0.02510  0.46673  1.0000
  C   C143      1.0  0.47978  0.03739  0.41721  1.0000
  H   H235      1.0  0.39482  0.09662  0.46668  1.0000
  H   H236      1.0  0.32882  0.26567  0.43531  1.0000
  H   H237      1.0  0.36397  0.25241  0.40415  1.0000
  H   H238      1.0  0.36611  0.29081  0.40619  1.0000
  H   H239      1.0  0.27812  0.31897  0.31169  1.0000
  H   H240      1.0  0.98642  0.32318  0.31144  1.0000
  C   C144      1.0  0.41373  0.31758  0.25018  1.0000
  H   H241      1.0  0.07985  0.36796  0.34857  1.0000
  H   H242      1.0  0.21915  0.39652  0.31420  1.0000
  H   H243      1.0  0.20627  0.37812  0.26858  1.0000
  C   C145      1.0  0.27275  0.17931  0.41803  1.0000
  H   H244      1.0  0.98949  0.34221  0.26698  1.0000
  H   H245      1.0  0.03474  0.22998  0.36589  1.0000
  H   H246      1.0  0.41078  0.01466  0.27365  1.0000
  C   C146      1.0  0.40666  0.40611  0.47380  1.0000
  H   H247      1.0  0.34785  0.42238  0.31748  1.0000
  H   H248      1.0  0.35054  0.40473  0.28742  1.0000
  H   H249      1.0  0.34529  0.38371  0.31628  1.0000
  H   H250      1.0  0.28165  0.22570  0.45641  1.0000
  H   H251      1.0  0.21057  0.34429  0.30538  1.0000
  C   C147      1.0  0.36023  0.26987  0.39356  1.0000
  C   C148      1.0  0.24707  0.36474  0.37857  1.0000
  H   H252      1.0  0.09365  0.14177  0.43337  1.0000
  H   H253      1.0  0.24167  0.98820  0.41559  1.0000
  H   H254      1.0  0.22486  0.18392  0.33974  1.0000
  H   H255      1.0  0.21619  0.31156  0.33544  1.0000
  C   C149      1.0  0.28648  0.37939  0.32929  1.0000
  H   H256      1.0  0.24569  0.35619  0.28830  1.0000
  C   C150      1.0  0.23579  0.36210  0.30555  1.0000
  H   H257      1.0  0.21115  0.99958  0.41447  1.0000
  C   C151      1.0  0.10117  0.15181  0.45285  1.0000
  H   H258      1.0  0.48310  0.01647  0.42012  1.0000
  H   H259      1.0  0.47940  0.10514  0.36202  1.0000
  H   H260      1.0  0.36969  0.02874  0.28758  1.0000
  H   H261      1.0  0.25843  0.18480  0.43182  1.0000
  H   H262      1.0  0.23472  0.33937  0.38295  1.0000
  N   N9        1.0  0.30063  0.23771  0.40341  1.0000
  H   H263      1.0  0.48131  0.05112  0.45650  1.0000
  H   H264      1.0  0.29741  0.36927  0.34204  1.0000
  H   H265      1.0  0.30708  0.28175  0.42037  1.0000
  C   C152      1.0  0.30340  0.20891  0.41045  1.0000
  C   C153      1.0  0.24205  0.32533  0.33296  1.0000
  C   C154      1.0  0.30586  0.25925  0.42635  1.0000
  H   H266      1.0  0.35327  0.07590  0.47267  1.0000
  C   C155      1.0  0.30339  0.38499  0.30310  1.0000
  H   H267      1.0  0.25754  0.24011  0.44135  1.0000
  H   H268      1.0  0.22823  0.42012  0.27255  1.0000
  H   H269      1.0  0.26028  0.41408  0.30665  1.0000
  H   H270      1.0  0.38132  0.39437  0.46898  1.0000
  H   H271      1.0  0.24716  0.27067  0.33619  1.0000
  C   C156      1.0  0.25222  0.30874  0.31199  1.0000
  H   H272      1.0  0.29486  0.14883  0.41677  1.0000
  H   H273      1.0  0.42026  0.30811  0.26664  1.0000
  C   C157      1.0  0.28143  0.24637  0.44808  1.0000
  H   H274      1.0  0.01513  0.28207  0.49027  1.0000
  Fe  Fe21      1.0  0.42565  0.11930  0.24945  1.0000
  H   H275      1.0  0.24526  0.39560  0.35071  1.0000
  H   H276      1.0  0.29195  0.16373  0.44830  1.0000
  H   H277      1.0  0.12359  0.17389  0.45145  1.0000
  H   H278      1.0  0.42045  0.00427  0.42967  1.0000
  C   C158      1.0  0.98655  0.23148  0.29977  1.0000
  H   H279      1.0  0.40907  0.45036  0.48406  1.0000
  H   H280      1.0  0.05706  0.46979  0.25741  1.0000
  C   C159      1.0  0.43349  0.01526  0.44761  1.0000
  C   C160      1.0  0.37557  0.04599  0.47037  1.0000
  H   H281      1.0  0.08018  0.32983  0.31676  1.0000
  H   H282      1.0  0.31051  0.16651  0.24914  1.0000
  H   H283      1.0  0.24773  0.39814  0.26109  1.0000
  C   C161      1.0  0.47445  0.08986  0.27739  1.0000
  C   C162      1.0  0.46003  0.06213  0.31730  1.0000
  H   H284      1.0  0.04513  0.33804  0.36337  1.0000
  H   H285      1.0  0.21181  0.37320  0.39877  1.0000
  C   C163      1.0  0.30284  0.00987  0.24875  1.0000
  H   H286      1.0  0.44091  0.99842  0.45494  1.0000
  N   N10       1.0  0.41219  0.02033  0.46647  1.0000
  Fe  Fe22      1.0  0.47703  0.40866  0.40572  1.0000
  H   H287      1.0  0.46119  0.06487  0.43584  1.0000
  C   C164      1.0  0.33892  0.39989  0.30636  1.0000
  H   H288      1.0  0.27080  0.26128  0.48467  1.0000
  H   H289      1.0  0.05451  0.27168  0.37253  1.0000
  H   H290      1.0  0.37585  0.00511  0.31028  1.0000
  H   H291      1.0  0.47959  0.25844  0.33970  1.0000
  C   C165      1.0  0.01161  0.23261  0.31838  1.0000
  H   H292      1.0  0.46071  0.39307  0.27870  1.0000
  C   C166      1.0  0.46450  0.04445  0.44051  1.0000
  C   C167      1.0  0.05698  0.25196  0.36332  1.0000
  C   C168      1.0  0.01311  0.40557  0.25851  1.0000
  H   H293      1.0  0.31215  0.27644  0.47837  1.0000
  H   H294      1.0  0.11992  0.11987  0.45795  1.0000
  C   C169      1.0  0.05810  0.34552  0.34510  1.0000
  H   H295      1.0  0.47555  0.47341  0.43000  1.0000
  C   C170      1.0  0.10535  0.12832  0.46897  1.0000
  H   H296      1.0  0.08913  0.27785  0.33304  1.0000
  H   H297      1.0  0.42036  0.41546  0.45606  1.0000
  H   H298      1.0  0.48055  0.40283  0.24817  1.0000
  H   H299      1.0  0.27588  0.23015  0.35025  1.0000
  C   C171      1.0  0.06863  0.22862  0.48150  1.0000
  H   H300      1.0  0.39321  0.03471  0.43564  1.0000
  C   C172      1.0  0.23789  0.37006  0.35171  1.0000
  H   H301      1.0  0.21303  0.26191  0.31721  1.0000
  C   C173      1.0  0.36706  0.00500  0.29091  1.0000
  C   C174      1.0  0.05987  0.24513  0.27676  1.0000
  H   H302      1.0  0.38147  0.29920  0.36075  1.0000
  H   H303      1.0  0.00491  0.38034  0.30435  1.0000
  H   H304      1.0  0.21961  0.21383  0.35718  1.0000
  H   H305      1.0  0.06787  0.23706  0.32722  1.0000
  H   H306      1.0  0.99596  0.42538  0.48357  1.0000
  H   H307      1.0  0.36643  0.99117  0.48276  1.0000
  C   C175      1.0  0.23751  0.38161  0.39924  1.0000
  C   C176      1.0  0.23694  0.39437  0.30174  1.0000
  H   H308      1.0  0.29340  0.40327  0.33765  1.0000
  H   H309      1.0  0.24726  0.26244  0.30251  1.0000
  C   C177      1.0  0.06672  0.32068  0.33456  1.0000
  H   H310      1.0  0.29845  0.40125  0.29189  1.0000
  H   H311      1.0  0.25790  0.16810  0.40108  1.0000
  H   H312      1.0  0.08187  0.10804  0.47165  1.0000
  H   H313      1.0  0.08233  0.31840  0.34858  1.0000
  H   H314      1.0  0.27273  0.37336  0.37999  1.0000
  H   H315      1.0  0.24372  0.31044  0.29298  1.0000
  H   H316      1.0  0.32389  0.24068  0.36720  1.0000
  S   S41       1.0  0.46866  0.11152  0.25315  1.0000
  H   H317      1.0  0.47150  0.30483  0.26808  1.0000
  H   H318      1.0  0.25237  0.32248  0.35058  1.0000
  H   H319      1.0  0.21319  0.20553  0.47152  1.0000
  H   H320      1.0  0.10497  0.27071  0.37698  1.0000
  H   H321      1.0  0.24360  0.37654  0.41819  1.0000
  H   H322      1.0  0.09183  0.27761  0.24901  1.0000
  C   C178      1.0  0.26323  0.21277  0.36517  1.0000
  C   C179      1.0  0.22936  0.39779  0.27430  1.0000
  H   H323      1.0  0.27167  0.19499  0.36427  1.0000
  H   H324      1.0  0.21448  0.17892  0.37297  1.0000
  H   H325      1.0  0.02213  0.29380  0.31640  1.0000
  C   C180      1.0  0.27993  0.15483  0.42974  1.0000
  N   N11       1.0  0.25119  0.35948  0.32941  1.0000
  N   N12       1.0  0.04244  0.26247  0.31870  1.0000
  H   H326      1.0  0.03782  0.22264  0.27586  1.0000
  C   C181      1.0  0.06533  0.25762  0.33465  1.0000
  C   C182      1.0  0.03692  0.28884  0.32953  1.0000
  C   C183      1.0  0.05591  0.27096  0.29227  1.0000
  H   H327      1.0  0.36814  0.07323  0.44148  1.0000
  S   S42       1.0  0.47947  0.31626  0.35494  1.0000
  H   H328      1.0  0.02880  0.39607  0.26496  1.0000
  H   H329      1.0  0.01533  0.21181  0.31423  1.0000
  H   H330      1.0  0.47298  0.26085  0.24551  1.0000
  H   H331      1.0  0.29019  0.29264  0.46275  1.0000
  H   H332      1.0  0.39157  0.31846  0.25462  1.0000
  C   C184      1.0  0.48310  0.40837  0.26892  1.0000
  H   H333      1.0  0.99506  0.23460  0.27981  1.0000
  H   H334      1.0  0.04411  0.31440  0.24271  1.0000
  H   H335      1.0  0.38770  0.25383  0.24658  1.0000
  C   C185      1.0  0.37428  0.99629  0.24382  1.0000
  H   H336      1.0  0.01797  0.32020  0.48589  1.0000
  C   C186      1.0  0.38592  0.99682  0.27125  1.0000
  H   H337      1.0  0.12198  0.08773  0.48852  1.0000
  H   H338      1.0  0.14681  0.15913  0.48939  1.0000
  S   S43       1.0  0.34985  0.12744  0.24061  1.0000
  Fe  Fe23      1.0  0.25449  0.07171  0.58156  1.0000
  S   S44       1.0  0.28952  0.10101  0.55241  1.0000
  S   S45       1.0  0.26064  0.08436  0.62422  1.0000
  Fe  Fe24      1.0  0.21149  0.02368  0.54001  1.0000
  S   S46       1.0  0.24396  0.05093  0.50847  1.0000
  H   H339      1.0  0.13080  0.34912  0.53516  1.0000
  Fe  Fe25      1.0  0.28190  0.05476  0.53502  1.0000
  S   S47       1.0  0.31912  0.04154  0.52188  1.0000
  Fe  Fe26      1.0  0.24771  0.09432  0.52920  1.0000
  H   H340      1.0  0.35177  0.00520  0.52002  1.0000
  S   S48       1.0  0.24923  0.02548  0.56550  1.0000
  S   S49       1.0  0.21283  0.06685  0.55943  1.0000
  H   H341      1.0  0.23057  0.15769  0.70868  1.0000
  C   C187      1.0  0.36747  0.42881  0.72096  1.0000
  Fe  Fe27      1.0  0.37878  0.22003  0.71989  1.0000
  S   S50       1.0  0.37290  0.20464  0.67777  1.0000
  S   S51       1.0  0.20479  0.34312  0.71197  1.0000
  Fe  Fe28      1.0  0.27897  0.42335  0.69861  1.0000
  S   S52       1.0  0.25548  0.38560  0.66870  1.0000
  H   H342      1.0  0.05029  0.36301  0.63999  1.0000
  Fe  Fe29      1.0  0.20974  0.38059  0.68479  1.0000
  S   S53       1.0  0.16860  0.37231  0.65903  1.0000
  Fe  Fe30      1.0  0.25300  0.35254  0.69891  1.0000
  S   S54       1.0  0.26808  0.31547  0.68907  1.0000
  S   S55       1.0  0.23314  0.42039  0.71327  1.0000
  H   H343      1.0  0.31722  0.13731  0.60403  1.0000
  Fe  Fe31      1.0  0.08145  0.46626  0.60577  1.0000
  S   S56       1.0  0.04300  0.45677  0.63434  1.0000
  C   C188      1.0  0.99341  0.38273  0.49804  1.0000
  H   H344      1.0  0.39156  0.14424  0.60571  1.0000
  H   H345      1.0  0.00546  0.30899  0.58272  1.0000
  Fe  Fe32      1.0  0.01090  0.42471  0.60366  1.0000
  S   S57       1.0  0.04954  0.43208  0.57594  1.0000
  H   H346      1.0  0.37020  0.41414  0.51215  1.0000
  C   C189      1.0  0.38664  0.05447  0.66637  1.0000
  C   C190      1.0  0.01944  0.18942  0.51478  1.0000
  H   H347      1.0  0.41876  0.10139  0.68032  1.0000
  H   H348      1.0  0.32611  0.04313  0.65260  1.0000
  H   H349      1.0  0.07376  0.13487  0.53997  1.0000
  H   H350      1.0  0.40757  0.03680  0.69381  1.0000
  C   C191      1.0  0.15589  0.39980  0.65001  1.0000
  C   C192      1.0  0.13473  0.39195  0.62971  1.0000
  C   C193      1.0  0.12502  0.41350  0.62129  1.0000
  C   C194      1.0  0.13660  0.44335  0.63289  1.0000
  C   C195      1.0  0.15744  0.45104  0.65342  1.0000
  C   C196      1.0  0.16652  0.42918  0.66226  1.0000
  H   H351      1.0  0.12627  0.36926  0.62017  1.0000
  H   H352      1.0  0.10952  0.40759  0.60521  1.0000
  H   H353      1.0  0.99860  0.27615  0.54618  1.0000
  H   H354      1.0  0.18153  0.43490  0.67864  1.0000
  H   H355      1.0  0.43373  0.05917  0.66845  1.0000
  C   C197      1.0  0.38265  0.46058  0.63847  1.0000
  C   C198      1.0  0.35673  0.45356  0.65478  1.0000
  H   H356      1.0  0.38545  0.44157  0.62947  1.0000
  H   H357      1.0  0.33982  0.42938  0.65809  1.0000
  H   H358      1.0  0.30483  0.39470  0.58170  1.0000
  C   C199      1.0  0.29690  0.28269  0.70650  1.0000
  C   C200      1.0  0.28518  0.30365  0.71293  1.0000
  H   H359      1.0  0.28414  0.46052  0.63838  1.0000
  H   H360      1.0  0.29687  0.27552  0.68688  1.0000
  H   H361      1.0  0.24694  0.48618  0.58874  1.0000
  C   C201      1.0  0.03979  0.35638  0.62072  1.0000
  C   C202      1.0  0.15314  0.06213  0.51393  1.0000
  C   C203      1.0  0.33831  0.03221  0.54578  1.0000
  H   H362      1.0  0.43990  0.44386  0.49693  1.0000
  C   C204      1.0  0.37129  0.01813  0.58260  1.0000
  C   C205      1.0  0.35644  0.03637  0.58920  1.0000
  C   C206      1.0  0.33971  0.04315  0.57093  1.0000
  H   H363      1.0  0.08363  0.08703  0.53901  1.0000
  H   H364      1.0  0.35740  0.04480  0.60856  1.0000
  H   H365      1.0  0.32834  0.05721  0.57620  1.0000
  C   C207      1.0  0.29263  0.11746  0.63874  1.0000
  C   C208      1.0  0.29321  0.12135  0.66540  1.0000
  C   C209      1.0  0.31760  0.14777  0.67767  1.0000
  C   C210      1.0  0.34184  0.17059  0.66340  1.0000
  C   C211      1.0  0.34154  0.16644  0.63679  1.0000
  C   C212      1.0  0.31717  0.14003  0.62451  1.0000
  H   H366      1.0  0.27443  0.10400  0.67661  1.0000
  H   H367      1.0  0.31758  0.15052  0.69817  1.0000
  H   H368      1.0  0.36028  0.18383  0.62555  1.0000
  H   H369      1.0  0.27672  0.47104  0.60841  1.0000
  N   N13       1.0  0.04156  0.29831  0.56795  1.0000
  C   C213      1.0  0.44699  0.42952  0.55383  1.0000
  C   C214      1.0  0.02447  0.28817  0.54284  1.0000
  C   C215      1.0  0.03099  0.26927  0.58359  1.0000
  C   C216      1.0  0.07669  0.31292  0.56403  1.0000
  S   S58       1.0  0.12870  0.47279  0.62038  1.0000
  S   S59       1.0  0.03961  0.47987  0.51966  1.0000
  C   C217      1.0  0.03510  0.24189  0.57101  1.0000
  H   H370      1.0  0.37985  0.04823  0.49114  1.0000
  H   H371      1.0  0.27024  0.47749  0.67728  1.0000
  C   C218      1.0  0.28462  0.03558  0.67332  1.0000
  H   H372      1.0  0.06126  0.12549  0.50738  1.0000
  H   H373      1.0  0.45510  0.43555  0.73319  1.0000
  H   H374      1.0  0.23171  0.46723  0.66802  1.0000
  C   C219      1.0  0.34802  0.41696  0.55980  1.0000
  H   H375      1.0  0.02975  0.27063  0.53269  1.0000
  C   C220      1.0  0.03160  0.21757  0.59044  1.0000
  C   C221      1.0  0.46490  0.07465  0.52219  1.0000
  H   H376      1.0  0.04401  0.27528  0.60187  1.0000
  H   H377      1.0  0.08805  0.30813  0.58036  1.0000
  H   H378      1.0  0.08212  0.30161  0.54721  1.0000
  H   H379      1.0  0.02907  0.33385  0.53133  1.0000
  H   H380      1.0  0.41055  0.14618  0.68817  1.0000
  H   H381      1.0  0.37081  0.31136  0.68296  1.0000
  H   H382      1.0  0.03401  0.19805  0.58067  1.0000
  H   H383      1.0  0.05835  0.25036  0.56168  1.0000
  H   H384      1.0  0.01661  0.22959  0.55652  1.0000
  H   H385      1.0  0.38950  0.05918  0.64577  1.0000
  C   C222      1.0  0.33036  0.40357  0.58457  1.0000
  N   N14       1.0  0.40417  0.44426  0.54016  1.0000
  C   C223      1.0  0.04288  0.32810  0.61013  1.0000
  H   H386      1.0  0.34359  0.43670  0.55490  1.0000
  H   H387      1.0  0.16314  0.40994  0.73480  1.0000
  H   H388      1.0  0.17468  0.19602  0.56565  1.0000
  H   H389      1.0  0.33756  0.39825  0.54481  1.0000
  C   C224      1.0  0.03154  0.31987  0.58211  1.0000
  H   H390      1.0  0.00807  0.20764  0.59958  1.0000
  C   C225      1.0  0.40897  0.13130  0.63889  1.0000
  H   H391      1.0  0.05002  0.22824  0.60524  1.0000
  S   S60       1.0  0.98958  0.16463  0.53627  1.0000
  C   C226      1.0  0.39342  0.08446  0.68232  1.0000
  N   N15       1.0  0.37353  0.09998  0.67672  1.0000
  C   C227      1.0  0.37585  0.10883  0.64919  1.0000
  C   C228      1.0  0.33950  0.07906  0.68399  1.0000
  H   H392      1.0  0.22893  0.42597  0.64605  1.0000
  H   H393      1.0  0.03904  0.34208  0.57198  1.0000
  H   H394      1.0  0.26449  0.15108  0.70670  1.0000
  H   H395      1.0  0.39053  0.07758  0.70257  1.0000
  H   H396      1.0  0.39467  0.39919  0.52323  1.0000
  H   H397      1.0  0.12562  0.15728  0.54364  1.0000
  H   H398      1.0  0.36073  0.12008  0.64597  1.0000
  H   H399      1.0  0.36652  0.08772  0.63644  1.0000
  C   C229      1.0  0.12907  0.35989  0.55373  1.0000
  H   H400      1.0  0.32852  0.09347  0.69159  1.0000
  H   H401      1.0  0.21464  0.38886  0.61027  1.0000
  S   S61       1.0  0.38671  0.26844  0.73209  1.0000
  Fe  Fe33      1.0  0.04193  0.47201  0.56217  1.0000
  N   N16       1.0  0.11912  0.12157  0.51498  1.0000
  H   H402      1.0  0.37002  0.32036  0.72848  1.0000
  C   C230      1.0  0.26755  0.46629  0.62812  1.0000
  H   H403      1.0  0.36469  0.34959  0.71194  1.0000
  H   H404      1.0  0.27406  0.04924  0.68293  1.0000
  H   H405      1.0  0.43286  0.41485  0.56969  1.0000
  S   S62       1.0  0.00146  0.46238  0.58826  1.0000
  C   C231      1.0  0.04617  0.18523  0.51084  1.0000
  C   C232      1.0  0.13549  0.07910  0.52491  1.0000
  H   H406      1.0  0.26365  0.17951  0.72933  1.0000
  H   H407      1.0  0.28625  0.01937  0.68700  1.0000
  C   C233      1.0  0.13443  0.10220  0.50558  1.0000
  N   N17       1.0  0.27521  0.20454  0.64162  1.0000
  C   C234      1.0  0.27075  0.18619  0.61686  1.0000
  C   C235      1.0  0.30977  0.22620  0.64614  1.0000
  C   C236      1.0  0.26300  0.18117  0.66277  1.0000
  C   C237      1.0  0.25677  0.22257  0.64239  1.0000
  C   C238      1.0  0.26511  0.24775  0.62208  1.0000
  C   C239      1.0  0.23685  0.16073  0.61061  1.0000
  C   C240      1.0  0.27146  0.19492  0.69038  1.0000
  C   C241      1.0  0.33090  0.24053  0.62248  1.0000
  C   C242      1.0  0.36350  0.26603  0.63030  1.0000
  C   C243      1.0  0.24218  0.26133  0.62308  1.0000
  C   C244      1.0  0.23548  0.14564  0.58436  1.0000
  H   H408      1.0  0.35912  0.43693  0.73804  1.0000
  H   H409      1.0  0.28552  0.17411  0.61680  1.0000
  H   H410      1.0  0.27913  0.20190  0.60042  1.0000
  H   H411      1.0  0.31297  0.24563  0.65976  1.0000
  H   H412      1.0  0.32070  0.21339  0.65543  1.0000
  H   H413      1.0  0.27178  0.16371  0.66012  1.0000
  H   H414      1.0  0.23697  0.16742  0.66205  1.0000
  H   H415      1.0  0.23119  0.20626  0.64141  1.0000
  H   H416      1.0  0.25986  0.23523  0.66097  1.0000
  H   H417      1.0  0.26430  0.23803  0.60258  1.0000
  H   H418      1.0  0.28880  0.26758  0.62588  1.0000
  H   H419      1.0  0.22842  0.14162  0.62454  1.0000
  H   H420      1.0  0.22053  0.17090  0.61055  1.0000
  H   H421      1.0  0.26306  0.21234  0.69470  1.0000
  H   H422      1.0  0.29716  0.20641  0.69351  1.0000
  H   H423      1.0  0.33396  0.22194  0.61167  1.0000
  H   H424      1.0  0.32094  0.25094  0.60938  1.0000
  H   H425      1.0  0.37862  0.27470  0.61317  1.0000
  H   H426      1.0  0.36199  0.28612  0.63988  1.0000
  H   H427      1.0  0.37463  0.25654  0.64334  1.0000
  H   H428      1.0  0.24917  0.28001  0.60887  1.0000
  H   H429      1.0  0.21800  0.24277  0.61867  1.0000
  H   H430      1.0  0.24235  0.27192  0.64221  1.0000
  H   H431      1.0  0.25089  0.13429  0.58365  1.0000
  H   H432      1.0  0.04806  0.16706  0.52088  1.0000
  H   H433      1.0  0.15145  0.04400  0.52725  1.0000
  C   C245      1.0  0.01753  0.21347  0.50202  1.0000
  C   C246      1.0  0.03238  0.31411  0.52326  1.0000
  C   C247      1.0  0.39333  0.42067  0.72789  1.0000
  C   C248      1.0  0.39476  0.42133  0.51778  1.0000
  H   H434      1.0  0.36262  0.03564  0.67027  1.0000
  C   C249      1.0  0.42781  0.03154  0.49210  1.0000
  H   H435      1.0  0.32411  0.99090  0.63403  1.0000
  C   C250      1.0  0.39166  0.33124  0.69183  1.0000
  C   C251      1.0  0.35319  0.47780  0.66723  1.0000
  C   C252      1.0  0.38187  0.34144  0.71673  1.0000
  H   H436      1.0  0.03194  0.08218  0.55260  1.0000
  H   H437      1.0  0.37767  0.46435  0.52257  1.0000
  C   C253      1.0  0.31697  0.05766  0.66266  1.0000
  C   C254      1.0  0.25654  0.16911  0.70987  1.0000
  H   H438      1.0  0.45447  0.46981  0.53299  1.0000
  H   H439      1.0  0.99056  0.37161  0.56153  1.0000
  H   H440      1.0  0.21662  0.44050  0.61980  1.0000
  H   H441      1.0  0.42439  0.38531  0.71691  1.0000
  H   H442      1.0  0.38518  0.40589  0.56660  1.0000
  C   C255      1.0  0.09477  0.34911  0.56082  1.0000
  H   H443      1.0  0.14083  0.35340  0.56862  1.0000
  C   C256      1.0  0.41446  0.43306  0.49318  1.0000
  H   H444      1.0  0.33824  0.42212  0.59981  1.0000
  C   C257      1.0  0.13493  0.14061  0.53866  1.0000
  H   H445      1.0  0.24102  0.19344  0.50513  1.0000
  H   H446      1.0  0.25640  0.40609  0.61490  1.0000
  H   H447      1.0  0.24095  0.41878  0.58923  1.0000
  H   H448      1.0  0.99297  0.38762  0.51869  1.0000
  H   H449      1.0  0.37306  0.14094  0.73055  1.0000
  H   H450      1.0  0.31707  0.25441  0.72029  1.0000
  C   C258      1.0  0.38311  0.12608  0.72221  1.0000
  H   H451      1.0  0.22017  0.48646  0.63213  1.0000
  C   C259      1.0  0.38363  0.42757  0.56258  1.0000
  H   H452      1.0  0.21110  0.12742  0.58020  1.0000
  H   H453      1.0  0.44396  0.41419  0.53678  1.0000
  H   H454      1.0  0.31357  0.07218  0.64835  1.0000
  H   H455      1.0  0.14153  0.38585  0.55211  1.0000
  H   H456      1.0  0.33787  0.06356  0.69979  1.0000
  H   H457      1.0  0.24304  0.16346  0.56936  1.0000
  C   C260      1.0  0.38567  0.12992  0.69277  1.0000
  H   H458      1.0  0.26894  0.02142  0.65749  1.0000
  H   H459      1.0  0.01978  0.07269  0.51967  1.0000
  H   H460      1.0  0.14744  0.09142  0.54275  1.0000
  H   H461      1.0  0.17810  0.16329  0.57837  1.0000
  H   H462      1.0  0.16647  0.47400  0.66261  1.0000
  H   H463      1.0  0.36714  0.10182  0.72801  1.0000
  H   H464      1.0  0.39203  0.44286  0.58011  1.0000
  C   C261      1.0  0.30844  0.27087  0.72536  1.0000
  H   H465      1.0  0.41793  0.15511  0.64779  1.0000
  H   H466      1.0  0.37666  0.44800  0.70707  1.0000
  H   H467      1.0  0.00574  0.25970  0.58885  1.0000
  H   H468      1.0  0.37298  0.14317  0.68789  1.0000
  C   C262      1.0  0.23555  0.43599  0.62687  1.0000
  H   H469      1.0  0.21014  0.19289  0.56072  1.0000
  H   H470      1.0  0.42581  0.12226  0.64232  1.0000
  H   H471      1.0  0.05692  0.32299  0.51656  1.0000
  S   S63       1.0  0.39177  0.00956  0.60594  1.0000
  H   H472      1.0  0.40045  0.11202  0.59997  1.0000
  S   S64       1.0  0.32153  0.47041  0.68874  1.0000
  H   H473      1.0  0.40942  0.32333  0.69535  1.0000
  C   C263      1.0  0.41064  0.36734  0.73103  1.0000
  C   C264      1.0  0.23715  0.41098  0.60920  1.0000
  H   H474      1.0  0.43174  0.15170  0.60325  1.0000
  H   H475      1.0  0.08444  0.35730  0.54617  1.0000
  H   H476      1.0  0.13309  0.37073  0.72715  1.0000
  H   H477      1.0  0.44315  0.02068  0.49572  1.0000
  C   C265      1.0  0.17117  0.16043  0.53734  1.0000
  H   H478      1.0  0.41347  0.44268  0.73498  1.0000
  C   C266      1.0  0.41502  0.13675  0.73471  1.0000
  H   H479      1.0  0.33415  0.38382  0.59076  1.0000
  C   C267      1.0  0.44766  0.06751  0.49682  1.0000
  C   C268      1.0  0.35312  0.01400  0.53925  1.0000
  H   H480      1.0  0.06760  0.33310  0.61209  1.0000
  C   C269      1.0  0.18419  0.17927  0.56211  1.0000
  S   S65       1.0  0.27867  0.39048  0.72822  1.0000
  C   C270      1.0  0.43783  0.45543  0.54787  1.0000
  C   C271      1.0  0.40801  0.13497  0.61020  1.0000
  H   H481      1.0  0.12919  0.12524  0.55536  1.0000
  S   S66       1.0  0.24757  0.13913  0.51589  1.0000
  H   H482      1.0  0.40151  0.35091  0.67840  1.0000
  H   H483      1.0  0.09467  0.36157  0.57882  1.0000
  H   H484      1.0  0.02834  0.30795  0.62238  1.0000
  C   C272      1.0  0.40922  0.04193  0.67324  1.0000
  H   H485      1.0  0.01471  0.35040  0.62229  1.0000
  H   H486      1.0  0.05204  0.37695  0.60838  1.0000
  C   C273      1.0  0.39876  0.47198  0.53474  1.0000
  H   H487      1.0  0.40014  0.41245  0.71011  1.0000
  H   H488      1.0  0.07428  0.08089  0.50645  1.0000
  C   C274      1.0  0.08523  0.09978  0.52134  1.0000
  H   H489      1.0  0.39371  0.48166  0.55280  1.0000
  H   H490      1.0  0.40318  0.01979  0.66222  1.0000
  H   H491      1.0  0.44349  0.47154  0.56487  1.0000
  H   H492      1.0  0.41000  0.02330  0.50768  1.0000
  H   H493      1.0  0.17832  0.07900  0.51129  1.0000
  H   H494      1.0  0.11139  0.06092  0.52968  1.0000
  H   H495      1.0  0.14305  0.05028  0.49540  1.0000
  H   H496      1.0  0.34738  0.40809  0.71207  1.0000
  H   H497      1.0  0.44795  0.06456  0.53813  1.0000
  H   H498      1.0  0.19320  0.25122  0.72174  1.0000
  H   H499      1.0  0.18256  0.14527  0.53428  1.0000
  H   H500      1.0  0.43247  0.07902  0.49770  1.0000
  H   H501      1.0  0.22244  0.48247  0.71232  1.0000
  H   H502      1.0  0.42672  0.12329  0.72690  1.0000
  C   C275      1.0  0.48129  0.44389  0.56190  1.0000
  H   H503      1.0  0.38123  0.99332  0.55208  1.0000
  C   C276      1.0  0.48418  0.99851  0.50968  1.0000
  C   C277      1.0  0.01172  0.30119  0.49966  1.0000
  H   H504      1.0  0.43040  0.16219  0.73174  1.0000
  C   C278      1.0  0.28656  0.31403  0.73822  1.0000
  H   H505      1.0  0.17840  0.17742  0.52180  1.0000
  H   H506      1.0  0.99717  0.21705  0.50478  1.0000
  C   C279      1.0  0.03103  0.09208  0.53406  1.0000
  H   H507      1.0  0.01632  0.10412  0.53640  1.0000
  H   H508      1.0  0.47842  0.10046  0.52547  1.0000
  C   C280      1.0  0.06392  0.11562  0.52538  1.0000
  H   H509      1.0  0.47801  0.00260  0.52878  1.0000
  H   H510      1.0  0.03716  0.38096  0.50208  1.0000
  H   H511      1.0  0.98659  0.29179  0.50473  1.0000
  C   C281      1.0  0.25604  0.48659  0.66764  1.0000
  C   C282      1.0  0.36951  0.00694  0.55752  1.0000
  H   H512      1.0  0.04199  0.41921  0.49489  1.0000
  H   H513      1.0  0.09105  0.20125  0.49164  1.0000
  C   C283      1.0  0.22768  0.14643  0.49097  1.0000
  H   H514      1.0  0.48154  0.06475  0.52207  1.0000
  H   H515      1.0  0.15864  0.11764  0.49879  1.0000
  C   C284      1.0  0.12183  0.14387  0.49448  1.0000
  H   H516      1.0  0.11331  0.16056  0.50156  1.0000
  C   C285      1.0  0.07054  0.20454  0.49422  1.0000
  H   H517      1.0  0.42600  0.35690  0.73623  1.0000
  Fe  Fe34      1.0  0.23038  0.38310  0.73976  1.0000
  C   C286      1.0  0.02768  0.39360  0.49076  1.0000
  C   C287      1.0  0.22837  0.17590  0.49051  1.0000
  Fe  Fe35      1.0  0.03788  0.22496  0.92156  1.0000
  S   S67       1.0  0.06494  0.25708  0.95405  1.0000
  H   H518      1.0  0.41181  0.13300  0.75549  1.0000
  Fe  Fe36      1.0  0.08727  0.26718  0.88154  1.0000
  S   S68       1.0  0.11644  0.30202  0.91175  1.0000
  S   S69       1.0  0.09917  0.27211  0.83892  1.0000
  Fe  Fe37      1.0  0.10806  0.25975  0.93455  1.0000
  S   S70       1.0  0.15141  0.25860  0.95017  1.0000
  Fe  Fe38      1.0  0.07036  0.29547  0.92792  1.0000
  S   S71       1.0  0.05796  0.33305  0.94191  1.0000
  S   S72       1.0  0.08075  0.22501  0.90340  1.0000
  S   S73       1.0  0.04144  0.26322  0.89636  1.0000
  C   C288      1.0  0.29804  0.30217  0.75710  1.0000
  Fe  Fe39      1.0  0.35354  0.24448  0.76391  1.0000
  S   S74       1.0  0.32038  0.26386  0.77518  1.0000
  Fe  Fe40      1.0  0.38384  0.20236  0.77435  1.0000
  C   C289      1.0  0.47599  0.19897  0.77994  1.0000
  S   S75       1.0  0.38018  0.15785  0.79181  1.0000
  Fe  Fe41      1.0  0.42343  0.27097  0.75887  1.0000
  H   H519      1.0  0.35819  0.37693  0.74380  1.0000
  S   S76       1.0  0.39063  0.24869  0.79151  1.0000
  H   H520      1.0  0.00935  0.24975  0.79083  1.0000
  C   C290      1.0  0.38214  0.39578  0.74877  1.0000
  S   S77       1.0  0.21667  0.38063  0.78196  1.0000
  H   H521      1.0  0.47161  0.18550  0.79761  1.0000
  Fe  Fe42      1.0  0.46221  0.08911  0.88204  1.0000
  S   S78       1.0  0.45459  0.05409  0.85024  1.0000
  H   H522      1.0  0.11288  0.40081  0.75416  1.0000
  H   H523      1.0  0.44279  0.39462  0.77979  1.0000
  H   H524      1.0  0.40315  0.33382  0.96298  1.0000
  Fe  Fe43      1.0  0.42347  0.01855  0.87872  1.0000
  S   S79       1.0  0.42971  0.05379  0.90984  1.0000
  C   C291      1.0  0.19316  0.02035  0.95974  1.0000
  H   H525      1.0  0.07704  0.16446  0.97715  1.0000
  C   C292      1.0  0.22299  0.02436  0.96554  1.0000
  C   C293      1.0  0.24430  0.05131  0.97944  1.0000
  H   H526      1.0  0.02383  0.30424  0.78146  1.0000
  H   H527      1.0  0.32880  0.02415  0.97922  1.0000
  C   C294      1.0  0.40311  0.15231  0.81522  1.0000
  C   C295      1.0  0.42013  0.17550  0.83357  1.0000
  C   C296      1.0  0.43741  0.16978  0.85214  1.0000
  C   C297      1.0  0.43787  0.14085  0.85267  1.0000
  C   C298      1.0  0.42048  0.11748  0.83452  1.0000
  C   C299      1.0  0.40311  0.12316  0.81602  1.0000
  H   H528      1.0  0.41921  0.19744  0.83384  1.0000
  H   H529      1.0  0.28334  0.40688  0.95004  1.0000
  H   H530      1.0  0.42032  0.09499  0.83479  1.0000
  H   H531      1.0  0.38967  0.10486  0.80216  1.0000
  H   H532      1.0  0.28876  0.37234  0.94939  1.0000
  C   C300      1.0  0.05832  0.36705  0.78287  1.0000
  H   H533      1.0  0.02012  0.12226  0.97553  1.0000
  H   H534      1.0  0.98862  0.36966  0.79807  1.0000
  H   H535      1.0  0.29910  0.31022  0.77663  1.0000
  H   H536      1.0  0.15093  0.42955  0.84120  1.0000
  C   C301      1.0  0.46000  0.37143  0.82044  1.0000
  C   C302      1.0  0.45358  0.34617  0.80313  1.0000
  H   H537      1.0  0.44187  0.37023  0.83343  1.0000
  H   H538      1.0  0.43080  0.32563  0.80307  1.0000
  C   C303      1.0  0.25363  0.37138  0.97655  1.0000
  N   N18       1.0  0.40344  0.38180  0.75447  1.0000
  H   H539      1.0  0.39992  0.34241  0.77549  1.0000
  C   C304      1.0  0.13209  0.30260  0.82360  1.0000
  C   C305      1.0  0.15513  0.32839  0.83703  1.0000
  C   C306      1.0  0.18077  0.35201  0.82398  1.0000
  C   C307      1.0  0.18373  0.35024  0.79738  1.0000
  C   C308      1.0  0.16072  0.32440  0.78396  1.0000
  C   C309      1.0  0.13506  0.30082  0.79700  1.0000
  H   H540      1.0  0.15321  0.33020  0.85748  1.0000
  H   H541      1.0  0.19839  0.37187  0.83459  1.0000
  H   H542      1.0  0.16264  0.32260  0.76352  1.0000
  H   H543      1.0  0.11740  0.28100  0.78638  1.0000
  C   C310      1.0  0.04116  0.34656  0.91899  1.0000
  C   C311      1.0  0.04480  0.34207  0.89299  1.0000
  C   C312      1.0  0.03185  0.35356  0.87504  1.0000
  C   C313      1.0  0.01481  0.36919  0.88278  1.0000
  C   C314      1.0  0.01060  0.37318  0.90878  1.0000
  C   C315      1.0  0.02407  0.36222  0.92682  1.0000
  H   H544      1.0  0.05819  0.33039  0.88671  1.0000
  C   C316      1.0  0.41847  0.32845  0.97495  1.0000
  C   C317      1.0  0.06209  0.15118  0.93858  1.0000
  H   H545      1.0  0.02118  0.36581  0.94688  1.0000
  H   H546      1.0  0.46163  0.42137  0.97278  1.0000
  H   H547      1.0  0.32239  0.01155  0.86886  1.0000
  H   H548      1.0  0.04296  0.26212  0.81103  1.0000
  H   H549      1.0  0.07646  0.99814  0.92423  1.0000
  H   H550      1.0  0.05712  0.12641  0.94052  1.0000
  C   C318      1.0  0.18430  0.23437  0.97504  1.0000
  H   H551      1.0  0.46930  0.23271  0.81631  1.0000
  C   C319      1.0  0.38037  0.36601  0.79999  1.0000
  H   H552      1.0  0.20137  0.24451  0.95996  1.0000
  C   C320      1.0  0.36445  0.33782  0.81724  1.0000
  S   S80       1.0  0.41953  0.22495  0.74332  1.0000
  H   H553      1.0  0.04538  0.15212  0.92483  1.0000
  H   H554      1.0  0.46422  0.31953  0.86377  1.0000
  C   C321      1.0  0.47655  0.34769  0.78581  1.0000
  C   C322      1.0  0.46173  0.42564  0.74920  1.0000
  H   H555      1.0  0.34825  0.01180  0.95535  1.0000
  C   C323      1.0  0.45957  0.48057  0.96872  1.0000
  H   H556      1.0  0.24584  0.04283  0.88040  1.0000
  H   H557      1.0  0.09086  0.34227  0.75902  1.0000
  H   H558      1.0  0.05230  0.32737  0.82440  1.0000
  H   H559      1.0  0.36464  0.37684  0.79895  1.0000
  H   H560      1.0  0.40247  0.38311  0.80939  1.0000
  H   H561      1.0  0.39609  0.27976  0.96153  1.0000
  H   H562      1.0  0.07045  0.39163  0.77625  1.0000
  H   H563      1.0  0.30334  0.03093  0.85349  1.0000
  H   H564      1.0  0.44243  0.38442  0.95734  1.0000
  H   H565      1.0  0.37908  0.32579  0.81891  1.0000
  H   H566      1.0  0.36111  0.34585  0.83654  1.0000
  H   H567      1.0  0.34112  0.32080  0.80961  1.0000
  N   N19       1.0  0.33918  0.06786  0.89822  1.0000
  C   C324      1.0  0.34080  0.04368  0.91479  1.0000
  C   C325      1.0  0.34803  0.06327  0.87131  1.0000
  C   C326      1.0  0.36384  0.09990  0.90752  1.0000
  C   C327      1.0  0.30743  0.06694  0.89924  1.0000
  C   C328      1.0  0.27824  0.03449  0.90333  1.0000
  C   C329      1.0  0.33827  0.04900  0.94386  1.0000
  C   C330      1.0  0.36732  0.12835  0.89221  1.0000
  C   C331      1.0  0.32624  0.03189  0.85753  1.0000
  H   H568      1.0  0.19350  0.30765  0.98463  1.0000
  C   C332      1.0  0.24787  0.03652  0.90013  1.0000
  H   H569      1.0  0.06601  0.19034  0.96114  1.0000
  C   C333      1.0  0.38959  0.15939  0.90552  1.0000
  H   H570      1.0  0.36328  0.04291  0.91144  1.0000
  H   H571      1.0  0.32254  0.01957  0.90955  1.0000
  H   H572      1.0  0.34843  0.08153  0.85878  1.0000
  H   H573      1.0  0.37233  0.06602  0.87091  1.0000
  H   H574      1.0  0.38734  0.10071  0.90790  1.0000
  H   H575      1.0  0.35873  0.10469  0.92740  1.0000
  H   H576      1.0  0.30655  0.08255  0.91500  1.0000
  H   H577      1.0  0.30362  0.07681  0.88158  1.0000
  H   H578      1.0  0.47984  0.46954  0.77155  1.0000
  H   H579      1.0  0.37861  0.40760  0.76609  1.0000
  H   H580      1.0  0.36120  0.06753  0.95114  1.0000
  H   H581      1.0  0.24941  0.32493  0.97847  1.0000
  H   H582      1.0  0.34440  0.12804  0.88989  1.0000
  H   H583      1.0  0.37731  0.12837  0.87310  1.0000
  H   H584      1.0  0.43410  0.29488  0.84130  1.0000
  H   H585      1.0  0.36333  0.02931  0.83489  1.0000
  C   C334      1.0  0.40139  0.29325  0.97989  1.0000
  S   S81       1.0  0.16608  0.98788  0.94089  1.0000
  H   H586      1.0  0.42895  0.42270  0.77926  1.0000
  C   C335      1.0  0.33000  0.01936  0.95856  1.0000
  H   H587      1.0  0.32438  0.00590  0.82259  1.0000
  H   H588      1.0  0.01773  0.34146  0.80859  1.0000
  H   H589      1.0  0.22984  0.00699  0.95889  1.0000
  H   H590      1.0  0.17167  0.22335  0.74591  1.0000
  H   H591      1.0  0.30432  0.40100  0.97544  1.0000
  H   H592      1.0  0.39251  0.17928  0.89373  1.0000
  H   H593      1.0  0.38007  0.16174  0.92438  1.0000
  H   H594      1.0  0.41301  0.16077  0.90804  1.0000
  N   N20       1.0  0.21761  0.28057  0.80882  1.0000
  C   C336      1.0  0.19992  0.28117  0.83263  1.0000
  C   C337      1.0  0.24030  0.31397  0.80228  1.0000
  C   C338      1.0  0.19417  0.26689  0.78737  1.0000
  C   C339      1.0  0.23430  0.26094  0.81114  1.0000
  C   C340      1.0  0.24648  0.25942  0.83793  1.0000
  C   C341      1.0  0.17101  0.24963  0.83925  1.0000
  H   H595      1.0  0.47926  0.30181  0.81404  1.0000
  C   C342      1.0  0.26671  0.33304  0.82157  1.0000
  C   C343      1.0  0.28590  0.36706  0.81339  1.0000
  C   C344      1.0  0.26859  0.24488  0.83642  1.0000
  C   C345      1.0  0.15985  0.25040  0.86653  1.0000
  H   H596      1.0  0.39710  0.38350  0.96121  1.0000
  H   H597      1.0  0.19122  0.29864  0.83091  1.0000
  H   H598      1.0  0.21548  0.28960  0.84944  1.0000
  H   H599      1.0  0.25266  0.31466  0.78422  1.0000
  H   H600      1.0  0.22725  0.32737  0.79895  1.0000
  H   H601      1.0  0.17925  0.27876  0.78692  1.0000
  H   H602      1.0  0.17778  0.24168  0.79061  1.0000
  H   H603      1.0  0.21873  0.23604  0.80517  1.0000
  H   H604      1.0  0.25439  0.26899  0.79759  1.0000
  H   H605      1.0  0.22656  0.24463  0.85046  1.0000
  H   H606      1.0  0.25922  0.28278  0.84742  1.0000
  H   H607      1.0  0.15120  0.24520  0.82646  1.0000
  H   H608      1.0  0.17622  0.22963  0.83690  1.0000
  S   S82       1.0  0.99986  0.38400  0.85939  1.0000
  C   C346      1.0  0.18472  0.04324  0.96854  1.0000
  H   H609      1.0  0.25728  0.33358  0.84084  1.0000
  H   H610      1.0  0.28314  0.32298  0.82231  1.0000
  H   H611      1.0  0.30514  0.38022  0.82716  1.0000
  H   H612      1.0  0.29638  0.36800  0.79424  1.0000
  H   H613      1.0  0.27085  0.37877  0.81288  1.0000
  H   H614      1.0  0.25701  0.22130  0.82688  1.0000
  H   H615      1.0  0.29021  0.26022  0.82573  1.0000
  H   H616      1.0  0.27545  0.24232  0.85589  1.0000
  H   H617      1.0  0.17815  0.25333  0.88039  1.0000
  H   H618      1.0  0.15394  0.26995  0.86941  1.0000
  H   H619      1.0  0.13845  0.22801  0.87034  1.0000
  H   H620      1.0  0.32036  0.05672  0.94828  1.0000
  H   H621      1.0  0.48460  0.38316  0.93070  1.0000
  C   C347      1.0  0.15641  0.23676  0.97463  1.0000
  C   C348      1.0  0.99181  0.47062  0.96284  1.0000
  Fe  Fe44      1.0  0.47098  0.04735  0.92157  1.0000
  C   C349      1.0  0.45687  0.39655  0.97426  1.0000
  C   C350      1.0  0.05956  0.16542  0.96434  1.0000
  H   H622      1.0  0.10785  0.40728  0.80863  1.0000
  H   H623      1.0  0.06687  0.42878  0.96453  1.0000
  H   H624      1.0  0.04621  0.45136  0.96973  1.0000
  H   H625      1.0  0.47984  0.27702  0.86703  1.0000
  H   H626      1.0  0.22605  0.26051  0.75982  1.0000
  H   H627      1.0  0.45047  0.25382  0.84352  1.0000
  H   H628      1.0  0.03484  0.35021  0.85507  1.0000
  H   H629      1.0  0.14183  0.40748  0.77794  1.0000
  H   H630      1.0  0.98633  0.48185  0.76037  1.0000
  C   C351      1.0  0.03092  0.36486  0.80009  1.0000
  H   H631      1.0  0.11586  0.35739  0.83887  1.0000
  H   H632      1.0  0.08268  0.31980  0.81330  1.0000
  C   C352      1.0  0.04230  0.29949  0.78921  1.0000
  C   C353      1.0  0.02593  0.14737  0.97548  1.0000
  H   H633      1.0  0.11868  0.34858  0.78272  1.0000
  H   H634      1.0  0.27765  0.01603  0.88998  1.0000
  C   C354      1.0  0.38660  0.35577  0.77308  1.0000
  H   H635      1.0  0.00947  0.14828  0.96148  1.0000
  H   H636      1.0  0.08623  0.16480  0.93090  1.0000
  H   H637      1.0  0.12315  0.40435  0.86455  1.0000
  C   C355      1.0  0.28446  0.38888  0.96199  1.0000
  H   H638      1.0  0.44983  0.18747  0.86666  1.0000
  H   H639      1.0  0.08158  0.38181  0.83126  1.0000
  C   C356      1.0  0.09827  0.38308  0.81594  1.0000
  H   H640      1.0  0.27799  0.02639  0.92287  1.0000
  H   H641      1.0  0.30681  0.00011  0.95249  1.0000
  S   S83       1.0  0.45968  0.13484  0.87680  1.0000
  C   C357      1.0  0.14053  0.40599  0.84973  1.0000
  S   S84       1.0  0.46948  0.31653  0.76344  1.0000
  H   H642      1.0  0.03998  0.38286  0.81571  1.0000
  C   C358      1.0  0.44849  0.29486  0.85751  1.0000
  C   C359      1.0  0.12507  0.38018  0.82929  1.0000
  H   H643      1.0  0.15954  0.40324  0.85899  1.0000
  H   H644      1.0  0.24697  0.05422  0.91371  1.0000
  C   C360      1.0  0.20803  0.26863  0.76022  1.0000
  C   C361      1.0  0.43353  0.40611  0.76686  1.0000
  H   H645      1.0  0.16176  0.04044  0.96412  1.0000
  H   H646      1.0  0.23435  0.36140  0.96238  1.0000
  H   H647      1.0  0.99757  0.38532  0.91499  1.0000
  H   H648      1.0  0.05524  0.29545  0.77308  1.0000
  H   H649      1.0  0.04838  0.35238  0.76532  1.0000
  N   N21       1.0  0.08140  0.35886  0.79519  1.0000
  H   H650      1.0  0.14355  0.38221  0.81556  1.0000
  S   S85       1.0  0.46260  0.00975  0.89206  1.0000
  C   C362      1.0  0.06515  0.32684  0.80682  1.0000
  S   S86       1.0  0.99209  0.17949  0.92729  1.0000
  H   H651      1.0  0.02877  0.41095  0.97937  1.0000
  H   H652      1.0  0.99677  0.35278  0.76964  1.0000
  C   C363      1.0  0.10395  0.35844  0.77510  1.0000
  H   H653      1.0  0.43243  0.28254  0.87346  1.0000
  C   C364      1.0  0.46746  0.27794  0.84979  1.0000
  H   H654      1.0  0.01932  0.39455  0.77682  1.0000
  C   C365      1.0  0.34032  0.02872  0.83202  1.0000
  H   H655      1.0  0.21878  0.29312  0.75349  1.0000
  H   H656      1.0  0.47155  0.41048  0.74115  1.0000
  H   H657      1.0  0.99587  0.46361  0.94399  1.0000
  C   C366      1.0  0.00755  0.37083  0.78509  1.0000
  H   H658      1.0  0.34359  0.04801  0.81935  1.0000
  H   H659      1.0  0.34507  0.37963  0.96979  1.0000
  H   H660      1.0  0.26748  0.05442  0.98340  1.0000
  H   H661      1.0  0.43985  0.33331  0.96369  1.0000
  C   C367      1.0  0.30834  0.28003  0.75082  1.0000
  H   H662      1.0  0.22741  0.01341  0.90405  1.0000
  C   C368      1.0  0.12628  0.39050  0.76331  1.0000
  C   C369      1.0  0.20584  0.06993  0.98281  1.0000
  H   H663      1.0  0.99284  0.30912  0.96410  1.0000
  H   H664      1.0  0.36331  0.33838  0.76561  1.0000
  H   H665      1.0  0.43972  0.47790  0.95773  1.0000
  H   H666      1.0  0.01200  0.27166  0.81994  1.0000
  S   S87       1.0  0.34280  0.19578  0.75008  1.0000
  C   C370      1.0  0.05111  0.43314  0.97783  1.0000
  C   C371      1.0  0.02568  0.26895  0.80372  1.0000
  H   H667      1.0  0.99164  0.22743  0.85380  1.0000
  H   H668      1.0  0.16206  0.37728  0.75115  1.0000
  C   C372      1.0  0.38713  0.37753  0.98061  1.0000
  C   C373      1.0  0.39351  0.99223  0.98762  1.0000
  H   H669      1.0  0.27825  0.33075  0.74323  1.0000
  H   H670      1.0  0.01681  0.19570  0.98175  1.0000
  H   H671      1.0  0.46950  0.25529  0.79073  1.0000
  H   H672      1.0  0.37357  0.35164  0.98214  1.0000
  H   H673      1.0  0.45338  0.19653  0.77299  1.0000
  C   C374      1.0  0.23590  0.07430  0.98812  1.0000
  C   C375      1.0  0.36387  0.39053  0.98425  1.0000
  H   H674      1.0  0.37590  0.41639  0.98191  1.0000
  C   C376      1.0  0.14733  0.38673  0.74289  1.0000
  H   H675      1.0  0.41434  0.99644  0.97575  1.0000
  H   H676      1.0  0.98553  0.27447  0.92683  1.0000
  S   S88       1.0  0.48353  0.04425  0.96280  1.0000
  H   H677      1.0  0.98529  0.19523  0.87392  1.0000
  H   H678      1.0  0.19907  0.08742  0.98925  1.0000
  H   H679      1.0  0.25015  0.38864  0.98883  1.0000
  H   H680      1.0  0.37889  0.28684  0.99002  1.0000
  C   C377      1.0  0.18259  0.24854  0.74103  1.0000
  H   H681      1.0  0.16425  0.25626  0.74060  1.0000
  H   H682      1.0  0.13408  0.29350  0.98885  1.0000
  Fe  Fe45      1.0  0.02272  0.58353  0.09938  1.0000
  S   S89       1.0  0.06017  0.60498  0.06965  1.0000
  H   H683      1.0  0.36634  0.94066  0.05562  1.0000
  Fe  Fe46      1.0  0.04443  0.53513  0.11353  1.0000
  S   S90       1.0  0.08331  0.55441  0.08488  1.0000
  C   C378      1.0  0.38894  0.96922  0.00858  1.0000
  Fe  Fe47      1.0  0.09185  0.60243  0.09923  1.0000
  S   S91       1.0  0.14055  0.64060  0.11129  1.0000
  Fe  Fe48      1.0  0.04723  0.55461  0.05841  1.0000
  S   S92       1.0  0.04447  0.53544  0.01746  1.0000
  S   S93       1.0  0.05492  0.58292  0.12957  1.0000
  S   S94       1.0  0.00777  0.53352  0.08651  1.0000
  C   C379      1.0  0.03481  0.68997  0.03670  1.0000
  H   H684      1.0  0.05622  0.84856  0.03733  1.0000
  H   H685      1.0  0.04914  0.69024  0.05312  1.0000
  S   S95       1.0  0.44329  0.92879  0.12530  1.0000
  H   H686      1.0  0.44322  0.96818  0.08243  1.0000
  Fe  Fe49      1.0  0.20972  0.80798  0.18519  1.0000
  S   S96       1.0  0.23504  0.79337  0.21267  1.0000
  S   S97       1.0  0.16823  0.77388  0.16060  1.0000
  Fe  Fe50      1.0  0.24965  0.87794  0.20097  1.0000
  S   S98       1.0  0.26328  0.92786  0.19034  1.0000
  Fe  Fe51      1.0  0.27940  0.83506  0.19895  1.0000
  S   S99       1.0  0.32319  0.83081  0.18728  1.0000
  S   S100      1.0  0.25417  0.84730  0.16974  1.0000
  S   S101      1.0  0.20238  0.84022  0.21351  1.0000
  C   C380      1.0  0.13524  0.51952  0.07850  1.0000
  H   H687      1.0  0.38513  0.94692  0.99894  1.0000
  H   H688      1.0  0.10694  0.74687  0.20681  1.0000
  H   H689      1.0  0.09591  0.86068  0.00279  1.0000
  C   C381      1.0  0.27851  0.95885  0.21332  1.0000
  H   H690      1.0  0.42493  0.57142  0.12696  1.0000
  H   H691      1.0  0.19526  0.77061  0.10210  1.0000
  H   H692      1.0  0.46947  0.76041  0.10545  1.0000
  C   C382      1.0  0.40972  0.90083  0.14197  1.0000
  C   C383      1.0  0.38608  0.90874  0.14947  1.0000
  C   C384      1.0  0.35931  0.88754  0.16305  1.0000
  C   C385      1.0  0.35600  0.85822  0.16958  1.0000
  C   C386      1.0  0.37954  0.85028  0.16197  1.0000
  C   C387      1.0  0.40615  0.87134  0.14818  1.0000
  H   H693      1.0  0.38853  0.93145  0.14482  1.0000
  H   H694      1.0  0.34141  0.89400  0.16869  1.0000
  H   H695      1.0  0.37735  0.82777  0.16696  1.0000
  H   H696      1.0  0.42412  0.86493  0.14267  1.0000
  C   C388      1.0  0.01905  0.80998  0.01689  1.0000
  C   C389      1.0  0.04972  0.83488  0.01970  1.0000
  H   H697      1.0  0.09655  0.71158  0.16645  1.0000
  H   H698      1.0  0.07279  0.78575  0.01441  1.0000
  H   H699      1.0  0.23238  0.78731  0.13923  1.0000
  C   C390      1.0  0.45490  0.68562  0.12427  1.0000
  N   N22       1.0  0.41629  0.96240  0.04830  1.0000
  C   C391      1.0  0.40796  0.87748  0.04294  1.0000
  H   H700      1.0  0.09997  0.52894  0.14814  1.0000
  H   H701      1.0  0.35144  0.96808  0.19941  1.0000
  H   H702      1.0  0.36524  0.83704  0.10354  1.0000
  C   C392      1.0  0.04225  0.69042  0.13967  1.0000
  C   C393      1.0  0.09249  0.50518  0.15404  1.0000
  C   C394      1.0  0.14774  0.67744  0.12511  1.0000
  C   C395      1.0  0.13029  0.69236  0.11827  1.0000
  C   C396      1.0  0.13749  0.72222  0.12879  1.0000
  C   C397      1.0  0.16150  0.73712  0.14684  1.0000
  C   C398      1.0  0.17859  0.72200  0.15403  1.0000
  C   C399      1.0  0.17211  0.69256  0.14288  1.0000
  H   H703      1.0  0.11163  0.68112  0.10451  1.0000
  H   H704      1.0  0.12419  0.73378  0.12305  1.0000
  H   H705      1.0  0.19654  0.73290  0.16837  1.0000
  H   H706      1.0  0.18562  0.68112  0.14837  1.0000
  C   C400      1.0  0.46705  0.56941  0.16544  1.0000
  H   H707      1.0  0.45735  0.58938  0.19969  1.0000
  H   H708      1.0  0.44494  0.54803  0.16581  1.0000
  H   H709      1.0  0.43859  0.91903  0.06437  1.0000
  C   C401      1.0  0.11392  0.80300  0.03717  1.0000
  H   H710      1.0  0.12150  0.79995  0.05622  1.0000
  N   N23       1.0  0.03739  0.72211  0.03361  1.0000
  H   H711      1.0  0.10423  0.66397  0.16549  1.0000
  C   C402      1.0  0.37168  0.90339  0.23450  1.0000
  C   C403      1.0  0.05936  0.66453  0.21610  1.0000
  N   N24       1.0  0.46873  0.67030  0.14093  1.0000
  H   H712      1.0  0.98922  0.71449  0.10304  1.0000
  C   C404      1.0  0.27881  0.74207  0.19350  1.0000
  H   H713      1.0  0.38889  0.94195  0.08209  1.0000
  C   C405      1.0  0.00191  0.88324  0.00122  1.0000
  H   H714      1.0  0.27884  0.76306  0.20286  1.0000
  C   C406      1.0  0.01102  0.79264  0.99394  1.0000
  S   S102      1.0  0.47401  0.88542  0.07636  1.0000
  H   H715      1.0  0.02779  0.67002  0.99759  1.0000
  H   H716      1.0  0.39779  0.90324  0.07219  1.0000
  H   H717      1.0  0.30381  0.81257  0.13476  1.0000
  H   H718      1.0  0.02542  0.74773  0.00697  1.0000
  H   H719      1.0  0.05653  0.75304  0.08330  1.0000
  H   H720      1.0  0.43116  0.68058  0.13137  1.0000
  C   C407      1.0  0.03319  0.73200  0.08189  1.0000
  C   C408      1.0  0.47429  0.72165  0.12088  1.0000
  H   H721      1.0  0.33571  0.96303  0.07780  1.0000
  H   H722      1.0  0.02348  0.74070  0.12095  1.0000
  H   H723      1.0  0.03566  0.71106  0.08669  1.0000
  H   H724      1.0  0.12412  0.62288  0.16510  1.0000
  H   H725      1.0  0.06569  0.70920  0.18643  1.0000
  C   C409      1.0  0.01930  0.72812  0.05488  1.0000
  H   H726      1.0  0.09612  0.59874  0.18863  1.0000
  H   H727      1.0  0.14253  0.66923  0.19527  1.0000
  N   N25       1.0  0.08625  0.67997  0.19762  1.0000
  H   H728      1.0  0.38435  0.86624  0.03413  1.0000
  C   C410      1.0  0.07592  0.69481  0.17749  1.0000
  H   H729      1.0  0.34233  0.85737  0.10966  1.0000
  H   H730      1.0  0.98744  0.77375  0.99133  1.0000
  N   N26       1.0  0.27576  0.76377  0.12283  1.0000
  C   C411      1.0  0.24899  0.76535  0.10984  1.0000
  C   C412      1.0  0.28147  0.73881  0.10938  1.0000
  C   C413      1.0  0.26716  0.75623  0.15038  1.0000
  C   C414      1.0  0.30548  0.79470  0.12179  1.0000
  C   C415      1.0  0.31536  0.80914  0.09513  1.0000
  C   C416      1.0  0.24165  0.79190  0.11951  1.0000
  C   C417      1.0  0.25434  0.70463  0.11094  1.0000
  C   C418      1.0  0.26354  0.68130  0.09801  1.0000
  H   H731      1.0  0.22683  0.74314  0.11234  1.0000
  H   H732      1.0  0.25287  0.76721  0.08890  1.0000
  H   H733      1.0  0.28578  0.74372  0.08878  1.0000
  H   H734      1.0  0.30332  0.73938  0.11644  1.0000
  H   H735      1.0  0.24326  0.73610  0.15204  1.0000
  H   H736      1.0  0.32563  0.79227  0.12917  1.0000
  H   H737      1.0  0.29709  0.81380  0.08681  1.0000
  H   H738      1.0  0.31979  0.79327  0.08190  1.0000
  H   H739      1.0  0.26264  0.81528  0.11932  1.0000
  H   H740      1.0  0.29087  0.72773  0.15793  1.0000
  H   H741      1.0  0.24794  0.69740  0.13088  1.0000
  H   H742      1.0  0.23308  0.70213  0.10120  1.0000
  H   H743      1.0  0.28410  0.68189  0.10761  1.0000
  H   H744      1.0  0.24364  0.65715  0.09917  1.0000
  H   H745      1.0  0.26919  0.68676  0.07763  1.0000
  H   H746      1.0  0.43432  0.73103  0.11990  1.0000
  H   H747      1.0  0.26592  0.77625  0.16055  1.0000
  C   C419      1.0  0.45701  0.63660  0.13175  1.0000
  Fe  Fe52      1.0  0.43691  0.50160  0.10690  1.0000
  C   C420      1.0  0.05137  0.67208  0.15791  1.0000
  C   C421      1.0  0.28975  0.74874  0.16588  1.0000
  H   H748      1.0  0.11998  0.92656  0.01561  1.0000
  C   C422      1.0  0.47423  0.59288  0.18469  1.0000
  H   H749      1.0  0.07236  0.63338  0.18135  1.0000
  H   H750      1.0  0.40732  0.62524  0.12783  1.0000
  S   S103      1.0  0.48153  0.54465  0.12143  1.0000
  C   C423      1.0  0.04661  0.64660  0.01992  1.0000
  H   H751      1.0  0.05262  0.63660  0.00267  1.0000
  C   C424      1.0  0.34547  0.84043  0.09666  1.0000
  H   H752      1.0  0.06082  0.65888  0.14614  1.0000
  H   H753      1.0  0.02968  0.65484  0.16741  1.0000
  H   H754      1.0  0.02567  0.67407  0.12525  1.0000
  H   H755      1.0  0.15149  0.51428  0.06652  1.0000
  H   H756      1.0  0.03856  0.64576  0.20618  1.0000
  C   C425      1.0  0.07899  0.78092  0.03332  1.0000
  C   C426      1.0  0.09411  0.65600  0.18471  1.0000
  C   C427      1.0  0.11872  0.64908  0.19774  1.0000
  H   H757      1.0  0.47293  0.57454  0.02759  1.0000
  C   C428      1.0  0.41795  0.98240  0.02624  1.0000
  H   H758      1.0  0.38609  0.56722  0.12389  1.0000
  H   H759      1.0  0.13690  0.51628  0.17116  1.0000
  H   H760      1.0  0.29507  0.73638  0.20409  1.0000
  H   H761      1.0  0.40876  0.95748  0.21044  1.0000
  S   S104      1.0  0.27695  0.86746  0.22967  1.0000
  H   H762      1.0  0.12235  0.96333  0.00568  1.0000
  H   H763      1.0  0.99469  0.56041  0.00627  1.0000
  H   H764      1.0  0.40870  0.86118  0.05699  1.0000
  C   C429      1.0  0.41138  0.58315  0.12046  1.0000
  C   C430      1.0  0.41468  0.90866  0.05625  1.0000
  H   H765      1.0  0.36751  0.96514  0.01944  1.0000
  C   C431      1.0  0.35556  0.97458  0.09134  1.0000
  H   H766      1.0  0.02376  0.62864  0.02746  1.0000
  C   C432      1.0  0.14155  0.75758  0.23526  1.0000
  C   C433      1.0  0.44683  0.97764  0.06291  1.0000
  C   C434      1.0  0.38685  0.98459  0.07756  1.0000
  H   H767      1.0  0.13759  0.61613  0.19477  1.0000
  H   H768      1.0  0.45084  0.67513  0.10463  1.0000
  C   C435      1.0  0.38877  0.95581  0.06565  1.0000
  H   H769      1.0  0.11453  0.64540  0.21836  1.0000
  C   C436      1.0  0.07227  0.84191  0.00008  1.0000
  H   H770      1.0  0.01633  0.74919  0.05115  1.0000
  H   H771      1.0  0.42588  0.88128  0.02800  1.0000
  H   H772      1.0  0.43498  0.68391  0.21290  1.0000
  H   H773      1.0  0.08319  0.74310  0.05141  1.0000
  S   S105      1.0  0.03377  0.49044  0.13470  1.0000
  H   H774      1.0  0.06598  0.78711  0.04806  1.0000
  H   H775      1.0  0.01044  0.67250  0.04175  1.0000
  S   S106      1.0  0.40688  0.50903  0.07848  1.0000
  H   H776      1.0  0.13457  0.71569  0.19603  1.0000
  H   H777      1.0  0.08749  0.50442  0.04515  1.0000
  C   C437      1.0  0.11154  0.73398  0.22186  1.0000
  C   C438      1.0  0.02392  0.72425  0.00860  1.0000
  H   H778      1.0  0.47452  0.53817  0.03127  1.0000
  H   H779      1.0  0.05147  0.68159  0.22336  1.0000
  C   C439      1.0  0.42137  0.61441  0.13495  1.0000
  H   H780      1.0  0.43205  0.65880  0.16933  1.0000
  H   H781      1.0  0.12801  0.79854  0.02222  1.0000
  H   H782      1.0  0.22599  0.80049  0.08338  1.0000
  H   H783      1.0  0.06516  0.65231  0.03429  1.0000
  H   H784      1.0  0.21063  0.81143  0.11126  1.0000
  C   C440      1.0  0.46089  0.69696  0.21083  1.0000
  H   H785      1.0  0.31381  0.76876  0.16603  1.0000
  H   H786      1.0  0.01780  0.88477  0.01679  1.0000
  S   S107      1.0  0.99309  0.60711  0.11068  1.0000
  H   H787      1.0  0.19897  0.97401  0.03377  1.0000
  H   H788      1.0  0.25485  0.72186  0.19451  1.0000
  H   H789      1.0  0.35256  0.95811  0.10671  1.0000
  C   C441      1.0  0.01213  0.73611  0.10204  1.0000
  H   H790      1.0  0.46449  0.65431  0.17932  1.0000
  H   H791      1.0  0.35152  0.85060  0.07749  1.0000
  H   H792      1.0  0.34912  0.88147  0.23627  1.0000
  H   H793      1.0  0.06326  0.70801  0.12955  1.0000
  H   H794      1.0  0.42948  0.93516  0.02185  1.0000
  C   C442      1.0  0.11509  0.70585  0.21019  1.0000
  C   C443      1.0  0.47034  0.70162  0.18277  1.0000
  C   C444      1.0  0.45805  0.66964  0.16819  1.0000
  H   H795      1.0  0.46244  0.63558  0.11118  1.0000
  H   H796      1.0  0.08437  0.74212  0.01791  1.0000
  H   H797      1.0  0.12397  0.69684  0.22541  1.0000
  H   H798      1.0  0.41507  0.58685  0.09969  1.0000
  H   H799      1.0  0.38854  0.91791  0.02832  1.0000
  C   C445      1.0  0.21687  0.79361  0.10296  1.0000
  H   H800      1.0  0.03064  0.70251  0.15015  1.0000
  H   H801      1.0  0.06829  0.69331  0.00606  1.0000
  H   H802      1.0  0.00815  0.75635  0.09765  1.0000
  C   C446      1.0  0.11907  0.61993  0.18580  1.0000
  C   C447      1.0  0.07167  0.74603  0.03432  1.0000
  H   H803      1.0  0.41558  0.60893  0.15532  1.0000
  H   H804      1.0  0.11847  0.82773  0.03585  1.0000
  C   C448      1.0  0.41198  0.93126  0.03729  1.0000
  H   H805      1.0  0.99494  0.70840  0.05568  1.0000
  H   H806      1.0  0.14480  0.52563  0.09811  1.0000
  H   H807      1.0  0.45984  0.71554  0.17486  1.0000
  C   C449      1.0  0.27741  0.95333  0.23936  1.0000
  H   H808      1.0  0.38681  0.97830  0.18253  1.0000
  C   C450      1.0  0.98890  0.70056  0.00435  1.0000
  C   C451      1.0  0.11341  0.49793  0.16711  1.0000
  H   H809      1.0  0.46950  0.62576  0.14169  1.0000
  H   H810      1.0  0.13420  0.54018  0.07085  1.0000
  C   C452      1.0  0.04491  0.67631  0.01328  1.0000
  H   H811      1.0  0.47145  0.68383  0.22015  1.0000
  C   C453      1.0  0.01209  0.50437  0.00121  1.0000
  H   H812      1.0  0.46422  0.97139  0.05376  1.0000
  H   H813      1.0  0.35060  0.92506  0.21277  1.0000
  C   C454      1.0  0.45495  0.73473  0.10800  1.0000
  H   H814      1.0  0.44689  0.72329  0.08898  1.0000
  H   H815      1.0  0.00098  0.90573  0.00099  1.0000
  H   H816      1.0  0.08824  0.49612  0.09319  1.0000
  H   H817      1.0  0.38491  0.90006  0.21821  1.0000
  S   S108      1.0  0.99170  0.80164  0.04243  1.0000
  H   H818      1.0  0.06343  0.89359  0.99871  1.0000
  C   C455      1.0  0.12480  0.94238  0.99939  1.0000
  C   C456      1.0  0.39637  0.96191  0.22686  1.0000
  H   H819      1.0  0.06631  0.62726  0.23262  1.0000
  H   H820      1.0  0.16180  0.76600  0.22191  1.0000
  C   C457      1.0  0.36525  0.93100  0.23009  1.0000
  H   H821      1.0  0.14942  0.95060  0.99304  1.0000
  H   H822      1.0  0.06576  0.93121  0.99735  1.0000
  H   H823      1.0  0.03809  0.72228  0.99238  1.0000
  C   C458      1.0  0.10268  0.49094  0.07914  1.0000
  Fe  Fe53      1.0  0.22977  0.82743  0.24044  1.0000
  H   H824      1.0  0.09225  0.72607  0.23601  1.0000
  H   H825      1.0  0.48291  0.73475  0.13912  1.0000
  Fe  Fe54      1.0  0.48374  0.92292  0.10646  1.0000
  C   C459      1.0  0.06497  0.64872  0.23914  1.0000
  H   H826      1.0  0.46953  0.72020  0.22076  1.0000
  H   H827      1.0  0.43856  0.98649  0.01409  1.0000
  C   C460      1.0  0.37623  0.98680  0.19789  1.0000
  H   H828      1.0  0.01510  0.65768  0.35082  1.0000
  Fe  Fe55      1.0  0.08014  0.80029  0.37980  1.0000
  S   S109      1.0  0.10930  0.79368  0.40910  1.0000
  S   S110      1.0  0.09456  0.81035  0.33812  1.0000
  Fe  Fe56      1.0  0.02867  0.79200  0.41945  1.0000
  S   S111      1.0  0.05570  0.78642  0.45145  1.0000
  H   H829      1.0  0.14990  0.86493  0.36226  1.0000
  Fe  Fe57      1.0  0.09855  0.82640  0.43435  1.0000
  H   H830      1.0  0.24219  0.93409  0.30123  1.0000
  Fe  Fe58      1.0  0.06376  0.75482  0.42309  1.0000
  S   S112      1.0  0.05594  0.70689  0.43466  1.0000
  S   S113      1.0  0.07094  0.83442  0.40418  1.0000
  S   S114      1.0  0.03506  0.75890  0.39196  1.0000
  H   H831      1.0  0.15312  0.73681  0.32234  1.0000
  H   H832      1.0  0.28783  0.97448  0.27715  1.0000
  S   S115      1.0  0.21451  0.81385  0.28173  1.0000
  H   H833      1.0  0.09931  0.88002  0.48571  1.0000
  C   C461      1.0  0.14184  0.71070  0.32312  1.0000
  C   C462      1.0  0.12915  0.81318  0.32331  1.0000
  C   C463      1.0  0.15022  0.80637  0.33616  1.0000
  C   C464      1.0  0.17637  0.80697  0.32326  1.0000
  C   C465      1.0  0.18202  0.81480  0.29745  1.0000
  C   C466      1.0  0.16143  0.82250  0.28485  1.0000
  C   C467      1.0  0.13503  0.82141  0.29764  1.0000
  H   H834      1.0  0.14602  0.80017  0.35592  1.0000
  H   H835      1.0  0.19228  0.80122  0.33326  1.0000
  H   H836      1.0  0.16570  0.82909  0.26515  1.0000
  H   H837      1.0  0.11900  0.82691  0.28753  1.0000
  C   C468      1.0  0.03748  0.67496  0.41282  1.0000
  C   C469      1.0  0.02804  0.64430  0.42077  1.0000
  C   C470      1.0  0.01378  0.61854  0.40361  1.0000
  C   C471      1.0  0.00961  0.62342  0.37822  1.0000
  C   C472      1.0  0.01889  0.65399  0.37032  1.0000
  C   C473      1.0  0.03250  0.67965  0.38757  1.0000
  H   H838      1.0  0.03178  0.64045  0.44027  1.0000
  H   H839      1.0  0.34913  0.97836  0.24270  1.0000
  H   H840      1.0  0.03967  0.70306  0.38117  1.0000
  C   C474      1.0  0.21217  0.92025  0.34849  1.0000
  C   C475      1.0  0.21716  0.91606  0.30027  1.0000
  C   C476      1.0  0.28916  0.97881  0.25703  1.0000
  H   H841      1.0  0.40082  0.95405  0.46562  1.0000
  C   C477      1.0  0.99403  0.50097  0.46504  1.0000
  H   H842      1.0  0.12648  0.74349  0.35700  1.0000
  H   H843      1.0  0.18218  0.87999  0.32314  1.0000
  H   H844      1.0  0.14881  0.88695  0.38924  1.0000
  H   H845      1.0  0.06286  0.60689  0.48514  1.0000
  S   S116      1.0  0.99438  0.59209  0.35567  1.0000
  H   H846      1.0  0.11972  0.72819  0.41445  1.0000
  C   C478      1.0  0.10007  0.66468  0.34544  1.0000
  C   C479      1.0  0.17816  0.92307  0.47865  1.0000
  C   C480      1.0  0.14003  0.71683  0.38090  1.0000
  H   H847      1.0  0.02172  0.57975  0.48214  1.0000
  H   H848      1.0  0.09432  0.71186  0.37173  1.0000
  H   H849      1.0  0.09464  0.60433  0.33527  1.0000
  H   H850      1.0  0.15962  0.73570  0.41819  1.0000
  H   H851      1.0  0.13885  0.77816  0.24215  1.0000
  C   C481      1.0  0.03778  0.63833  0.25814  1.0000
  C   C482      1.0  0.19844  0.83351  0.40416  1.0000
  H   H852      1.0  0.15138  0.76179  0.39978  1.0000
  C   C483      1.0  0.21588  0.97925  0.41569  1.0000
  H   H853      1.0  0.26431  0.94822  0.48681  1.0000
  H   H854      1.0  0.08681  0.64080  0.30741  1.0000
  C   C484      1.0  0.14663  0.90617  0.35278  1.0000
  C   C485      1.0  0.09306  0.73379  0.31476  1.0000
  H   H855      1.0  0.41151  0.96531  0.24359  1.0000
  H   H856      1.0  0.19452  0.91612  0.41246  1.0000
  C   C486      1.0  0.15976  0.88946  0.37001  1.0000
  H   H857      1.0  0.08657  0.66015  0.36368  1.0000
  H   H858      1.0  0.12411  0.70163  0.28370  1.0000
  H   H859      1.0  0.20403  0.87729  0.41948  1.0000
  H   H860      1.0  0.04179  0.62607  0.27405  1.0000
  C   C487      1.0  0.20415  0.87897  0.37760  1.0000
  H   H861      1.0  0.11605  0.74604  0.30496  1.0000
  H   H862      1.0  0.05514  0.58703  0.32319  1.0000
  H   H863      1.0  0.20249  0.92762  0.29661  1.0000
  H   H864      1.0  0.06091  0.86820  0.45353  1.0000
  H   H865      1.0  0.09797  0.86963  0.35445  1.0000
  C   C488      1.0  0.01573  0.49476  0.47809  1.0000
  H   H866      1.0  0.23199  0.93620  0.39748  1.0000
  C   C489      1.0  0.11687  0.71831  0.36156  1.0000
  H   H867      1.0  0.15890  0.70579  0.33341  1.0000
  C   C490      1.0  0.14280  0.73690  0.40474  1.0000
  H   H868      1.0  0.38525  0.90733  0.25226  1.0000
  H   H869      1.0  0.02483  0.86040  0.43804  1.0000
  H   H870      1.0  0.06274  0.60164  0.35555  1.0000
  H   H871      1.0  0.01531  0.62179  0.24884  1.0000
  H   H872      1.0  0.99749  0.81978  0.47127  1.0000
  H   H873      1.0  0.37082  0.98036  0.45098  1.0000
  C   C491      1.0  0.20642  0.92758  0.39455  1.0000
  H   H874      1.0  0.04458  0.72135  0.30615  1.0000
  H   H875      1.0  0.12044  0.66067  0.34947  1.0000
  H   H876      1.0  0.06734  0.71935  0.27898  1.0000
  H   H877      1.0  0.05447  0.63728  0.32679  1.0000
  H   H878      1.0  0.03582  0.65894  0.26616  1.0000
  H   H879      1.0  0.07350  0.75686  0.29193  1.0000
  H   H880      1.0  0.08007  0.68555  0.30507  1.0000
  H   H881      1.0  0.17142  0.70525  0.26301  1.0000
  C   C492      1.0  0.07775  0.63788  0.32710  1.0000
  H   H882      1.0  0.19521  0.86048  0.36228  1.0000
  H   H883      1.0  0.09291  0.74784  0.33181  1.0000
  H   H884      1.0  0.23017  0.88887  0.37734  1.0000
  H   H885      1.0  0.13385  0.67250  0.29568  1.0000
  C   C493      1.0  0.02525  0.86975  0.47893  1.0000
  H   H886      1.0  0.16647  0.85294  0.40491  1.0000
  C   C494      1.0  0.14061  0.69782  0.29562  1.0000
  C   C495      1.0  0.07240  0.60584  0.33587  1.0000
  C   C496      1.0  0.38891  0.96220  0.47998  1.0000
  H   H887      1.0  0.13218  0.69248  0.38708  1.0000
  H   H888      1.0  0.16385  0.72593  0.37253  1.0000
  N   N27       1.0  0.19506  0.90427  0.37239  1.0000
  C   C497      1.0  0.17286  0.71437  0.28287  1.0000
  H   H889      1.0  0.18896  0.82126  0.42228  1.0000
  H   H890      1.0  0.06393  0.69101  0.33398  1.0000
  H   H891      1.0  0.22406  0.84144  0.40341  1.0000
  S   S117      1.0  0.14207  0.86768  0.45217  1.0000
  C   C498      1.0  0.19204  0.86159  0.40292  1.0000
  H   H892      1.0  0.18692  0.81661  0.38814  1.0000
  H   H893      1.0  0.15898  0.93199  0.35535  1.0000
  C   C499      1.0  0.20071  0.95648  0.39315  1.0000
  C   C500      1.0  0.06799  0.73257  0.29682  1.0000
  H   H894      1.0  0.47987  0.52192  0.45166  1.0000
  H   H895      1.0  0.10323  0.90726  0.34501  1.0000
  N   N28       1.0  0.11120  0.69826  0.33757  1.0000
  C   C501      1.0  0.08597  0.70048  0.32265  1.0000
  H   H896      1.0  0.20599  0.96751  0.43395  1.0000
  H   H897      1.0  0.18126  0.74012  0.28235  1.0000
  C   C502      1.0  0.14760  0.89849  0.47448  1.0000
  C   C503      1.0  0.20707  0.89801  0.32496  1.0000
  H   H898      1.0  0.21063  0.96967  0.37555  1.0000
  H   H899      1.0  0.14910  0.90074  0.33246  1.0000
  H   H900      1.0  0.23793  0.93317  0.35197  1.0000
  C   C504      1.0  0.35798  0.93373  0.48692  1.0000
  C   C505      1.0  0.11189  0.89533  0.35794  1.0000
  H   H901      1.0  0.21428  0.89952  0.28409  1.0000
  H   H902      1.0  0.10822  0.90123  0.37789  1.0000
  C   C506      1.0  0.04178  0.87477  0.45312  1.0000
  H   H903      1.0  0.22129  0.88557  0.32682  1.0000
  H   H904      1.0  0.19760  0.92285  0.46826  1.0000
  H   H905      1.0  0.20610  0.93866  0.34293  1.0000
  H   H906      1.0  0.17521  0.94891  0.39428  1.0000
  H   H907      1.0  0.38358  0.97358  0.27599  1.0000
  H   H908      1.0  0.26703  0.92949  0.24588  1.0000
  H   H909      1.0  0.00675  0.59499  0.40986  1.0000
  H   H910      1.0  0.35135  0.93276  0.24650  1.0000
  H   H911      1.0  0.46276  0.94136  0.46364  1.0000
  H   H912      1.0  0.34251  0.92439  0.47004  1.0000
  H   H913      1.0  0.19024  0.71013  0.29329  1.0000
  H   H914      1.0  0.05211  0.89988  0.44815  1.0000
  H   H915      1.0  0.00494  0.77526  0.48843  1.0000
  H   H916      1.0  0.08662  0.66474  0.24954  1.0000
  C   C507      1.0  0.01215  0.83518  0.48703  1.0000
  C   C508      1.0  0.47552  0.96419  0.47295  1.0000
  H   H917      1.0  0.99599  0.50379  0.44466  1.0000
  H   H918      1.0  0.14647  0.74700  0.25183  1.0000
  H   H919      1.0  0.03424  0.49287  0.46754  1.0000
  H   H920      1.0  0.00640  0.87644  0.47698  1.0000
  C   C509      1.0  0.12279  0.89896  0.48832  1.0000
  H   H921      1.0  0.03266  0.83077  0.48757  1.0000
  H   H922      1.0  0.98507  0.65531  0.45819  1.0000
  Fe  Fe59      1.0  0.41892  0.93502  0.55485  1.0000
  S   S118      1.0  0.44747  0.97265  0.58329  1.0000
  S   S119      1.0  0.43622  0.93682  0.51366  1.0000
  Fe  Fe60      1.0  0.36844  0.89776  0.59598  1.0000
  S   S120      1.0  0.39556  0.93339  0.62672  1.0000
  S   S121      1.0  0.32201  0.85313  0.60289  1.0000
  Fe  Fe61      1.0  0.40140  0.96850  0.59703  1.0000
  Fe  Fe62      1.0  0.43891  0.93320  0.60959  1.0000
  C   C510      1.0  0.45403  0.70369  0.65456  1.0000
  S   S122      1.0  0.37286  0.93292  0.56696  1.0000
  S   S123      1.0  0.41145  0.89540  0.58048  1.0000
  S   S124      1.0  0.47281  0.57088  0.56697  1.0000
  H   H923      1.0  0.43508  0.70763  0.64636  1.0000
  Fe  Fe63      1.0  0.16010  0.78060  0.68479  1.0000
  S   S125      1.0  0.17253  0.75110  0.70946  1.0000
  S   S126      1.0  0.19904  0.82651  0.66862  1.0000
  Fe  Fe64      1.0  0.08947  0.74106  0.69892  1.0000
  S   S127      1.0  0.03945  0.73280  0.69383  1.0000
  Fe  Fe65      1.0  0.13017  0.70930  0.69254  1.0000
  S   S128      1.0  0.13414  0.66617  0.67774  1.0000
  S   S129      1.0  0.12849  0.78623  0.71457  1.0000
  S   S130      1.0  0.11935  0.73868  0.66615  1.0000
  H   H924      1.0  0.01066  0.63713  0.72231  1.0000
  C   C511      1.0  0.47523  0.75635  0.67610  1.0000
  S   S131      1.0  0.02802  0.53285  0.63674  1.0000
  H   H925      1.0  0.34575  0.94012  0.50231  1.0000
  H   H926      1.0  0.05519  0.62351  0.54425  1.0000
  C   C512      1.0  0.05796  0.57034  0.64690  1.0000
  C   C513      1.0  0.08933  0.57690  0.64804  1.0000
  C   C514      1.0  0.11229  0.60645  0.65727  1.0000
  C   C515      1.0  0.10431  0.62992  0.66520  1.0000
  C   C516      1.0  0.07309  0.62380  0.66312  1.0000
  C   C517      1.0  0.04998  0.59402  0.65428  1.0000
  H   H927      1.0  0.09585  0.55896  0.64242  1.0000
  H   H928      1.0  0.13639  0.61101  0.65864  1.0000
  H   H929      1.0  0.06679  0.64185  0.66885  1.0000
  H   H930      1.0  0.02581  0.58924  0.65333  1.0000
  C   C518      1.0  0.01022  0.71227  0.71687  1.0000
  H   H931      1.0  0.25847  0.88314  0.56071  1.0000
  C   C519      1.0  0.12487  0.55853  0.53539  1.0000
  H   H932      1.0  0.30379  0.97761  0.59051  1.0000
  C   C520      1.0  0.40135  0.51611  0.64612  1.0000
  H   H933      1.0  0.43089  0.75477  0.73004  1.0000
  H   H934      1.0  0.37347  0.52802  0.67252  1.0000
  H   H935      1.0  0.41845  0.54027  0.64302  1.0000
  C   C521      1.0  0.01577  0.56827  0.58122  1.0000
  C   C522      1.0  0.46805  0.88059  0.64980  1.0000
  C   C523      1.0  0.01685  0.70067  0.73868  1.0000
  H   H936      1.0  0.44403  0.87389  0.64494  1.0000
  H   H937      1.0  0.45643  0.83701  0.66813  1.0000
  C   C524      1.0  0.28892  0.84642  0.62250  1.0000
  C   C525      1.0  0.26474  0.81544  0.62510  1.0000
  C   C526      1.0  0.23761  0.80883  0.63974  1.0000
  C   C527      1.0  0.23401  0.83325  0.65175  1.0000
  C   C528      1.0  0.25825  0.86428  0.64930  1.0000
  C   C529      1.0  0.28560  0.87085  0.63492  1.0000
  H   H938      1.0  0.26697  0.79632  0.61563  1.0000
  H   H939      1.0  0.21923  0.78487  0.64130  1.0000
  H   H940      1.0  0.25572  0.88340  0.65840  1.0000
  H   H941      1.0  0.30395  0.89478  0.63319  1.0000
  H   H942      1.0  0.17808  0.89779  0.71821  1.0000
  H   H943      1.0  0.20746  0.96679  0.49898  1.0000
  H   H944      1.0  0.36905  0.55679  0.60507  1.0000
  H   H945      1.0  0.04261  0.88599  0.49300  1.0000
  H   H946      1.0  0.44028  0.87976  0.52178  1.0000
  C   C530      1.0  0.27458  0.88685  0.71816  1.0000
  C   C531      1.0  0.01325  0.49030  0.50450  1.0000
  H   H947      1.0  0.08450  0.87618  0.56294  1.0000
  Fe  Fe66      1.0  0.03776  0.49566  0.61616  1.0000
  H   H948      1.0  0.17620  0.94600  0.58378  1.0000
  C   C532      1.0  0.20992  0.82880  0.57608  1.0000
  C   C533      1.0  0.47519  0.85969  0.66298  1.0000
  C   C534      1.0  0.41557  0.52481  0.51475  1.0000
  H   H949      1.0  0.32375  0.89774  0.71583  1.0000
  H   H950      1.0  0.22904  0.81003  0.72366  1.0000
  C   C535      1.0  0.09611  0.56393  0.53672  1.0000
  H   H951      1.0  0.98676  0.48912  0.53808  1.0000
  H   H952      1.0  0.27030  0.52822  0.59382  1.0000
  C   C536      1.0  0.35273  0.55628  0.62044  1.0000
  S   S132      1.0  0.16499  0.97919  0.53251  1.0000
  H   H953      1.0  0.22413  0.51515  0.56727  1.0000
  C   C537      1.0  0.03979  0.59764  0.49494  1.0000
  C   C538      1.0  0.04350  0.84941  0.53939  1.0000
  H   H954      1.0  0.22688  0.90512  0.73858  1.0000
  H   H955      1.0  0.23049  0.86558  0.60390  1.0000
  H   H956      1.0  0.00980  0.73625  0.51367  1.0000
  C   C539      1.0  0.00522  0.77848  0.50943  1.0000
  C   C540      1.0  0.04041  0.58253  0.51985  1.0000
  H   H957      1.0  0.31731  0.93187  0.71795  1.0000
  C   C541      1.0  0.25609  0.51351  0.68470  1.0000
  N   N29       1.0  0.48286  0.73493  0.65905  1.0000
  N   N30       1.0  0.26725  0.49480  0.64060  1.0000
  H   H958      1.0  0.19638  0.82296  0.55812  1.0000
  Fe  Fe67      1.0  0.47963  0.54276  0.59732  1.0000
  H   H959      1.0  0.15831  0.90459  0.59097  1.0000
  H   H960      1.0  0.07547  0.54104  0.54019  1.0000
  H   H961      1.0  0.21607  0.84744  0.72248  1.0000
  C   C542      1.0  0.98919  0.49286  0.51784  1.0000
  H   H962      1.0  0.44476  0.78299  0.70507  1.0000
  C   C543      1.0  0.99460  0.74634  0.52092  1.0000
  C   C544      1.0  0.37571  0.50907  0.66279  1.0000
  C   C545      1.0  0.45837  0.67952  0.63688  1.0000
  H   H963      1.0  0.06110  0.62432  0.58783  1.0000
  H   H964      1.0  0.30955  0.90894  0.68869  1.0000
  H   H965      1.0  0.00408  0.56100  0.70593  1.0000
  H   H966      1.0  0.13175  0.64698  0.58186  1.0000
  H   H967      1.0  0.02975  0.79386  0.51526  1.0000
  H   H968      1.0  0.43584  0.54556  0.50663  1.0000
  C   C546      1.0  0.31088  0.96582  0.62788  1.0000
  H   H969      1.0  0.23120  0.92052  0.52287  1.0000
  C   C547      1.0  0.24638  0.50281  0.71194  1.0000
  H   H970      1.0  0.22136  0.53335  0.59702  1.0000
  H   H971      1.0  0.12119  0.54021  0.52054  1.0000
  H   H972      1.0  0.03973  0.82707  0.54772  1.0000
  H   H973      1.0  0.11387  0.66624  0.61977  1.0000
  H   H974      1.0  0.23170  0.82672  0.57286  1.0000
  H   H975      1.0  0.24757  0.52644  0.63580  1.0000
  H   H976      1.0  0.32809  0.95767  0.62182  1.0000
  H   H977      1.0  0.46597  0.76928  0.66470  1.0000
  H   H978      1.0  0.08357  0.60854  0.60195  1.0000
  H   H979      1.0  0.26360  0.91236  0.51948  1.0000
  C   C548      1.0  0.45017  0.74105  0.69724  1.0000
  H   H980      1.0  0.44427  0.69169  0.67266  1.0000
  C   C549      1.0  0.24493  0.50370  0.62780  1.0000
  C   C550      1.0  0.30016  0.52215  0.64159  1.0000
  H   H981      1.0  0.46589  0.68861  0.61749  1.0000
  H   H982      1.0  0.19555  0.81154  0.59057  1.0000
  H   H983      1.0  0.10588  0.58106  0.57586  1.0000
  H   H984      1.0  0.09305  0.67970  0.59946  1.0000
  H   H985      1.0  0.42654  0.72795  0.68853  1.0000
  C   C551      1.0  0.45031  0.86757  0.53300  1.0000
  H   H986      1.0  0.43178  0.85143  0.54602  1.0000
  H   H987      1.0  0.14616  0.58050  0.53040  1.0000
  H   H988      1.0  0.13514  0.69680  0.59764  1.0000
  H   H989      1.0  0.11069  0.65970  0.56124  1.0000
  H   H990      1.0  0.01531  0.87205  0.53048  1.0000
  H   H991      1.0  0.01654  0.61953  0.69325  1.0000
  H   H992      1.0  0.00908  0.58757  0.73234  1.0000
  S   S133      1.0  0.07801  0.50732  0.58916  1.0000
  C   C552      1.0  0.32270  0.52484  0.61924  1.0000
  C   C553      1.0  0.46738  0.96882  0.49797  1.0000
  H   H993      1.0  0.32964  0.50595  0.62035  1.0000
  S   S134      1.0  0.09872  0.70998  0.72437  1.0000
  H   H994      1.0  0.05947  0.60328  0.71251  1.0000
  C   C554      1.0  0.24803  0.50730  0.59864  1.0000
  H   H995      1.0  0.15047  0.91690  0.56118  1.0000
  C   C555      1.0  0.47841  0.89122  0.54852  1.0000
  H   H996      1.0  0.40683  0.53289  0.53161  1.0000
  C   C556      1.0  0.06179  0.87570  0.55889  1.0000
  C   C557      1.0  0.01148  0.84775  0.53345  1.0000
  C   C558      1.0  0.40512  0.49185  0.63393  1.0000
  H   H997      1.0  0.39691  0.51449  0.50012  1.0000
  C   C559      1.0  0.21794  0.86192  0.58577  1.0000
  H   H998      1.0  0.01997  0.57719  0.60127  1.0000
  H   H999      1.0  0.06688  0.89890  0.55142  1.0000
  H   H1000     1.0  0.43152  0.63221  0.62127  1.0000
  H   H1001     1.0  0.24629  0.52228  0.72373  1.0000
  H   H1002     1.0  0.08660  0.62146  0.52818  1.0000
  N   N31       1.0  0.24927  0.92081  0.57415  1.0000
  C   C560      1.0  0.23795  0.88685  0.56602  1.0000
  C   C561      1.0  0.26777  0.94244  0.55291  1.0000
  C   C562      1.0  0.27106  0.92757  0.59644  1.0000
  C   C563      1.0  0.22270  0.92701  0.58288  1.0000
  C   C564      1.0  0.19657  0.91986  0.56327  1.0000
  H   H1003     1.0  0.41957  0.63787  0.65283  1.0000
  C   C565      1.0  0.28916  0.96235  0.60588  1.0000
  H   H1004     1.0  0.27968  0.53427  0.68550  1.0000
  H   H1005     1.0  0.29810  0.96778  0.50714  1.0000
  C   C566      1.0  0.16874  0.92196  0.57570  1.0000
  S   S135      1.0  0.43724  0.49888  0.61300  1.0000
  H   H1006     1.0  0.22340  0.88047  0.54865  1.0000
  H   H1007     1.0  0.26872  0.96589  0.55591  1.0000
  H   H1008     1.0  0.29271  0.94719  0.55323  1.0000
  H   H1009     1.0  0.28886  0.91954  0.59176  1.0000
  H   H1010     1.0  0.25800  0.91426  0.61332  1.0000
  H   H1011     1.0  0.21173  0.91394  0.60047  1.0000
  H   H1012     1.0  0.23170  0.95219  0.58846  1.0000
  H   H1013     1.0  0.18758  0.89603  0.55449  1.0000
  H   H1014     1.0  0.29936  0.54481  0.64363  1.0000
  H   H1015     1.0  0.19557  0.86252  0.58971  1.0000
  H   H1016     1.0  0.26660  0.86348  0.70884  1.0000
  C   C567      1.0  0.24621  0.81370  0.73872  1.0000
  H   H1017     1.0  0.29718  0.95198  0.64434  1.0000
  C   C568      1.0  0.22132  0.51210  0.58815  1.0000
  C   C569      1.0  0.25685  0.93078  0.52518  1.0000
  C   C570      1.0  0.42770  0.64890  0.63407  1.0000
  H   H1018     1.0  0.47595  0.67346  0.64469  1.0000
  H   H1019     1.0  0.47293  0.74906  0.62312  1.0000
  H   H1020     1.0  0.19825  0.49137  0.59190  1.0000
  H   H1021     1.0  0.36468  0.55957  0.63897  1.0000
  H   H1022     1.0  0.98662  0.62122  0.61281  1.0000
  H   H1023     1.0  0.05542  0.56431  0.71391  1.0000
  H   H1024     1.0  0.45422  0.72441  0.70856  1.0000
  N   N32       1.0  0.07185  0.59429  0.56239  1.0000
  C   C571      1.0  0.04430  0.56445  0.57122  1.0000
  C   C572      1.0  0.09963  0.58838  0.55785  1.0000
  C   C573      1.0  0.08046  0.61840  0.58398  1.0000
  C   C574      1.0  0.06458  0.60698  0.53889  1.0000
  C   C575      1.0  0.15903  0.94860  0.50984  1.0000
  C   C576      1.0  0.01370  0.56823  0.72541  1.0000
  C   C577      1.0  0.11051  0.65011  0.58015  1.0000
  H   H1025     1.0  0.26008  0.89690  0.71050  1.0000
  H   H1026     1.0  0.26317  0.49603  0.72041  1.0000
  C   C578      1.0  0.30842  0.90769  0.70977  1.0000
  H   H1027     1.0  0.04837  0.87182  0.57698  1.0000
  C   C579      1.0  0.11315  0.67461  0.60050  1.0000
  H   H1028     1.0  0.05163  0.55437  0.58688  1.0000
  H   H1029     1.0  0.03604  0.54576  0.55612  1.0000
  H   H1030     1.0  0.12062  0.61026  0.55222  1.0000
  H   H1031     1.0  0.10918  0.92395  0.51651  1.0000
  H   H1032     1.0  0.04531  0.56275  0.51511  1.0000
  H   H1033     1.0  0.09406  0.57240  0.51787  1.0000
  H   H1034     1.0  0.19545  0.87766  0.69994  1.0000
  H   H1035     1.0  0.34736  0.57601  0.61785  1.0000
  C   C580      1.0  0.18378  0.87802  0.71825  1.0000
  H   H1036     1.0  0.00676  0.52296  0.73618  1.0000
  C   C581      1.0  0.27218  0.95740  0.50643  1.0000
  H   H1037     1.0  0.03385  0.61707  0.49851  1.0000
  H   H1038     1.0  0.47243  0.77919  0.72543  1.0000
  H   H1039     1.0  0.23916  0.52087  0.67750  1.0000
  C   C582      1.0  0.44956  0.76607  0.71553  1.0000
  H   H1040     1.0  0.99471  0.65117  0.65680  1.0000
  H   H1041     1.0  0.40924  0.65329  0.62566  1.0000
  H   H1042     1.0  0.31264  0.52098  0.65887  1.0000
  H   H1043     1.0  0.01227  0.58540  0.57001  1.0000
  H   H1044     1.0  0.20562  0.93762  0.54820  1.0000
  H   H1045     1.0  0.05851  0.85403  0.52223  1.0000
  H   H1046     1.0  0.02671  0.66074  0.69482  1.0000
  H   H1047     1.0  0.12867  0.55031  0.55382  1.0000
  C   C583      1.0  0.18386  0.94804  0.49609  1.0000
  H   H1048     1.0  0.27291  0.97122  0.61285  1.0000
  C   C584      1.0  0.42600  0.50085  0.52236  1.0000
  H   H1049     1.0  0.98841  0.51882  0.59039  1.0000
  H   H1050     1.0  0.01641  0.57229  0.52802  1.0000
  H   H1051     1.0  0.31180  0.52262  0.60050  1.0000
  C   C585      1.0  0.04929  0.58152  0.72363  1.0000
  H   H1052     1.0  0.47059  0.90458  0.56167  1.0000
  H   H1053     1.0  0.48139  0.69294  0.69637  1.0000
  Fe  Fe68      1.0  0.13952  0.75524  0.73836  1.0000
  H   H1054     1.0  0.16157  0.85578  0.71989  1.0000
  C   C586      1.0  0.00965  0.63696  0.70124  1.0000
  H   H1055     1.0  0.27031  0.82756  0.73110  1.0000
  H   H1056     1.0  0.45730  0.85343  0.51988  1.0000
  H   H1057     1.0  0.44546  0.51273  0.53615  1.0000
  H   H1058     1.0  0.24556  0.76962  0.72776  1.0000
  H   H1059     1.0  0.26532  0.97602  0.51094  1.0000
  C   C587      1.0  0.12851  0.92383  0.50591  1.0000
  H   H1060     1.0  0.40336  0.97016  0.49743  1.0000
  H   H1061     1.0  0.43544  0.49435  0.50524  1.0000
  H   H1062     1.0  0.07368  0.80958  0.73939  1.0000
  C   C588      1.0  0.98540  0.53720  0.58052  1.0000
  N   N33       1.0  0.99345  0.82639  0.51148  1.0000
  H   H1063     1.0  0.99751  0.84037  0.55130  1.0000
  H   H1064     1.0  0.99643  0.74858  0.54198  1.0000
  H   H1065     1.0  0.36283  0.91497  0.49395  1.0000
  S   S136      1.0  0.48427  0.93813  0.62754  1.0000
  H   H1066     1.0  0.19302  0.88386  0.75823  1.0000
  H   H1067     1.0  0.21939  0.81376  0.77229  1.0000
  S   S137      1.0  0.15211  0.76745  0.78036  1.0000
  H   H1068     1.0  0.03833  0.96612  0.91681  1.0000
  Fe  Fe69      1.0  0.13778  0.87295  0.93912  1.0000
  S   S138      1.0  0.13076  0.90274  0.91063  1.0000
  S   S139      1.0  0.09219  0.83050  0.95240  1.0000
  Fe  Fe70      1.0  0.20974  0.91018  0.93113  1.0000
  S   S140      1.0  0.20608  0.94153  0.90234  1.0000
  S   S141      1.0  0.25854  0.92030  0.94338  1.0000
  Fe  Fe71      1.0  0.17109  0.94420  0.92979  1.0000
  H   H1069     1.0  0.98600  0.53198  0.96511  1.0000
  Fe  Fe72      1.0  0.16650  0.89668  0.88626  1.0000
  S   S142      1.0  0.15820  0.88587  0.84347  1.0000
  S   S143      1.0  0.17629  0.91476  0.95962  1.0000
  S   S144      1.0  0.17205  0.86506  0.91369  1.0000
  H   H1070     1.0  0.21897  0.76649  0.75333  1.0000
  H   H1071     1.0  0.26140  0.91927  0.82385  1.0000
  C   C589      1.0  0.34239  0.96629  0.88841  1.0000
  C   C590      1.0  0.34718  0.96554  0.91446  1.0000
  C   C591      1.0  0.32127  0.95085  0.93099  1.0000
  C   C592      1.0  0.29044  0.93794  0.92184  1.0000
  C   C593      1.0  0.28569  0.93909  0.89583  1.0000
  C   C594      1.0  0.31155  0.95269  0.87918  1.0000
  H   H1072     1.0  0.27697  0.90946  0.75444  1.0000
  H   H1073     1.0  0.32505  0.94963  0.95100  1.0000
  H   H1074     1.0  0.26210  0.92890  0.88846  1.0000
  C   C595      1.0  0.15351  0.80043  0.79760  1.0000
  C   C596      1.0  0.14585  0.82185  0.78643  1.0000
  C   C597      1.0  0.14768  0.84794  0.80069  1.0000
  C   C598      1.0  0.15688  0.85285  0.82635  1.0000
  C   C599      1.0  0.16449  0.83138  0.83754  1.0000
  C   C600      1.0  0.16274  0.80533  0.82324  1.0000
  H   H1075     1.0  0.13860  0.81843  0.76678  1.0000
  H   H1076     1.0  0.14173  0.86436  0.79182  1.0000
  H   H1077     1.0  0.17182  0.83490  0.85720  1.0000
  H   H1078     1.0  0.16875  0.78896  0.83211  1.0000
  H   H1079     1.0  0.29136  0.88196  0.75501  1.0000
  H   H1080     1.0  0.37266  0.98222  0.97510  1.0000
  C   C601      1.0  0.01566  0.52280  0.89828  1.0000
  C   C602      1.0  0.25924  0.87696  0.80555  1.0000
  C   C603      1.0  0.04253  0.85652  0.90039  1.0000
  C   C604      1.0  0.05563  0.97787  0.93229  1.0000
  H   H1081     1.0  0.00547  0.75512  0.83712  1.0000
  H   H1082     1.0  0.06376  0.87543  0.89151  1.0000
  C   C605      1.0  0.03747  0.92690  0.95553  1.0000
  H   H1083     1.0  0.03977  0.54107  0.89362  1.0000
  C   C606      1.0  0.99687  0.53831  0.90969  1.0000
  C   C607      1.0  0.01670  0.49501  0.97652  1.0000
  H   H1084     1.0  0.02387  0.88745  0.91197  1.0000
  N   N34       1.0  0.04774  0.75937  0.81906  1.0000
  C   C608      1.0  0.01788  0.74079  0.83395  1.0000
  C   C609      1.0  0.06837  0.79035  0.83280  1.0000
  C   C610      1.0  0.03851  0.76641  0.79372  1.0000
  C   C611      1.0  0.06551  0.74107  0.81392  1.0000
  C   C612      1.0  0.07507  0.72927  0.83748  1.0000
  H   H1085     1.0  0.08362  0.96851  0.95806  1.0000
  H   H1086     1.0  0.00754  0.58739  0.98052  1.0000
  C   C613      1.0  0.06651  0.79109  0.86237  1.0000
  C   C614      1.0  0.09202  0.82178  0.87383  1.0000
  C   C615      1.0  0.08978  0.70831  0.82960  1.0000
  C   C616      1.0  0.27171  0.88535  0.74768  1.0000
  H   H1087     1.0  0.01114  0.54853  0.76239  1.0000
  N   N35       1.0  0.04341  0.90081  0.96457  1.0000
  H   H1088     1.0  0.02290  0.73570  0.85320  1.0000
  H   H1089     1.0  0.09339  0.79899  0.82729  1.0000
  H   H1090     1.0  0.06259  0.80901  0.82688  1.0000
  H   H1091     1.0  0.02311  0.77769  0.79673  1.0000
  H   H1092     1.0  0.02451  0.74441  0.78245  1.0000
  H   H1093     1.0  0.05224  0.72077  0.80065  1.0000
  H   H1094     1.0  0.08782  0.75572  0.80373  1.0000
  H   H1095     1.0  0.05468  0.71530  0.84982  1.0000
  H   H1096     1.0  0.09297  0.74954  0.84856  1.0000
  H   H1097     1.0  0.45863  0.97820  0.94653  1.0000
  H   H1098     1.0  0.10673  0.90508  0.97111  1.0000
  H   H1099     1.0  0.45853  0.94576  0.90737  1.0000
  H   H1100     1.0  0.01734  0.50665  0.91200  1.0000
  H   H1101     1.0  0.04356  0.78920  0.86852  1.0000
  H   H1102     1.0  0.06894  0.77164  0.87078  1.0000
  H   H1103     1.0  0.11544  0.82347  0.87037  1.0000
  H   H1104     1.0  0.09132  0.84238  0.86565  1.0000
  H   H1105     1.0  0.08864  0.82245  0.89472  1.0000
  H   H1106     1.0  0.07284  0.68729  0.81857  1.0000
  H   H1107     1.0  0.11111  0.72147  0.81785  1.0000
  H   H1108     1.0  0.09672  0.70037  0.84680  1.0000
  C   C617      1.0  0.25544  0.89487  0.82875  1.0000
  C   C618      1.0  0.06591  0.78754  0.77596  1.0000
  H   H1109     1.0  0.08206  0.81002  0.78563  1.0000
  H   H1110     1.0  0.02724  0.78543  0.95697  1.0000
  C   C619      1.0  0.10257  0.92507  0.97735  1.0000
  H   H1111     1.0  0.23100  0.88285  0.83612  1.0000
  H   H1112     1.0  0.01006  0.55280  0.92640  1.0000
  H   H1113     1.0  0.03974  0.50670  0.96791  1.0000
  C   C620      1.0  0.02941  0.87022  0.92102  1.0000
  H   H1114     1.0  0.46261  0.93373  0.96566  1.0000
  H   H1115     1.0  0.28382  0.88991  0.79871  1.0000
  H   H1116     1.0  0.05857  0.86774  0.95047  1.0000
  H   H1117     1.0  0.25488  0.85363  0.81222  1.0000
  C   C621      1.0  0.47160  0.98194  0.96394  1.0000
  C   C622      1.0  0.24263  0.78153  0.74526  1.0000
  H   H1118     1.0  0.23640  0.89622  0.78268  1.0000
  H   H1119     1.0  0.02471  0.84444  0.88534  1.0000
  H   H1120     1.0  0.19172  0.83411  0.74914  1.0000
  H   H1121     1.0  0.26092  0.83417  0.77549  1.0000
  H   H1122     1.0  0.46165  0.91353  0.89186  1.0000
  H   H1123     1.0  0.10910  0.94121  0.96138  1.0000
  C   C623      1.0  0.23568  0.87295  0.78432  1.0000
  C   C624      1.0  0.01301  0.87554  0.97525  1.0000
  C   C625      1.0  0.03365  0.79942  0.97445  1.0000
  H   H1124     1.0  0.99365  0.58309  0.77441  1.0000
  C   C626      1.0  0.05329  0.88597  0.94294  1.0000
  H   H1125     1.0  0.99820  0.67454  0.77283  1.0000
  N   N36       1.0  0.24089  0.86110  0.75860  1.0000
  C   C627      1.0  0.99926  0.54026  0.74365  1.0000
  H   H1126     1.0  0.30765  0.95303  0.85905  1.0000
  H   H1127     1.0  0.21187  0.85690  0.79167  1.0000
  H   H1128     1.0  0.01762  0.91755  0.94190  1.0000
  H   H1129     1.0  0.07942  0.77528  0.76946  1.0000
  H   H1130     1.0  0.99220  0.69297  0.96357  1.0000
  C   C628      1.0  0.06444  0.82404  0.97736  1.0000
  H   H1131     1.0  0.03739  0.77374  0.74161  1.0000
  C   C629      1.0  0.47308  0.93952  0.89417  1.0000
  H   H1132     1.0  0.00740  0.85045  0.92799  1.0000
  H   H1133     1.0  0.27139  0.89592  0.84410  1.0000
  H   H1134     1.0  0.07545  0.90315  0.93408  1.0000
  H   H1135     1.0  0.04862  0.83916  0.90861  1.0000
  C   C630      1.0  0.06776  0.91268  0.98546  1.0000
  H   H1136     1.0  0.01479  0.85355  0.97778  1.0000
  C   C631      1.0  0.05371  0.79549  0.75217  1.0000
  C   C632      1.0  0.99282  0.68350  0.75612  1.0000
  C   C633      1.0  0.24146  0.83054  0.76263  1.0000
  C   C634      1.0  0.47370  0.95671  0.97495  1.0000
  H   H1137     1.0  0.00447  0.50949  0.88048  1.0000
  H   H1138     1.0  0.02971  0.93709  0.97162  1.0000
  H   H1139     1.0  0.99347  0.86933  0.96165  1.0000
  H   H1140     1.0  0.04138  0.80937  0.75732  1.0000
  H   H1141     1.0  0.47401  0.94963  0.87530  1.0000
  H   H1142     1.0  0.00491  0.69349  0.81767  1.0000
  H   H1143     1.0  0.47726  0.54776  0.94483  1.0000
  C   C635      1.0  0.99395  0.70878  0.82198  1.0000
  S   S145      1.0  0.37408  0.98321  0.86661  1.0000
  H   H1144     1.0  0.26067  0.78405  0.75924  1.0000
  C   C636      1.0  0.06567  0.95510  0.94338  1.0000
  H   H1145     1.0  0.99617  0.55411  0.89522  1.0000
  H   H1146     1.0  0.04045  0.70491  0.74217  1.0000
  H   H1147     1.0  0.37080  0.97559  0.92177  1.0000
  H   H1148     1.0  0.07653  0.94760  0.92771  1.0000
  H   H1149     1.0  0.47103  0.55891  0.90036  1.0000
  H   H1150     1.0  0.04523  0.98691  0.94730  1.0000
  C   C637      1.0  0.98664  0.56845  0.98973  1.0000
  C   C638      1.0  0.21315  0.85472  0.74212  1.0000
  H   H1151     1.0  0.06010  0.58766  0.74281  1.0000
  C   C639      1.0  0.20531  0.88237  0.74057  1.0000
  C   C640      1.0  0.73900  0.10057  0.16890  1.0000
  Fe  Fe73      1.0  0.83986  0.10590  0.02264  1.0000
  S   S146      1.0  0.85139  0.07712  0.04904  1.0000
  H   H1152     1.0  0.75091  0.14340  0.08121  1.0000
  Fe  Fe74      1.0  0.76865  0.06617  0.03479  1.0000
  S   S147      1.0  0.77680  0.03579  0.06179  1.0000
  S   S148      1.0  0.71877  0.05665  0.02662  1.0000
  Fe  Fe75      1.0  0.81682  0.08146  0.07627  1.0000
  S   S149      1.0  0.82726  0.09382  0.11868  1.0000
  Fe  Fe76      1.0  0.80994  0.03479  0.03149  1.0000
  C   C641      1.0  0.89147  0.24138  0.12340  1.0000
  S   S150      1.0  0.80677  0.11185  0.05081  1.0000
  S   S151      1.0  0.60472  0.99140  0.10381  1.0000
  C   C642      1.0  0.73047  0.12523  0.18126  1.0000
  H   H1153     1.0  0.90790  0.28738  0.14340  1.0000
  S   S152      1.0  0.81962  0.20585  0.18167  1.0000
  H   H1154     1.0  0.98267  0.32862  0.13919  1.0000
  H   H1155     1.0  0.92679  0.23035  0.08915  1.0000
  C   C643      1.0  0.98088  0.27446  0.20450  1.0000
  C   C644      1.0  0.89390  0.18372  0.09993  1.0000
  C   C645      1.0  0.82475  0.12490  0.13598  1.0000
  C   C646      1.0  0.83154  0.12916  0.16216  1.0000
  C   C647      1.0  0.83000  0.15367  0.17653  1.0000
  C   C648      1.0  0.82146  0.17416  0.16485  1.0000
  C   C649      1.0  0.81434  0.16966  0.13875  1.0000
  C   C650      1.0  0.81615  0.14535  0.12436  1.0000
  H   H1156     1.0  0.83812  0.11341  0.17139  1.0000
  H   H1157     1.0  0.83545  0.15670  0.19661  1.0000
  H   H1158     1.0  0.80747  0.18519  0.12952  1.0000
  H   H1159     1.0  0.81075  0.14238  0.10429  1.0000
  C   C651      1.0  0.95945  0.28792  0.11337  1.0000
  H   H1160     1.0  0.65320  0.03745  0.02215  1.0000
  H   H1161     1.0  0.49054  0.05145  0.21909  1.0000
  H   H1162     1.0  0.71219  0.13941  0.08768  1.0000
  C   C652      1.0  0.65653  0.02951  0.04027  1.0000
  C   C653      1.0  0.68675  0.03539  0.04730  1.0000
  C   C654      1.0  0.69080  0.02497  0.07076  1.0000
  C   C655      1.0  0.66522  0.01054  0.08761  1.0000
  H   H1163     1.0  0.72982  0.00322  0.13016  1.0000
  H   H1164     1.0  0.71382  0.02884  0.07615  1.0000
  H   H1165     1.0  0.83722  0.24629  0.13465  1.0000
  H   H1166     1.0  0.75730  0.07895  0.12175  1.0000
  C   C656      1.0  0.85921  0.26898  0.13527  1.0000
  C   C657      1.0  0.74561  0.13625  0.20745  1.0000
  H   H1167     1.0  0.92144  0.16341  0.08168  1.0000
  H   H1168     1.0  0.76954  0.03202  0.12254  1.0000
  N   N37       1.0  0.72223  0.08462  0.14453  1.0000
  C   C658      1.0  0.50198  0.01601  0.99865  1.0000
  H   H1169     1.0  0.97240  0.15084  0.00052  1.0000
  C   C659      1.0  0.73595  0.06445  0.13326  1.0000
  C   C660      1.0  0.68725  0.06562  0.14836  1.0000
  C   C661      1.0  0.67595  0.03848  0.16724  1.0000
  C   C662      1.0  0.88693  0.26397  0.14269  1.0000
  H   H1170     1.0  0.58047  0.39444  0.20383  1.0000
  H   H1171     1.0  0.92974  0.18282  0.14416  1.0000
  H   H1172     1.0  0.95469  0.21781  0.16216  1.0000
  C   C663      1.0  0.64078  0.02466  0.17241  1.0000
  H   H1173     1.0  0.74070  0.15519  0.21525  1.0000
  H   H1174     1.0  0.62735  0.01607  0.15444  1.0000
  H   H1175     1.0  0.93539  0.20782  0.99404  1.0000
  H   H1176     1.0  0.77143  0.14577  0.20611  1.0000
  H   H1177     1.0  0.71906  0.04663  0.11978  1.0000
  H   H1178     1.0  0.60385  0.39411  0.23000  1.0000
  C   C664      1.0  0.63517  0.00541  0.08081  1.0000
  H   H1179     1.0  0.96728  0.25726  0.13727  1.0000
  H   H1180     1.0  0.67688  0.08114  0.15413  1.0000
  H   H1181     1.0  0.67556  0.05447  0.13007  1.0000
  H   H1182     1.0  0.68789  0.04631  0.18584  1.0000
  H   H1183     1.0  0.67997  0.01922  0.15893  1.0000
  H   H1184     1.0  0.89449  0.25127  0.10411  1.0000
  H   H1185     1.0  0.70481  0.11549  0.18386  1.0000
  H   H1186     1.0  0.76956  0.06459  0.16075  1.0000
  H   H1187     1.0  0.71835  0.11821  0.06118  1.0000
  C   C665      1.0  0.75219  0.02185  0.13818  1.0000
  H   H1188     1.0  0.73006  0.03625  0.16759  1.0000
  H   H1189     1.0  0.94130  0.29459  0.10819  1.0000
  C   C666      1.0  0.94606  0.33696  0.22004  1.0000
  C   C667      1.0  0.50368  0.99068  0.00986  1.0000
  C   C668      1.0  0.92209  0.21626  0.10653  1.0000
  H   H1190     1.0  0.51313  0.03901  0.00790  1.0000
  H   H1191     1.0  0.94184  0.31638  0.23137  1.0000
  H   H1192     1.0  0.85611  0.28469  0.14966  1.0000
  H   H1193     1.0  0.94750  0.34622  0.17960  1.0000
  H   H1194     1.0  0.73101  0.08699  0.08965  1.0000
  C   C669      1.0  0.55406  0.37637  0.23869  1.0000
  H   H1195     1.0  0.89533  0.16137  0.18175  1.0000
  H   H1196     1.0  0.75304  0.12753  0.12562  1.0000
  C   C670      1.0  0.72779  0.11001  0.12593  1.0000
  H   H1197     1.0  0.69256  0.08279  0.09636  1.0000
  H   H1198     1.0  0.51621  0.99434  0.02751  1.0000
  H   H1199     1.0  0.76473  0.11284  0.16538  1.0000
  H   H1200     1.0  0.90809  0.22811  0.16964  1.0000
  C   C671      1.0  0.94569  0.32728  0.19205  1.0000
  N   N38       1.0  0.91755  0.23371  0.12921  1.0000
  H   H1201     1.0  0.92334  0.30579  0.18789  1.0000
  H   H1202     1.0  0.86332  0.27997  0.11641  1.0000
  H   H1203     1.0  0.88228  0.25440  0.16208  1.0000
  H   H1204     1.0  0.91947  0.19685  0.20004  1.0000
  C   C672      1.0  0.72537  0.12685  0.08107  1.0000
  H   H1205     1.0  0.95211  0.42457  0.08057  1.0000
  H   H1206     1.0  0.73552  0.08331  0.18361  1.0000
  C   C673      1.0  0.63076  0.01422  0.05678  1.0000
  H   H1207     1.0  0.88430  0.19450  0.15096  1.0000
  C   C674      1.0  0.74694  0.04739  0.15199  1.0000
  C   C675      1.0  0.94790  0.26312  0.13442  1.0000
  H   H1208     1.0  0.73922  0.14629  0.16931  1.0000
  H   H1209     1.0  0.86867  0.21955  0.12256  1.0000
  S   S153      1.0  0.81395  0.99128  0.01755  1.0000
  H   H1210     1.0  0.87307  0.18624  0.09473  1.0000
  H   H1211     1.0  0.60778  0.01063  0.05140  1.0000
  H   H1212     1.0  0.90720  0.18245  0.06015  1.0000
  C   C676      1.0  0.91933  0.18128  0.18395  1.0000
  H   H1213     1.0  0.93943  0.08814  0.03450  1.0000
  H   H1214     1.0  0.71506  0.12326  0.13211  1.0000
  C   C677      1.0  0.90859  0.21401  0.15263  1.0000
  S   S154      1.0  0.80024  0.06346  0.00361  1.0000
  Fe  Fe77      1.0  0.83250  0.22239  0.22317  1.0000
  C   C678      1.0  0.93650  0.08859  0.01365  1.0000
  C   C679      1.0  0.71804  0.09899  0.09788  1.0000
  H   H1215     1.0  0.94328  0.21314  0.10899  1.0000
  H   H1216     1.0  0.88747  0.16761  0.11606  1.0000
  H   H1217     1.0  0.92226  0.10064  0.01005  1.0000
  H   H1218     1.0  0.96542  0.32209  0.18778  1.0000
  C   C680      1.0  0.90149  0.16781  0.07726  1.0000
  C   C681      1.0  0.93011  0.19948  0.15935  1.0000
  H   H1219     1.0  0.88073  0.14487  0.07281  1.0000
  H   H1220     1.0  0.93541  0.17166  0.18862  1.0000
  H   H1221     1.0  0.93258  0.25129  0.21734  1.0000
  C   C682      1.0  0.95685  0.26497  0.22291  1.0000
  H   H1222     1.0  0.97513  0.26791  0.18481  1.0000
  H   H1223     1.0  0.94624  0.27472  0.15261  1.0000
  C   C683      1.0  0.97716  0.44152  0.08391  1.0000
  S   S155      1.0  0.87998  0.15125  0.00659  1.0000
  H   H1224     1.0  0.49323  0.05096  0.18485  1.0000
  H   H1225     1.0  0.63304  0.00450  0.18524  1.0000
  C   C684      1.0  0.97791  0.36540  0.22724  1.0000
  H   H1226     1.0  0.92342  0.06399  0.00624  1.0000
  H   H1227     1.0  0.50231  0.05199  0.08594  1.0000
  H   H1228     1.0  0.50988  0.02011  0.07630  1.0000
  H   H1229     1.0  0.93414  0.45286  0.00691  1.0000
  H   H1230     1.0  0.66871  0.00355  0.10608  1.0000
  C   C685      1.0  0.95720  0.46455  0.99832  1.0000
  H   H1231     1.0  0.63530  0.04255  0.18167  1.0000
  H   H1232     1.0  0.60448  0.00878  0.99709  1.0000
  H   H1233     1.0  0.92639  0.34247  0.22321  1.0000
  H   H1234     1.0  0.76143  0.01106  0.15172  1.0000
  C   C686      1.0  0.58408  0.39845  0.22469  1.0000
  C   C687      1.0  0.96843  0.10520  0.00043  1.0000
  H   H1235     1.0  0.96615  0.27876  0.09599  1.0000
  H   H1236     1.0  0.73602  0.11655  0.22086  1.0000
  H   H1237     1.0  0.48738  0.39284  0.06626  1.0000
  S   S156      1.0  0.87386  0.26978  0.23164  1.0000
  H   H1238     1.0  0.48756  0.43055  0.06634  1.0000
  H   H1239     1.0  0.53524  0.38140  0.23219  1.0000
  H   H1240     1.0  0.54862  0.35205  0.23289  1.0000
  H   H1241     1.0  0.56634  0.00668  0.99789  1.0000
  H   H1242     1.0  0.95252  0.40477  0.22053  1.0000
  H   H1243     1.0  0.59045  0.42338  0.22931  1.0000
  C   C688      1.0  0.49159  0.02604  0.08371  1.0000
  H   H1244     1.0  0.97944  0.46546  0.08565  1.0000
  H   H1245     1.0  0.98284  0.38332  0.21273  1.0000
  H   H1246     1.0  0.98156  0.09229  0.00450  1.0000
  H   H1247     1.0  0.92653  0.43643  0.23336  1.0000
  H   H1248     1.0  0.98454  0.43585  0.10205  1.0000
  H   H1249     1.0  0.98370  0.14212  0.02989  1.0000
  Fe  Fe78      1.0  0.58825  0.02275  0.37304  1.0000
  S   S157      1.0  0.61350  0.06190  0.40166  1.0000
  Fe  Fe79      1.0  0.54136  0.04689  0.35956  1.0000
  S   S158      1.0  0.56467  0.08741  0.38743  1.0000
  C   C689      1.0  0.59846  0.12110  0.28089  1.0000
  Fe  Fe80      1.0  0.61069  0.09273  0.37157  1.0000
  S   S159      1.0  0.64826  0.14080  0.35791  1.0000
  Fe  Fe81      1.0  0.56461  0.05183  0.41429  1.0000
  S   S160      1.0  0.54856  0.05035  0.45594  1.0000
  S   S161      1.0  0.58721  0.05395  0.34228  1.0000
  S   S162      1.0  0.53972  0.01102  0.38714  1.0000
  Fe  Fe82      1.0  0.81490  0.20975  0.27940  1.0000
  C   C690      1.0  0.92697  0.42692  0.42955  1.0000
  S   S163      1.0  0.78194  0.17365  0.30789  1.0000
  Fe  Fe83      1.0  0.88452  0.24542  0.26247  1.0000
  S   S164      1.0  0.93522  0.26060  0.27253  1.0000
  Fe  Fe84      1.0  0.84359  0.27736  0.26107  1.0000
  S   S165      1.0  0.84472  0.32482  0.26815  1.0000
  S   S166      1.0  0.85611  0.25521  0.29233  1.0000
  H   H1250     1.0  0.94673  0.31726  0.31492  1.0000
  C   C691      1.0  0.49897  0.11414  0.37587  1.0000
  S   S167      1.0  0.51142  0.40560  0.37754  1.0000
  H   H1251     1.0  0.69674  0.01807  0.40334  1.0000
  H   H1252     1.0  0.94973  0.33416  0.27072  1.0000
  H   H1253     1.0  0.57893  0.43219  0.39422  1.0000
  H   H1254     1.0  0.93200  0.36912  0.26000  1.0000
  S   S168      1.0  0.92617  0.42846  0.35267  1.0000
  S   S169      1.0  0.89146  0.47097  0.39864  1.0000
  C   C692      1.0  0.84442  0.06080  0.48974  1.0000
  H   H1255     1.0  0.61032  0.10655  0.28392  1.0000
  H   H1256     1.0  0.70824  0.05869  0.34172  1.0000
  C   C693      1.0  0.86782  0.35349  0.29156  1.0000
  C   C694      1.0  0.88863  0.34933  0.30718  1.0000
  C   C695      1.0  0.90629  0.37257  0.32567  1.0000
  C   C696      1.0  0.90340  0.40020  0.32884  1.0000
  C   C697      1.0  0.88270  0.40440  0.31315  1.0000
  C   C698      1.0  0.86502  0.38116  0.29465  1.0000
  H   H1257     1.0  0.89115  0.32826  0.30503  1.0000
  H   H1258     1.0  0.92214  0.36904  0.33777  1.0000
  H   H1259     1.0  0.88024  0.42552  0.31529  1.0000
  H   H1260     1.0  0.84905  0.38466  0.28266  1.0000
  C   C699      1.0  0.52130  0.17158  0.30667  1.0000
  C   C700      1.0  0.57240  0.46466  0.42055  1.0000
  H   H1261     1.0  0.93876  0.45246  0.43429  1.0000
  H   H1262     1.0  0.56731  0.99406  0.46649  1.0000
  H   H1263     1.0  0.57005  0.44794  0.33792  1.0000
  C   C701      1.0  0.92662  0.41891  0.24649  1.0000
  H   H1264     1.0  0.97637  0.34224  0.33739  1.0000
  H   H1265     1.0  0.54513  0.15256  0.38102  1.0000
  H   H1266     1.0  0.58682  0.37225  0.35958  1.0000
  H   H1267     1.0  0.52865  0.06717  0.29513  1.0000
  C   C702      1.0  0.68400  0.14806  0.34211  1.0000
  C   C703      1.0  0.69894  0.12997  0.34660  1.0000
  C   C704      1.0  0.72865  0.13800  0.33578  1.0000
  C   C705      1.0  0.74369  0.16392  0.31989  1.0000
  C   C706      1.0  0.72839  0.18163  0.31484  1.0000
  C   C707      1.0  0.69894  0.17399  0.32615  1.0000
  H   H1268     1.0  0.68788  0.11027  0.35900  1.0000
  H   H1269     1.0  0.74014  0.12407  0.33985  1.0000
  H   H1270     1.0  0.73933  0.20126  0.30236  1.0000
  H   H1271     1.0  0.68767  0.18822  0.32251  1.0000
  C   C708      1.0  0.51709  0.01845  0.47154  1.0000
  C   C709      1.0  0.50321  0.36936  0.27730  1.0000
  H   H1272     1.0  0.93000  0.38525  0.43826  1.0000
  H   H1273     1.0  0.77847  0.04185  0.37904  1.0000
  C   C710      1.0  0.80622  0.00951  0.47179  1.0000
  H   H1274     1.0  0.49067  0.11985  0.39414  1.0000
  H   H1275     1.0  0.96177  0.18041  0.29507  1.0000
  H   H1276     1.0  0.67986  0.02682  0.36003  1.0000
  C   C711      1.0  0.58031  0.46615  0.32409  1.0000
  H   H1277     1.0  0.57661  0.10671  0.27000  1.0000
  C   C712      1.0  0.97439  0.35325  0.27212  1.0000
  C   C713      1.0  0.48490  0.47971  0.44904  1.0000
  S   S170      1.0  0.80044  0.23247  0.24946  1.0000
  H   H1278     1.0  0.62409  0.46416  0.32148  1.0000
  H   H1279     1.0  0.70818  0.05795  0.41194  1.0000
  N   N39       1.0  0.52998  0.36313  0.28411  1.0000
  C   C714      1.0  0.56980  0.37868  0.35114  1.0000
  H   H1280     1.0  0.54936  0.40042  0.31290  1.0000
  C   C715      1.0  0.50790  0.07026  0.29608  1.0000
  H   H1281     1.0  0.77803  0.29473  0.28327  1.0000
  H   H1282     1.0  0.93922  0.19992  0.28726  1.0000
  C   C716      1.0  0.51957  0.32819  0.28258  1.0000
  H   H1283     1.0  0.92780  0.42805  0.26633  1.0000
  H   H1284     1.0  0.90895  0.29613  0.48487  1.0000
  H   H1285     1.0  0.89978  0.35835  0.47941  1.0000
  H   H1286     1.0  0.50559  0.09541  0.37917  1.0000
  Fe  Fe85      1.0  0.92512  0.47336  0.36748  1.0000
  H   H1287     1.0  0.92971  0.42385  0.40881  1.0000
  C   C717      1.0  0.97190  0.33466  0.31706  1.0000
  H   H1288     1.0  0.96520  0.37377  0.30745  1.0000
  C   C718      1.0  0.57552  0.98955  0.48474  1.0000
  H   H1289     1.0  0.54944  0.11960  0.34668  1.0000
  S   S171      1.0  0.84502  0.19738  0.25253  1.0000
  H   H1290     1.0  0.94630  0.19608  0.32011  1.0000
  N   N40       1.0  0.98028  0.37903  0.25386  1.0000
  H   H1291     1.0  0.70631  0.99357  0.48891  1.0000
  H   H1292     1.0  0.48903  0.26393  0.27667  1.0000
  H   H1293     1.0  0.61437  0.14172  0.26964  1.0000
  C   C719      1.0  0.92274  0.36018  0.48498  1.0000
  H   H1294     1.0  0.56954  0.40668  0.27245  1.0000
  N   N41       1.0  0.79524  0.27424  0.35611  1.0000
  C   C720      1.0  0.79897  0.30538  0.36651  1.0000
  C   C721      1.0  0.76960  0.24743  0.37043  1.0000
  C   C722      1.0  0.82586  0.27369  0.36045  1.0000
  C   C723      1.0  0.78904  0.27037  0.32786  1.0000
  C   C724      1.0  0.75915  0.27134  0.31904  1.0000
  C   C725      1.0  0.82514  0.33525  0.35429  1.0000
  C   C726      1.0  0.82529  0.24132  0.35647  1.0000
  C   C727      1.0  0.74098  0.25145  0.37993  1.0000
  C   C728      1.0  0.71563  0.22108  0.39110  1.0000
  C   C729      1.0  0.75828  0.27263  0.29011  1.0000
  C   C730      1.0  0.82637  0.36493  0.36671  1.0000
  C   C731      1.0  0.85774  0.24413  0.36073  1.0000
  H   H1295     1.0  0.80363  0.30729  0.38734  1.0000
  H   H1296     1.0  0.77701  0.30708  0.36469  1.0000
  H   H1297     1.0  0.76073  0.22513  0.35884  1.0000
  H   H1298     1.0  0.77921  0.24322  0.38815  1.0000
  H   H1299     1.0  0.83434  0.28210  0.38020  1.0000
  H   H1300     1.0  0.84447  0.29014  0.34753  1.0000
  H   H1301     1.0  0.80952  0.28822  0.31725  1.0000
  H   H1302     1.0  0.78675  0.24748  0.32063  1.0000
  H   H1303     1.0  0.75767  0.29215  0.32694  1.0000
  H   H1304     1.0  0.73808  0.24963  0.32475  1.0000
  H   H1305     1.0  0.84855  0.33678  0.35676  1.0000
  H   H1306     1.0  0.82077  0.33554  0.33370  1.0000
  H   H1307     1.0  0.81785  0.23178  0.33699  1.0000
  H   H1308     1.0  0.80896  0.22367  0.36986  1.0000
  H   H1309     1.0  0.74835  0.26984  0.39531  1.0000
  H   H1310     1.0  0.73024  0.25835  0.36467  1.0000
  H   H1311     1.0  0.69569  0.22464  0.39816  1.0000
  H   H1312     1.0  0.70667  0.20191  0.37641  1.0000
  H   H1313     1.0  0.72501  0.21378  0.40724  1.0000
  S   S172      1.0  0.49511  0.04040  0.34263  1.0000
  C   C732      1.0  0.69719  0.00405  0.45087  1.0000
  H   H1314     1.0  0.75972  0.25231  0.28091  1.0000
  H   H1315     1.0  0.83121  0.36615  0.38738  1.0000
  H   H1316     1.0  0.84546  0.38607  0.35799  1.0000
  H   H1317     1.0  0.80394  0.36553  0.36386  1.0000
  H   H1318     1.0  0.87533  0.26142  0.34775  1.0000
  H   H1319     1.0  0.86526  0.25149  0.38072  1.0000
  H   H1320     1.0  0.85687  0.22096  0.35679  1.0000
  N   N42       1.0  0.56530  0.16363  0.32755  1.0000
  C   C733      1.0  0.55338  0.18626  0.32060  1.0000
  C   C734      1.0  0.59316  0.18037  0.34491  1.0000
  C   C735      1.0  0.57415  0.15193  0.30336  1.0000
  C   C736      1.0  0.54037  0.13584  0.34117  1.0000
  H   H1321     1.0  0.61739  0.22618  0.32647  1.0000
  H   H1322     1.0  0.91454  0.41041  0.47717  1.0000
  C   C737      1.0  0.59105  0.13172  0.30665  1.0000
  C   C738      1.0  0.62267  0.20754  0.33294  1.0000
  C   C739      1.0  0.64931  0.22263  0.35222  1.0000
  H   H1323     1.0  0.73600  0.27192  0.28425  1.0000
  H   H1324     1.0  0.57050  0.20451  0.30792  1.0000
  H   H1325     1.0  0.48924  0.18541  0.28976  1.0000
  H   H1326     1.0  0.58681  0.19079  0.36176  1.0000
  H   H1327     1.0  0.60004  0.16336  0.35288  1.0000
  H   H1328     1.0  0.58911  0.17185  0.29101  1.0000
  H   H1329     1.0  0.55296  0.13742  0.29185  1.0000
  H   H1330     1.0  0.51900  0.16122  0.36288  1.0000
  H   H1331     1.0  0.95937  0.40127  0.27828  1.0000
  C   C740      1.0  0.52702  0.14352  0.36591  1.0000
  C   C741      1.0  0.56278  0.36593  0.32374  1.0000
  H   H1332     1.0  0.93004  0.35019  0.46836  1.0000
  H   H1333     1.0  0.73123  0.99715  0.40509  1.0000
  H   H1334     1.0  0.57644  0.11032  0.31748  1.0000
  H   H1335     1.0  0.61359  0.14524  0.31667  1.0000
  H   H1336     1.0  0.63154  0.19908  0.31646  1.0000
  H   H1337     1.0  0.54026  0.32394  0.28031  1.0000
  H   H1338     1.0  0.64222  0.23275  0.36880  1.0000
  H   H1339     1.0  0.65590  0.20498  0.35896  1.0000
  H   H1340     1.0  0.67022  0.24172  0.34314  1.0000
  H   H1341     1.0  0.55165  0.19952  0.33774  1.0000
  H   H1342     1.0  0.48810  0.43319  0.27205  1.0000
  H   H1343     1.0  0.54804  0.36844  0.36283  1.0000
  N   N43       1.0  0.74202  0.04265  0.42178  1.0000
  C   C742      1.0  0.76925  0.07547  0.42293  1.0000
  C   C743      1.0  0.71726  0.04191  0.40425  1.0000
  C   C744      1.0  0.72776  0.03551  0.44813  1.0000
  C   C745      1.0  0.75162  0.01797  0.41366  1.0000
  C   C746      1.0  0.77980  0.02810  0.39491  1.0000
  C   C747      1.0  0.79400  0.08151  0.44374  1.0000
  C   C748      1.0  0.97932  0.39969  0.48248  1.0000
  C   C749      1.0  0.72690  0.05017  0.37619  1.0000
  H   H1344     1.0  0.54727  0.45541  0.41606  1.0000
  H   H1345     1.0  0.73181  0.03202  0.36679  1.0000
  C   C750      1.0  0.82479  0.11112  0.43890  1.0000
  C   C751      1.0  0.48753  0.05889  0.31688  1.0000
  H   H1346     1.0  0.76057  0.09297  0.42652  1.0000
  H   H1347     1.0  0.78163  0.08198  0.40441  1.0000
  H   H1348     1.0  0.82839  0.47751  0.45127  1.0000
  H   H1349     1.0  0.55361  0.34012  0.32430  1.0000
  H   H1350     1.0  0.72271  0.05468  0.45537  1.0000
  H   H1351     1.0  0.74467  0.03473  0.46169  1.0000
  H   H1352     1.0  0.75810  0.00873  0.43045  1.0000
  C   C752      1.0  0.58151  0.43872  0.41479  1.0000
  H   H1353     1.0  0.80212  0.04292  0.40506  1.0000
  C   C753      1.0  0.83729  0.03358  0.47457  1.0000
  H   H1354     1.0  0.78506  0.08481  0.46263  1.0000
  H   H1355     1.0  0.79910  0.06147  0.44491  1.0000
  H   H1356     1.0  0.59162  0.48561  0.38486  1.0000
  H   H1357     1.0  0.96680  0.42109  0.43844  1.0000
  H   H1358     1.0  0.74759  0.07362  0.37455  1.0000
  H   H1359     1.0  0.57575  0.47002  0.44129  1.0000
  C   C754      1.0  0.55866  0.38101  0.26780  1.0000
  H   H1360     1.0  0.95423  0.43973  0.47838  1.0000
  H   H1361     1.0  0.49491  0.36109  0.25767  1.0000
  H   H1362     1.0  0.58536  0.37620  0.31323  1.0000
  H   H1363     1.0  0.51715  0.09411  0.26040  1.0000
  H   H1364     1.0  0.83574  0.10845  0.42087  1.0000
  H   H1365     1.0  0.82076  0.13192  0.43801  1.0000
  H   H1366     1.0  0.84129  0.11511  0.45473  1.0000
  H   H1367     1.0  0.52057  0.12161  0.32820  1.0000
  H   H1368     1.0  0.53163  0.41988  0.26917  1.0000
  C   C755      1.0  0.78231  0.01287  0.48465  1.0000
  C   C756      1.0  0.96438  0.27283  0.24857  1.0000
  Fe  Fe86      1.0  0.49221  0.42693  0.35038  1.0000
  C   C757      1.0  0.95587  0.38970  0.25912  1.0000
  H   H1369     1.0  0.51759  0.36532  0.32362  1.0000
  H   H1370     1.0  0.58015  0.40468  0.35175  1.0000
  H   H1371     1.0  0.52213  0.15915  0.28879  1.0000
  H   H1372     1.0  0.57717  0.37443  0.27225  1.0000
  C   C758      1.0  0.49292  0.27574  0.25822  1.0000
  C   C759      1.0  0.51001  0.40410  0.27958  1.0000
  C   C760      1.0  0.53889  0.37444  0.31134  1.0000
  H   H1373     1.0  0.97994  0.25006  0.30490  1.0000
  S   S173      1.0  0.52363  0.46843  0.32546  1.0000
  C   C761      1.0  0.95671  0.19997  0.30071  1.0000
  C   C762      1.0  0.50020  0.98875  0.45983  1.0000
  H   H1374     1.0  0.69257  0.06682  0.37072  1.0000
  H   H1375     1.0  0.56590  0.41754  0.42562  1.0000
  S   S174      1.0  0.49176  0.42553  0.44675  1.0000
  H   H1376     1.0  0.50032  0.31942  0.24325  1.0000
  C   C763      1.0  0.50121  0.08539  0.27638  1.0000
  H   H1377     1.0  0.90156  0.41691  0.43394  1.0000
  C   C764      1.0  0.93893  0.41458  0.47341  1.0000
  C   C765      1.0  0.70026  0.05066  0.36133  1.0000
  C   C766      1.0  0.68822  0.99703  0.47884  1.0000
  H   H1378     1.0  0.85601  0.03127  0.46474  1.0000
  H   H1379     1.0  0.97992  0.39206  0.46240  1.0000
  H   H1380     1.0  0.80264  0.00773  0.37053  1.0000
  C   C767      1.0  0.98003  0.36314  0.30073  1.0000
  H   H1381     1.0  0.75835  0.99451  0.48279  1.0000
  H   H1382     1.0  0.68544  0.01648  0.48833  1.0000
  H   H1383     1.0  0.52994  0.21386  0.28669  1.0000
  H   H1384     1.0  0.67731  0.00520  0.44162  1.0000
  H   H1385     1.0  0.60613  0.44654  0.42052  1.0000
  H   H1386     1.0  0.50994  0.20928  0.31703  1.0000
  H   H1387     1.0  0.51270  0.41181  0.29983  1.0000
  C   C768      1.0  0.50595  0.46865  0.48637  1.0000
  C   C769      1.0  0.56291  0.48026  0.31530  1.0000
  C   C770      1.0  0.51222  0.19673  0.29968  1.0000
  H   H1388     1.0  0.51486  0.27771  0.24947  1.0000
  H   H1389     1.0  0.50215  0.15463  0.31877  1.0000
  C   C771      1.0  0.94173  0.41043  0.44423  1.0000
  C   C772      1.0  0.95475  0.41332  0.24057  1.0000
  H   H1390     1.0  0.90431  0.39673  0.24398  1.0000
  C   C773      1.0  0.61107  0.47567  0.31495  1.0000
  C   C774      1.0  0.49435  0.46036  0.46142  1.0000
  H   H1391     1.0  0.50829  0.31707  0.30082  1.0000
  H   H1392     1.0  0.97608  0.43632  0.24275  1.0000
  C   C775      1.0  0.49503  0.30823  0.26196  1.0000
  C   C776      1.0  0.78195  0.99970  0.38336  1.0000
  H   H1393     1.0  0.50313  0.05770  0.41389  1.0000
  N   N44       1.0  0.94676  0.39413  0.48986  1.0000
  S   S175      1.0  0.60891  0.98976  0.36417  1.0000
  H   H1394     1.0  0.87339  0.29968  0.48948  1.0000
  H   H1395     1.0  0.89569  0.41282  0.56108  1.0000
  H   H1396     1.0  0.96792  0.42847  0.52051  1.0000
  S   S176      1.0  0.76620  0.15003  0.69258  1.0000
  Fe  Fe87      1.0  0.91495  0.21054  0.54653  1.0000
  S   S177      1.0  0.94386  0.20272  0.57540  1.0000
  S   S178      1.0  0.93039  0.26078  0.53536  1.0000
  Fe  Fe88      1.0  0.87375  0.13917  0.53560  1.0000
  S   S179      1.0  0.90138  0.12796  0.56352  1.0000
  H   H1397     1.0  0.49704  0.45822  0.54652  1.0000
  Fe  Fe89      1.0  0.89756  0.16432  0.58941  1.0000
  S   S180      1.0  0.88427  0.15422  0.63157  1.0000
  Fe  Fe90      1.0  0.94459  0.16773  0.54631  1.0000
  S   S181      1.0  0.86867  0.17452  0.56214  1.0000
  S   S182      1.0  0.91704  0.17671  0.51677  1.0000
  H   H1398     1.0  0.87500  0.45474  0.69865  1.0000
  H   H1399     1.0  0.91580  0.38968  0.56415  1.0000
  H   H1400     1.0  0.80264  0.02546  0.56376  1.0000
  C   C777      1.0  0.90103  0.46772  0.69826  1.0000
  S   S183      1.0  0.82759  0.09958  0.51953  1.0000
  C   C778      1.0  0.94412  0.29193  0.55829  1.0000
  C   C779      1.0  0.93327  0.28743  0.58343  1.0000
  C   C780      1.0  0.94237  0.31347  0.60037  1.0000
  C   C781      1.0  0.96272  0.34400  0.59244  1.0000
  H   H1401     1.0  0.95088  0.38965  0.53052  1.0000
  C   C782      1.0  0.59780  0.06947  0.73872  1.0000
  H   H1402     1.0  0.91701  0.26410  0.58953  1.0000
  H   H1403     1.0  0.93326  0.31006  0.61958  1.0000
  C   C783      1.0  0.81824  0.24104  0.73815  1.0000
  H   H1404     1.0  0.98044  0.35706  0.49400  1.0000
  C   C784      1.0  0.79899  0.15067  0.67592  1.0000
  C   C785      1.0  0.81788  0.13917  0.68634  1.0000
  C   C786      1.0  0.84383  0.14047  0.67254  1.0000
  C   C787      1.0  0.85116  0.15306  0.64807  1.0000
  C   C788      1.0  0.83234  0.16470  0.63771  1.0000
  C   C789      1.0  0.80640  0.16338  0.65151  1.0000
  H   H1405     1.0  0.81244  0.12920  0.70502  1.0000
  H   H1406     1.0  0.85824  0.13150  0.68084  1.0000
  H   H1407     1.0  0.83795  0.17503  0.61915  1.0000
  H   H1408     1.0  0.79208  0.17251  0.64325  1.0000
  N   N45       1.0  0.87065  0.24244  0.72219  1.0000
  H   H1409     1.0  0.93789  0.43200  0.56221  1.0000
  C   C790      1.0  0.62121  0.00102  0.69889  1.0000
  H   H1410     1.0  0.62366  0.05855  0.71035  1.0000
  H   H1411     1.0  0.85845  0.19409  0.71232  1.0000
  H   H1412     1.0  0.70631  0.99789  0.68912  1.0000
  H   H1413     1.0  0.83984  0.25513  0.70161  1.0000
  C   C791      1.0  0.60118  0.04562  0.72082  1.0000
  C   C792      1.0  0.54449  0.99863  0.55840  1.0000
  H   H1414     1.0  0.88243  0.05742  0.62243  1.0000
  H   H1415     1.0  0.89200  0.27722  0.69307  1.0000
  H   H1416     1.0  0.51338  0.45389  0.49612  1.0000
  H   H1417     1.0  0.90160  0.34254  0.52237  1.0000
  C   C793      1.0  0.70725  0.01306  0.72834  1.0000
  H   H1418     1.0  0.64530  0.01506  0.70683  1.0000
  H   H1419     1.0  0.85686  0.22240  0.67133  1.0000
  H   H1420     1.0  0.91004  0.45039  0.69607  1.0000
  H   H1421     1.0  0.75358  0.06282  0.67659  1.0000
  H   H1422     1.0  0.91600  0.31101  0.72744  1.0000
  H   H1423     1.0  0.74828  0.02116  0.64408  1.0000
  H   H1424     1.0  0.82410  0.21445  0.70646  1.0000
  H   H1425     1.0  0.55021  0.00961  0.53950  1.0000
  C   C794      1.0  0.83830  0.23790  0.71590  1.0000
  H   H1426     1.0  0.88820  0.21342  0.67804  1.0000
  C   C795      1.0  0.91684  0.41072  0.55520  1.0000
  H   H1427     1.0  0.92574  0.26091  0.65448  1.0000
  C   C796      1.0  0.91510  0.33745  0.50731  1.0000
  C   C797      1.0  0.50888  0.02309  0.49657  1.0000
  H   H1428     1.0  0.91629  0.26145  0.70376  1.0000
  C   C798      1.0  0.89156  0.25510  0.69909  1.0000
  Fe  Fe91      1.0  0.74929  0.13405  0.73314  1.0000
  C   C799      1.0  0.64355  0.98912  0.65830  1.0000
  C   C800      1.0  0.94728  0.40500  0.51720  1.0000
  C   C801      1.0  0.90000  0.24992  0.65152  1.0000
  H   H1429     1.0  0.63464  0.00138  0.64594  1.0000
  H   H1430     1.0  0.97398  0.32591  0.53142  1.0000
  N   N46       1.0  0.78895  0.06121  0.60185  1.0000
  C   C802      1.0  0.77127  0.02670  0.59452  1.0000
  C   C803      1.0  0.77962  0.06713  0.62833  1.0000
  C   C804      1.0  0.77967  0.07863  0.58326  1.0000
  C   C805      1.0  0.82401  0.07372  0.59991  1.0000
  C   C806      1.0  0.83829  0.05780  0.61651  1.0000
  C   C807      1.0  0.77734  0.01752  0.56719  1.0000
  C   C808      1.0  0.79076  0.11390  0.58967  1.0000
  C   C809      1.0  0.77175  0.04129  0.64821  1.0000
  C   C810      1.0  0.77083  0.05367  0.67516  1.0000
  C   C811      1.0  0.87288  0.06918  0.61018  1.0000
  H   H1431     1.0  0.55011  0.04159  0.57735  1.0000
  C   C812      1.0  0.78085  0.12902  0.56907  1.0000
  H   H1432     1.0  0.74557  0.01841  0.59645  1.0000
  H   H1433     1.0  0.52177  0.04589  0.50589  1.0000
  H   H1434     1.0  0.79811  0.08986  0.63639  1.0000
  H   H1435     1.0  0.75804  0.06997  0.62763  1.0000
  H   H1436     1.0  0.75367  0.06708  0.58128  1.0000
  H   H1437     1.0  0.78914  0.07778  0.56399  1.0000
  H   H1438     1.0  0.83135  0.07320  0.57978  1.0000
  H   H1439     1.0  0.83640  0.09897  0.60565  1.0000
  H   H1440     1.0  0.82621  0.03194  0.61373  1.0000
  H   H1441     1.0  0.83714  0.06409  0.63684  1.0000
  H   H1442     1.0  0.76875  0.02790  0.55281  1.0000
  H   H1443     1.0  0.72137  0.03776  0.72458  1.0000
  H   H1444     1.0  0.81659  0.12702  0.59103  1.0000
  H   H1445     1.0  0.78056  0.11711  0.60789  1.0000
  H   H1446     1.0  0.77628  0.01217  0.60767  1.0000
  H   H1447     1.0  0.78881  0.03209  0.64809  1.0000
  H   H1448     1.0  0.58177  0.03651  0.70685  1.0000
  C   C813      1.0  0.53181  0.01674  0.57499  1.0000
  H   H1449     1.0  0.88928  0.28782  0.51518  1.0000
  H   H1450     1.0  0.88659  0.09493  0.61379  1.0000
  C   C814      1.0  0.60161  0.01864  0.73578  1.0000
  H   H1451     1.0  0.87579  0.06354  0.58998  1.0000
  C   C815      1.0  0.97462  0.34826  0.56767  1.0000
  C   C816      1.0  0.88231  0.23276  0.67523  1.0000
  H   H1452     1.0  0.79436  0.07268  0.68063  1.0000
  H   H1453     1.0  0.75493  0.11729  0.56731  1.0000
  H   H1454     1.0  0.78920  0.15422  0.57414  1.0000
  H   H1455     1.0  0.79138  0.12752  0.55044  1.0000
  H   H1456     1.0  0.51117  0.01646  0.56589  1.0000
  C   C817      1.0  0.91792  0.40778  0.52624  1.0000
  H   H1457     1.0  0.89339  0.26826  0.64668  1.0000
  H   H1458     1.0  0.89384  0.23289  0.63518  1.0000
  S   S184      1.0  0.97233  0.37633  0.61372  1.0000
  H   H1459     1.0  0.76405  0.03447  0.68883  1.0000
  H   H1460     1.0  0.56668  0.00231  0.56696  1.0000
  H   H1461     1.0  0.59805  0.08874  0.72758  1.0000
  H   H1462     1.0  0.91852  0.42919  0.51841  1.0000
  C   C818      1.0  0.96521  0.32234  0.55068  1.0000
  H   H1463     1.0  0.52505  0.00640  0.59412  1.0000
  H   H1464     1.0  0.66746  0.00599  0.66496  1.0000
  H   H1465     1.0  0.87538  0.30163  0.72882  1.0000
  H   H1466     1.0  0.77356  0.21224  0.71905  1.0000
  H   H1467     1.0  0.61731  0.01690  0.68628  1.0000
  H   H1468     1.0  0.93653  0.33965  0.51608  1.0000
  H   H1469     1.0  0.89601  0.38715  0.51970  1.0000
  C   C819      1.0  0.86968  0.21156  0.72808  1.0000
  H   H1470     1.0  0.58788  0.01227  0.49547  1.0000
  H   H1471     1.0  0.78948  0.25398  0.71479  1.0000
  H   H1472     1.0  0.53838  0.99542  0.72456  1.0000
  C   C820      1.0  0.78642  0.23576  0.72854  1.0000
  H   H1473     1.0  0.90856  0.48322  0.68163  1.0000
  C   C821      1.0  0.91294  0.48702  0.72298  1.0000
  C   C822      1.0  0.89545  0.30324  0.49852  1.0000
  N   N47       1.0  0.59716  0.99002  0.72012  1.0000
  C   C823      1.0  0.89432  0.30000  0.73920  1.0000
  H   H1474     1.0  0.89406  0.21486  0.72950  1.0000
  C   C824      1.0  0.82043  0.06455  0.50205  1.0000
  C   C825      1.0  0.78935  0.04037  0.49942  1.0000
  H   H1475     1.0  0.90469  0.47035  0.73881  1.0000
  C   C826      1.0  0.69881  0.99050  0.70832  1.0000
  H   H1476     1.0  0.48728  0.42491  0.56602  1.0000
  H   H1477     1.0  0.48541  0.45888  0.57937  1.0000
  H   H1478     1.0  0.77053  0.04313  0.50856  1.0000
  H   H1479     1.0  0.86841  0.07919  0.49139  1.0000
  Fe  Fe92      1.0  0.88953  0.36199  0.87057  1.0000
  S   S185      1.0  0.92555  0.39140  0.84171  1.0000
  S   S186      1.0  0.84414  0.32040  0.85558  1.0000
  Fe  Fe93      1.0  0.92731  0.40888  0.91497  1.0000
  C   C827      1.0  0.57729  0.99625  0.87354  1.0000
  S   S187      1.0  0.92925  0.42495  0.95685  1.0000
  Fe  Fe94      1.0  0.92610  0.43351  0.86216  1.0000
  H   H1480     1.0  0.90269  0.46516  0.90677  1.0000
  Fe  Fe95      1.0  0.96014  0.39412  0.87113  1.0000
  S   S188      1.0  0.88812  0.40413  0.88946  1.0000
  S   S189      1.0  0.92426  0.36318  0.89926  1.0000
  H   H1481     1.0  0.56724  0.33406  0.82270  1.0000
  C   C828      1.0  0.96539  0.27803  0.93314  1.0000
  S   S190      1.0  0.53456  0.04236  0.84760  1.0000
  S   S191      1.0  0.50470  0.08687  0.89717  1.0000
  H   H1482     1.0  0.68624  0.22991  0.85771  1.0000
  S   S192      1.0  0.56799  0.46342  0.88698  1.0000
  C   C829      1.0  0.91126  0.15819  0.98485  1.0000
  H   H1483     1.0  0.90782  0.26519  0.74981  1.0000
  Fe  Fe96      1.0  0.72656  0.08185  0.77125  1.0000
  S   S193      1.0  0.70958  0.03052  0.77922  1.0000
  Fe  Fe97      1.0  0.76989  0.15046  0.78845  1.0000
  C   C830      1.0  0.55430  0.33482  0.80576  1.0000
  S   S194      1.0  0.81245  0.18332  0.81252  1.0000
  Fe  Fe98      1.0  0.70053  0.12777  0.77533  1.0000
  S   S195      1.0  0.65918  0.13596  0.78779  1.0000
  S   S196      1.0  0.72429  0.11244  0.80363  1.0000
  H   H1484     1.0  0.53665  0.25903  0.88525  1.0000
  S   S197      1.0  0.70089  0.09565  0.74339  1.0000
  H   H1485     1.0  0.74542  0.03174  0.82927  1.0000
  H   H1486     1.0  0.60368  0.00349  0.95100  1.0000
  H   H1487     1.0  0.53022  0.04578  0.92585  1.0000
  C   C831      1.0  0.56927  0.06912  0.83137  1.0000
  C   C832      1.0  0.57627  0.10025  0.82717  1.0000
  C   C833      1.0  0.60387  0.12034  0.81389  1.0000
  C   C834      1.0  0.62503  0.10978  0.80489  1.0000
  C   C835      1.0  0.61823  0.07878  0.80936  1.0000
  C   C836      1.0  0.59043  0.05857  0.82228  1.0000
  H   H1488     1.0  0.56024  0.10873  0.83389  1.0000
  H   H1489     1.0  0.60872  0.14419  0.81045  1.0000
  H   H1490     1.0  0.63413  0.07020  0.80247  1.0000
  H   H1491     1.0  0.58513  0.03448  0.82503  1.0000
  H   H1492     1.0  0.73290  0.24451  0.77907  1.0000
  H   H1493     1.0  0.70606  0.98780  0.85449  1.0000
  H   H1494     1.0  0.54216  0.34892  0.81071  1.0000
  H   H1495     1.0  0.50809  0.99421  0.92029  1.0000
  C   C837      1.0  0.51277  0.39955  0.80403  1.0000
  H   H1496     1.0  0.95963  0.43545  0.78616  1.0000
  H   H1497     1.0  0.52420  0.37589  0.77322  1.0000
  H   H1498     1.0  0.53552  0.42018  0.80399  1.0000
  H   H1499     1.0  0.68740  0.15306  0.88714  1.0000
  Fe  Fe99      1.0  0.49500  0.04944  0.86695  1.0000
  H   H1500     1.0  0.87897  0.43741  0.81366  1.0000
  C   C838      1.0  0.83811  0.28384  0.84164  1.0000
  C   C839      1.0  0.81277  0.26761  0.82489  1.0000
  C   C840      1.0  0.80539  0.23738  0.81502  1.0000
  C   C841      1.0  0.82271  0.22258  0.82239  1.0000
  C   C842      1.0  0.84845  0.23900  0.83867  1.0000
  C   C843      1.0  0.85629  0.26954  0.84814  1.0000
  H   H1501     1.0  0.79870  0.27854  0.81961  1.0000
  H   H1502     1.0  0.78608  0.22529  0.80199  1.0000
  H   H1503     1.0  0.86193  0.22768  0.84438  1.0000
  H   H1504     1.0  0.87565  0.28159  0.86116  1.0000
  H   H1505     1.0  0.87906  0.31001  0.77617  1.0000
  C   C844      1.0  0.95404  0.45516  0.78925  1.0000
  S   S198      1.0  0.74615  0.16805  0.76218  1.0000
  C   C845      1.0  0.96073  0.19596  0.96511  1.0000
  C   C846      1.0  0.96139  0.17205  0.94973  1.0000
  C   C847      1.0  0.93689  0.14121  0.95209  1.0000
  H   H1506     1.0  0.97072  0.26864  0.97258  1.0000
  N   N48       1.0  0.92693  0.23383  0.90227  1.0000
  C   C848      1.0  0.95157  0.22415  0.89494  1.0000
  C   C849      1.0  0.93355  0.24826  0.92881  1.0000
  C   C850      1.0  0.89571  0.20430  0.90320  1.0000
  C   C851      1.0  0.92469  0.25593  0.88364  1.0000
  C   C852      1.0  0.95517  0.27852  0.86950  1.0000
  C   C853      1.0  0.94474  0.20327  0.87037  1.0000
  C   C854      1.0  0.86740  0.20864  0.91294  1.0000
  Fe  Fe100     1.0  0.53935  0.47225  0.85815  1.0000
  C   C855      1.0  0.58612  0.00949  0.95989  1.0000
  H   H1507     1.0  0.50199  0.42509  0.93705  1.0000
  H   H1508     1.0  0.97459  0.29256  0.88275  1.0000
  C   C856      1.0  0.83636  0.17917  0.90755  1.0000
  H   H1509     1.0  0.95475  0.21084  0.91054  1.0000
  N   N49       1.0  0.50879  0.27965  0.81631  1.0000
  H   H1510     1.0  0.91557  0.25539  0.93484  1.0000
  H   H1511     1.0  0.93178  0.23040  0.94258  1.0000
  H   H1512     1.0  0.89736  0.18662  0.91541  1.0000
  H   H1513     1.0  0.88920  0.19302  0.88392  1.0000
  H   H1514     1.0  0.90756  0.24244  0.86838  1.0000
  H   H1515     1.0  0.91508  0.27053  0.89327  1.0000
  C   C857      1.0  0.93579  0.18907  0.98245  1.0000
  H   H1516     1.0  0.97924  0.21982  0.96340  1.0000
  H   H1517     1.0  0.77544  0.02174  0.83862  1.0000
  H   H1518     1.0  0.93430  0.21108  0.85539  1.0000
  H   H1519     1.0  0.86657  0.22860  0.90372  1.0000
  H   H1520     1.0  0.60082  0.00453  0.90928  1.0000
  H   H1521     1.0  0.58861  0.02160  0.86929  1.0000
  H   H1522     1.0  0.87284  0.43476  0.94419  1.0000
  C   C858      1.0  0.53255  0.24061  0.87041  1.0000
  C   C859      1.0  0.48953  0.39841  0.82091  1.0000
  H   H1523     1.0  0.96819  0.47000  0.80552  1.0000
  S   S199      1.0  0.96518  0.43945  0.88833  1.0000
  C   C860      1.0  0.52307  0.98796  0.90763  1.0000
  H   H1524     1.0  0.94358  0.31675  0.86562  1.0000
  H   H1525     1.0  0.94658  0.45829  0.74974  1.0000
  C   C861      1.0  0.53045  0.30124  0.79636  1.0000
  C   C862      1.0  0.96176  0.45535  0.97356  1.0000
  H   H1526     1.0  0.84392  0.15542  0.77530  1.0000
  H   H1527     1.0  0.81666  0.18262  0.91539  1.0000
  C   C863      1.0  0.86347  0.44729  0.93259  1.0000
  H   H1528     1.0  0.96843  0.18743  0.84260  1.0000
  H   H1529     1.0  0.50573  0.24534  0.76639  1.0000
  C   C864      1.0  0.66990  0.15890  0.87888  1.0000
  H   H1530     1.0  0.59636  0.09932  0.93693  1.0000
  C   C865      1.0  0.97016  0.28749  0.96139  1.0000
  C   C866      1.0  0.73698  0.19929  0.86328  1.0000
  C   C867      1.0  0.70750  0.22896  0.86440  1.0000
  C   C868      1.0  0.73606  0.26228  0.86252  1.0000
  C   C869      1.0  0.74182  0.17116  0.85363  1.0000
  C   C870      1.0  0.76665  0.16842  0.86936  1.0000
  C   C871      1.0  0.72924  0.28699  0.87596  1.0000
  H   H1531     1.0  0.74369  0.22904  0.82120  1.0000
  H   H1532     1.0  0.75990  0.22054  0.86031  1.0000
  H   H1533     1.0  0.73363  0.19793  0.88429  1.0000
  H   H1534     1.0  0.70339  0.22425  0.88505  1.0000
  H   H1535     1.0  0.74214  0.26933  0.84251  1.0000
  H   H1536     1.0  0.75704  0.26333  0.87169  1.0000
  H   H1537     1.0  0.72002  0.14852  0.85479  1.0000
  H   H1538     1.0  0.74993  0.17447  0.83356  1.0000
  H   H1539     1.0  0.77076  0.14908  0.86132  1.0000
  H   H1540     1.0  0.78919  0.19054  0.86886  1.0000
  H   H1541     1.0  0.75875  0.16319  0.88940  1.0000
  H   H1542     1.0  0.72400  0.28174  0.89642  1.0000
  H   H1543     1.0  0.75014  0.31047  0.87454  1.0000
  H   H1544     1.0  0.70911  0.28792  0.86692  1.0000
  C   C872      1.0  0.51205  0.24181  0.84918  1.0000
  H   H1545     1.0  0.64051  0.11105  0.86429  1.0000
  H   H1546     1.0  0.85013  0.45584  0.94509  1.0000
  S   S200      1.0  0.49497  0.43087  0.84122  1.0000
  C   C873      1.0  0.89014  0.47463  0.91907  1.0000
  C   C874      1.0  0.88265  0.46114  0.81159  1.0000
  H   H1547     1.0  0.84970  0.44874  0.78070  1.0000
  C   C875      1.0  0.86602  0.46763  0.79292  1.0000
  H   H1548     1.0  0.85879  0.21066  0.76933  1.0000
  H   H1549     1.0  0.93702  0.12250  0.94025  1.0000
  N   N50       1.0  0.71098  0.20277  0.85076  1.0000
  H   H1550     1.0  0.71904  0.18920  0.81286  1.0000
  H   H1551     1.0  0.61972  0.13340  0.87097  1.0000
  H   H1552     1.0  0.63239  0.11833  0.89666  1.0000
  H   H1553     1.0  0.51665  0.30386  0.78077  1.0000
  H   H1554     1.0  0.56614  0.35398  0.76778  1.0000
  C   C876      1.0  0.91206  0.13427  0.96957  1.0000
  H   H1555     1.0  0.66080  0.17683  0.84493  1.0000
  H   H1556     1.0  0.66669  0.17557  0.89208  1.0000
  C   C877      1.0  0.50620  0.37444  0.78648  1.0000
  C   C878      1.0  0.50055  0.40273  0.94351  1.0000
  H   H1557     1.0  0.92784  0.17857  0.87475  1.0000
  C   C879      1.0  0.68018  0.17297  0.85213  1.0000
  H   H1558     1.0  0.69811  0.24077  0.81603  1.0000
  C   C880      1.0  0.85732  0.16719  0.75802  1.0000
  C   C881      1.0  0.48797  0.45284  0.76394  1.0000
  H   H1559     1.0  0.83281  0.17440  0.88673  1.0000
  H   H1560     1.0  0.82968  0.26488  0.74712  1.0000
  H   H1561     1.0  0.68046  0.15438  0.83920  1.0000
  C   C882      1.0  0.96142  0.47428  0.76518  1.0000
  C   C883      1.0  0.71932  0.20989  0.82312  1.0000
  C   C884      1.0  0.63874  0.12859  0.87753  1.0000
  C   C885      1.0  0.69773  0.21908  0.80797  1.0000
  H   H1562     1.0  0.48561  0.18864  0.76534  1.0000
  C   C886      1.0  0.70842  0.22525  0.78025  1.0000
  C   C887      1.0  0.88577  0.26534  0.74416  1.0000
  N   N51       1.0  0.55608  0.00275  0.91778  1.0000
  H   H1563     1.0  0.59578  0.04952  0.92010  1.0000
  H   H1564     1.0  0.59237  0.34035  0.77992  1.0000
  C   C888      1.0  0.85156  0.19492  0.75225  1.0000
  C   C889      1.0  0.69808  0.00346  0.75328  1.0000
  H   H1565     1.0  0.52435  0.40467  0.94207  1.0000
  C   C890      1.0  0.57821  0.35239  0.78503  1.0000
  H   H1566     1.0  0.59432  0.37663  0.79200  1.0000
  H   H1567     1.0  0.55965  0.10023  0.94107  1.0000
  C   C891      1.0  0.57204  0.08958  0.92969  1.0000
  H   H1568     1.0  0.96318  0.26522  0.85641  1.0000
  H   H1569     1.0  0.52051  0.21729  0.87939  1.0000
  C   C892      1.0  0.58148  0.99862  0.98735  1.0000
  C   C893      1.0  0.94959  0.30114  0.85332  1.0000
  H   H1570     1.0  0.53725  0.29283  0.85027  1.0000
  C   C894      1.0  0.57029  0.03792  0.91571  1.0000
  H   H1571     1.0  0.52088  0.23468  0.79317  1.0000
  H   H1572     1.0  0.62085  0.99369  0.86734  1.0000
  H   H1573     1.0  0.97121  0.31605  0.84249  1.0000
  H   H1574     1.0  0.93031  0.28809  0.83954  1.0000
  H   H1575     1.0  0.62450  0.02897  0.74599  1.0000
  C   C895      1.0  0.55463  0.05395  0.93221  1.0000
  H   H1576     1.0  0.55541  0.24388  0.86267  1.0000
  H   H1577     1.0  0.91982  0.31870  0.77482  1.0000
  H   H1578     1.0  0.89330  0.11045  0.97099  1.0000
  H   H1579     1.0  0.50750  0.22198  0.83568  1.0000
  H   H1580     1.0  0.61768  0.07990  0.75229  1.0000
  C   C896      1.0  0.52822  0.27364  0.83545  1.0000
  H   H1581     1.0  0.52241  0.99782  0.88895  1.0000
  H   H1582     1.0  0.55428  0.04896  0.95266  1.0000
  H   H1583     1.0  0.67315  0.20005  0.80800  1.0000
  S   S201      1.0  0.92950  0.47967  0.84827  1.0000
  H   H1584     1.0  0.57259  0.09597  0.90952  1.0000
  H   H1585     1.0  0.50832  0.46569  0.75114  1.0000
  H   H1586     1.0  0.70696  0.20367  0.77080  1.0000
  C   C897      1.0  0.55475  0.99339  0.94506  1.0000
  H   H1587     1.0  0.69292  0.23217  0.76986  1.0000
  H   H1588     1.0  0.56888  0.04416  0.89576  1.0000
  C   C898      1.0  0.49937  0.23352  0.78498  1.0000
  H   H1589     1.0  0.88257  0.17536  0.76170  1.0000
  H   H1590     1.0  0.81420  0.22403  0.75318  1.0000
  S   S202      1.0  0.77475  0.11779  0.75901  1.0000
  H   H1591     1.0  0.83594  0.15852  0.91668  1.0000
  H   H1592     1.0  0.87071  0.25811  0.76141  1.0000
  H   H1593     1.0  0.75626  0.03477  0.86222  1.0000
  C   C899      1.0  0.75275  0.02082  0.84423  1.0000
  H   H1594     1.0  0.54958  0.27451  0.82626  1.0000
  H   H1595     1.0  0.59593  0.03540  0.96059  1.0000
  H   H1596     1.0  0.58373  0.01234  0.75106  1.0000
  C   C900      1.0  0.57609  0.99170  0.90270  1.0000
  H   H1597     1.0  0.95112  0.29237  0.96872  1.0000
  H   H1598     1.0  0.97483  0.24493  0.89279  1.0000
  H   H1599     1.0  0.92880  0.44509  0.79411  1.0000
  H   H1600     1.0  0.90738  0.34410  0.75991  1.0000
  H   H1601     1.0  0.86890  0.21300  0.93386  1.0000
  H   H1602     1.0  0.84714  0.43035  0.91828  1.0000
  H   H1603     1.0  0.54447  0.29084  0.78711  1.0000
  H   H1604     1.0  0.82601  0.18546  0.74928  1.0000
  H   H1605     1.0  0.91985  0.48610  0.95183  1.0000
  H   H1606     1.0  0.96581  0.29803  0.92303  1.0000
  H   H1607     1.0  0.49590  0.44398  0.78000  1.0000
  C   C901      1.0  0.90052  0.31927  0.76408  1.0000
  H   H1608     1.0  0.53708  0.99752  0.95606  1.0000
  H   H1609     1.0  0.48792  0.48347  0.93547  1.0000
  C   C902      1.0  0.48894  0.39676  0.97102  1.0000
  C   C903      1.0  0.48598  0.01183  0.97563  1.0000
  H   H1610     1.0  0.50828  0.31845  0.83812  1.0000
  H   H1611     1.0  0.87935  0.48502  0.90666  1.0000
  C   C904      1.0  0.90470  0.48552  0.82688  1.0000
  H   H1612     1.0  0.96415  0.10324  0.97959  1.0000
  C   C905      1.0  0.97441  0.20345  0.85958  1.0000
  H   H1613     1.0  0.57541  0.05824  0.74955  1.0000
  H   H1614     1.0  0.48756  0.37424  0.97681  1.0000
  H   H1615     1.0  0.50682  0.41601  0.98305  1.0000
  C   C906      1.0  0.48691  0.48376  0.95603  1.0000
  H   H1616     1.0  0.77209  0.23722  0.74478  1.0000
  C   C907      1.0  0.49162  0.29583  0.82879  1.0000
  H   H1617     1.0  0.48940  0.23752  0.85769  1.0000
  C   C908      1.0  0.48525  0.25009  0.80270  1.0000
  H   H1618     1.0  0.84952  0.14976  0.74193  1.0000
  H   H1619     1.0  0.78205  0.86929  0.00058  1.0000
  S   S203      1.0  0.76208  0.60690  0.18897  1.0000
  H   H1620     1.0  0.61348  0.65092  0.15012  1.0000
  Fe  Fe101     1.0  0.58984  0.76729  0.20158  1.0000
  H   H1621     1.0  0.88714  0.58344  0.17645  1.0000
  S   S204      1.0  0.59129  0.81100  0.18448  1.0000
  Fe  Fe102     1.0  0.62492  0.72979  0.21199  1.0000
  S   S205      1.0  0.66308  0.71655  0.20231  1.0000
  Fe  Fe103     1.0  0.55419  0.69752  0.21432  1.0000
  S   S206      1.0  0.51021  0.65017  0.20869  1.0000
  S   S207      1.0  0.58818  0.72350  0.18324  1.0000
  H   H1622     1.0  0.76948  0.52683  0.15942  1.0000
  Fe  Fe104     1.0  0.89278  0.71792  0.08711  1.0000
  S   S208      1.0  0.86426  0.68223  0.05726  1.0000
  S   S209      1.0  0.88067  0.71176  0.12980  1.0000
  Fe  Fe105     1.0  0.94319  0.75862  0.04677  1.0000
  S   S210      1.0  0.91687  0.72483  0.01480  1.0000
  Fe  Fe106     1.0  0.87349  0.72372  0.03293  1.0000
  S   S211      1.0  0.83003  0.72245  0.01465  1.0000
  Fe  Fe107     1.0  0.91042  0.68742  0.04251  1.0000
  S   S212      1.0  0.92027  0.64675  0.03219  1.0000
  S   S213      1.0  0.90008  0.75951  0.06384  1.0000
  S   S214      1.0  0.93869  0.72123  0.07342  1.0000
  Fe  Fe108     1.0  0.51714  0.88403  0.09071  1.0000
  S   S215      1.0  0.52510  0.91930  0.12243  1.0000
  S   S216      1.0  0.51939  0.83805  0.09551  1.0000
  Fe  Fe109     1.0  0.50637  0.92507  0.05147  1.0000
  S   S217      1.0  0.51497  0.96264  0.08096  1.0000
  Fe  Fe110     1.0  0.55500  0.95479  0.09339  1.0000
  S   S218      1.0  0.54841  0.91938  0.06227  1.0000
  H   H1623     1.0  0.51439  0.71162  0.14500  1.0000
  C   C909      1.0  0.96381  0.64036  0.09556  1.0000
  H   H1624     1.0  0.53112  0.60270  0.02112  1.0000
  H   H1625     1.0  0.92016  0.54532  0.16067  1.0000
  H   H1626     1.0  0.91892  0.69605  0.16330  1.0000
  C   C910      1.0  0.64771  0.93148  0.02214  1.0000
  H   H1627     1.0  0.93381  0.57609  0.18518  1.0000
  H   H1628     1.0  0.86033  0.56449  0.11121  1.0000
  H   H1629     1.0  0.88385  0.64484  0.18309  1.0000
  C   C911      1.0  0.51093  0.48754  0.99671  1.0000
  C   C912      1.0  0.51816  0.57688  0.01781  1.0000
  H   H1630     1.0  0.66824  0.92794  0.01724  1.0000
  C   C913      1.0  0.94722  0.64900  0.07865  1.0000
  C   C914      1.0  0.94152  0.63661  0.05377  1.0000
  C   C915      1.0  0.95262  0.61545  0.04599  1.0000
  H   H1631     1.0  0.73801  0.92707  0.08133  1.0000
  H   H1632     1.0  0.93819  0.66463  0.08512  1.0000
  C   C916      1.0  0.56928  0.81686  0.16042  1.0000
  C   C917      1.0  0.56901  0.84588  0.15992  1.0000
  C   C918      1.0  0.55319  0.85236  0.14062  1.0000
  C   C919      1.0  0.53815  0.83023  0.12107  1.0000
  C   C920      1.0  0.53853  0.80124  0.12146  1.0000
  C   C921      1.0  0.55368  0.79439  0.14116  1.0000
  H   H1633     1.0  0.58101  0.86345  0.17469  1.0000
  H   H1634     1.0  0.55276  0.87456  0.14080  1.0000
  H   H1635     1.0  0.52751  0.78424  0.10617  1.0000
  H   H1636     1.0  0.55407  0.77219  0.14109  1.0000
  H   H1637     1.0  0.54469  0.52826  0.23232  1.0000
  H   H1638     1.0  0.58544  0.80315  0.08194  1.0000
  C   C922      1.0  0.51734  0.60149  0.14591  1.0000
  C   C923      1.0  0.52434  0.62510  0.16495  1.0000
  H   H1639     1.0  0.84726  0.78607  0.05492  1.0000
  H   H1640     1.0  0.53423  0.60496  0.13093  1.0000
  H   H1641     1.0  0.54627  0.64663  0.16436  1.0000
  C   C924      1.0  0.79629  0.63512  0.17300  1.0000
  C   C925      1.0  0.82161  0.65908  0.18610  1.0000
  C   C926      1.0  0.84725  0.68207  0.17257  1.0000
  C   C927      1.0  0.84824  0.68131  0.14578  1.0000
  C   C928      1.0  0.82326  0.65696  0.13267  1.0000
  C   C929      1.0  0.79745  0.63418  0.14620  1.0000
  H   H1642     1.0  0.82120  0.66023  0.20666  1.0000
  H   H1643     1.0  0.86639  0.70075  0.18296  1.0000
  H   H1644     1.0  0.82360  0.65594  0.11210  1.0000
  H   H1645     1.0  0.77810  0.61579  0.13577  1.0000
  C   C930      1.0  0.67523  0.70073  0.22693  1.0000
  C   C931      1.0  0.69033  0.68278  0.22053  1.0000
  H   H1646     1.0  0.75780  0.96090  0.06171  1.0000
  H   H1647     1.0  0.69267  0.67751  0.20088  1.0000
  C   C932      1.0  0.93478  0.57091  0.16456  1.0000
  H   H1648     1.0  0.81588  0.74581  0.22635  1.0000
  C   C933      1.0  0.51873  0.68265  0.11446  1.0000
  C   C934      1.0  0.96927  0.60676  0.06296  1.0000
  H   H1649     1.0  0.81572  0.79081  0.06979  1.0000
  H   H1650     1.0  0.85672  0.86144  0.00242  1.0000
  H   H1651     1.0  0.97728  0.59006  0.05694  1.0000
  H   H1652     1.0  0.95079  0.68632  0.16313  1.0000
  N   N52       1.0  0.57757  0.59810  0.22809  1.0000
  C   C935      1.0  0.88912  0.58125  0.15543  1.0000
  H   H1653     1.0  0.83554  0.60756  0.14711  1.0000
  H   H1654     1.0  0.66324  0.96039  0.05684  1.0000
  H   H1655     1.0  0.77426  0.72085  0.99516  1.0000
  N   N53       1.0  0.64653  0.91227  0.06781  1.0000
  C   C936      1.0  0.61943  0.88054  0.06129  1.0000
  C   C937      1.0  0.64497  0.93639  0.05120  1.0000
  C   C938      1.0  0.67681  0.91073  0.06358  1.0000
  C   C939      1.0  0.64513  0.92151  0.09532  1.0000
  C   C940      1.0  0.61369  0.91982  0.10449  1.0000
  C   C941      1.0  0.61525  0.85331  0.07853  1.0000
  C   C942      1.0  0.70729  0.94273  0.06393  1.0000
  H   H1656     1.0  0.59413  0.81590  0.04958  1.0000
  C   C943      1.0  0.48791  0.56413  0.03351  1.0000
  C   C944      1.0  0.61580  0.93084  0.13231  1.0000
  C   C945      1.0  0.58865  0.82207  0.06888  1.0000
  C   C946      1.0  0.73639  0.93788  0.06348  1.0000
  H   H1657     1.0  0.62206  0.87318  0.04151  1.0000
  H   H1658     1.0  0.59693  0.88175  0.06134  1.0000
  H   H1659     1.0  0.62235  0.93691  0.05400  1.0000
  H   H1660     1.0  0.63106  0.96461  0.01195  1.0000
  H   H1661     1.0  0.67633  0.89831  0.04523  1.0000
  H   H1662     1.0  0.67964  0.89632  0.07838  1.0000
  H   H1663     1.0  0.65062  0.90685  0.10816  1.0000
  H   H1664     1.0  0.66348  0.94608  0.09918  1.0000
  H   H1665     1.0  0.59406  0.89560  0.10290  1.0000
  H   H1666     1.0  0.60758  0.93500  0.09317  1.0000
  H   H1667     1.0  0.63679  0.85061  0.07874  1.0000
  H   H1668     1.0  0.60955  0.85731  0.09839  1.0000
  H   H1669     1.0  0.70865  0.95715  0.08117  1.0000
  H   H1670     1.0  0.70849  0.95647  0.04705  1.0000
  H   H1671     1.0  0.48850  0.49626  0.22279  1.0000
  H   H1672     1.0  0.85969  0.93885  0.05487  1.0000
  H   H1673     1.0  0.50688  0.68650  0.09812  1.0000
  H   H1674     1.0  0.49359  0.57001  0.05400  1.0000
  H   H1675     1.0  0.79340  0.80093  0.01220  1.0000
  H   H1676     1.0  0.62009  0.91514  0.14479  1.0000
  H   H1677     1.0  0.63482  0.95534  0.13487  1.0000
  H   H1678     1.0  0.59340  0.93039  0.13818  1.0000
  C   C947      1.0  0.96911  0.85750  0.00801  1.0000
  H   H1679     1.0  0.74656  0.96824  0.00972  1.0000
  H   H1680     1.0  0.82839  0.91881  0.07768  1.0000
  H   H1681     1.0  0.56347  0.70211  0.09470  1.0000
  H   H1682     1.0  0.51318  0.67677  0.15508  1.0000
  H   H1683     1.0  0.84792  0.81575  0.01850  1.0000
  C   C948      1.0  0.87293  0.59048  0.11407  1.0000
  C   C949      1.0  0.89648  0.63440  0.14489  1.0000
  C   C950      1.0  0.90507  0.64751  0.17255  1.0000
  C   C951      1.0  0.92357  0.58975  0.14880  1.0000
  C   C952      1.0  0.85734  0.60521  0.09740  1.0000
  C   C953      1.0  0.92871  0.68244  0.17288  1.0000
  C   C954      1.0  0.85165  0.59090  0.07045  1.0000
  H   H1684     1.0  0.89651  0.59774  0.10559  1.0000
  H   H1685     1.0  0.91846  0.64179  0.13370  1.0000
  H   H1686     1.0  0.88502  0.64731  0.13651  1.0000
  H   H1687     1.0  0.91573  0.63537  0.18301  1.0000
  H   H1688     1.0  0.92573  0.58417  0.12848  1.0000
  H   H1689     1.0  0.93974  0.61497  0.15262  1.0000
  H   H1690     1.0  0.87287  0.63089  0.09591  1.0000
  H   H1691     1.0  0.83440  0.60143  0.10518  1.0000
  H   H1692     1.0  0.82761  0.94794  0.05749  1.0000
  H   H1693     1.0  0.71680  0.82957  0.99911  1.0000
  C   C955      1.0  0.55370  0.70573  0.11304  1.0000
  H   H1694     1.0  0.62628  0.91067  0.01505  1.0000
  H   H1695     1.0  0.83385  0.56573  0.07061  1.0000
  H   H1696     1.0  0.84297  0.60357  0.05830  1.0000
  H   H1697     1.0  0.87371  0.59293  0.06193  1.0000
  H   H1698     1.0  0.55763  0.73034  0.11419  1.0000
  N   N54       1.0  0.75532  0.69404  0.15279  1.0000
  C   C956      1.0  0.73495  0.66013  0.14469  1.0000
  C   C957      1.0  0.78463  0.70859  0.13644  1.0000
  C   C958      1.0  0.76519  0.69424  0.17994  1.0000
  C   C959      1.0  0.73791  0.71307  0.15232  1.0000
  C   C960      1.0  0.72251  0.71329  0.12688  1.0000
  C   C961      1.0  0.70447  0.64171  0.16028  1.0000
  C   C962      1.0  0.79041  0.72620  0.19113  1.0000
  C   C963      1.0  0.78154  0.69777  0.10800  1.0000
  C   C964      1.0  0.81125  0.71829  0.09299  1.0000
  C   C965      1.0  0.70087  0.72822  0.13055  1.0000
  C   C966      1.0  0.68579  0.60806  0.14985  1.0000
  H   H1699     1.0  0.79071  0.55781  0.18250  1.0000
  H   H1700     1.0  0.74868  0.64707  0.14567  1.0000
  H   H1701     1.0  0.72781  0.65785  0.12453  1.0000
  H   H1702     1.0  0.79521  0.73469  0.13736  1.0000
  H   H1703     1.0  0.80291  0.70324  0.14406  1.0000
  H   H1704     1.0  0.77419  0.67703  0.18187  1.0000
  H   H1705     1.0  0.74482  0.68645  0.19305  1.0000
  H   H1706     1.0  0.71951  0.70538  0.16730  1.0000
  H   H1707     1.0  0.75386  0.73811  0.15734  1.0000
  H   H1708     1.0  0.70812  0.68933  0.11877  1.0000
  H   H1709     1.0  0.74088  0.72761  0.11300  1.0000
  H   H1710     1.0  0.70973  0.63999  0.18042  1.0000
  H   H1711     1.0  0.68925  0.65310  0.15941  1.0000
  H   H1712     1.0  0.78219  0.74413  0.19113  1.0000
  H   H1713     1.0  0.81270  0.73507  0.18021  1.0000
  H   H1714     1.0  0.77790  0.67325  0.10643  1.0000
  H   H1715     1.0  0.76160  0.69839  0.09859  1.0000
  H   H1716     1.0  0.83178  0.71715  0.10096  1.0000
  H   H1717     1.0  0.80851  0.70981  0.07283  1.0000
  H   H1718     1.0  0.81582  0.74309  0.09346  1.0000
  H   H1719     1.0  0.69081  0.72907  0.11197  1.0000
  H   H1720     1.0  0.68121  0.71417  0.14365  1.0000
  H   H1721     1.0  0.71400  0.75256  0.13852  1.0000
  H   H1722     1.0  0.69996  0.59544  0.15086  1.0000
  H   H1723     1.0  0.66424  0.59533  0.16145  1.0000
  H   H1724     1.0  0.67882  0.60789  0.12982  1.0000
  C   C967      1.0  0.50287  0.62086  0.18455  1.0000
  H   H1725     1.0  0.61470  0.60188  0.20244  1.0000
  C   C968      1.0  0.78730  0.55187  0.16181  1.0000
  H   H1726     1.0  0.73340  0.86509  0.01878  1.0000
  N   N55       1.0  0.81083  0.85120  0.01743  1.0000
  H   H1727     1.0  0.51626  0.65857  0.11240  1.0000
  C   C969      1.0  0.60363  0.61644  0.20947  1.0000
  H   H1728     1.0  0.55594  0.62817  0.22424  1.0000
  C   C970      1.0  0.97467  0.61903  0.08791  1.0000
  H   H1729     1.0  0.64249  0.65843  0.17401  1.0000
  H   H1730     1.0  0.77810  0.56645  0.15298  1.0000
  H   H1731     1.0  0.49508  0.72695  0.10868  1.0000
  H   H1732     1.0  0.53229  0.56625  0.02523  1.0000
  C   C971      1.0  0.83406  0.92869  0.05836  1.0000
  H   H1733     1.0  0.60181  0.57233  0.23896  1.0000
  C   C972      1.0  0.78003  0.84690  0.00722  1.0000
  H   H1734     1.0  0.67334  0.98102  0.01294  1.0000
  H   H1735     1.0  0.62262  0.63765  0.21881  1.0000
  C   C973      1.0  0.48968  0.96087  0.99800  1.0000
  H   H1736     1.0  0.87508  0.55569  0.15094  1.0000
  H   H1737     1.0  0.77635  0.71499  0.23076  1.0000
  C   C974      1.0  0.80528  0.81979  0.02706  1.0000
  C   C975      1.0  0.82346  0.87553  0.03891  1.0000
  C   C976      1.0  0.81580  0.90342  0.03817  1.0000
  C   C977      1.0  0.75189  0.83260  0.02602  1.0000
  C   C978      1.0  0.83485  0.81769  0.03548  1.0000
  C   C979      1.0  0.83416  0.85949  0.99581  1.0000
  C   C980      1.0  0.78496  0.95930  0.99939  1.0000
  C   C981      1.0  0.72534  0.83939  0.01846  1.0000
  C   C982      1.0  0.82602  0.78864  0.05126  1.0000
  C   C983      1.0  0.65109  0.95987  0.00768  1.0000
  H   H1738     1.0  0.53082  0.49034  0.00771  1.0000
  C   C984      1.0  0.55168  0.57099  0.21347  1.0000
  H   H1739     1.0  0.56641  0.70186  0.12877  1.0000
  S   S219      1.0  0.63054  0.77620  0.22723  1.0000
  H   H1740     1.0  0.78903  0.81300  0.04366  1.0000
  H   H1741     1.0  0.81452  0.86447  0.05762  1.0000
  H   H1742     1.0  0.59006  0.64895  0.19189  1.0000
  H   H1743     1.0  0.79051  0.89532  0.04185  1.0000
  H   H1744     1.0  0.57310  0.59006  0.99926  1.0000
  H   H1745     1.0  0.74235  0.80667  0.02610  1.0000
  H   H1746     1.0  0.75903  0.84184  0.04572  1.0000
  H   H1747     1.0  0.62330  0.62045  0.15785  1.0000
  H   H1748     1.0  0.48738  0.52901  0.20822  1.0000
  H   H1749     1.0  0.80672  0.70552  0.21976  1.0000
  H   H1750     1.0  0.56633  0.82337  0.06819  1.0000
  C   C985      1.0  0.59419  0.62885  0.18602  1.0000
  H   H1751     1.0  0.82465  0.54015  0.15689  1.0000
  H   H1752     1.0  0.73572  0.92253  0.04704  1.0000
  C   C986      1.0  0.50414  0.68620  0.14011  1.0000
  C   C987      1.0  0.62004  0.64034  0.16582  1.0000
  C   C988      1.0  0.84417  0.59143  0.15368  1.0000
  H   H1753     1.0  0.49625  0.71533  0.18217  1.0000
  H   H1754     1.0  0.95943  0.57731  0.15942  1.0000
  H   H1755     1.0  0.56160  0.56306  0.19718  1.0000
  H   H1756     1.0  0.80885  0.76710  0.04093  1.0000
  H   H1757     1.0  0.57276  0.61051  0.17673  1.0000
  C   C989      1.0  0.50258  0.51810  0.21221  1.0000
  N   N56       1.0  0.87571  0.59942  0.14201  1.0000
  C   C990      1.0  0.79771  0.72282  0.21868  1.0000
  Fe  Fe111     1.0  0.75022  0.60058  0.23185  1.0000
  C   C991      1.0  0.75346  0.95261  0.99953  1.0000
  C   C992      1.0  0.81799  0.55720  0.14901  1.0000
  H   H1758     1.0  0.85077  0.83865  0.04703  1.0000
  H   H1759     1.0  0.81310  0.55176  0.12843  1.0000
  H   H1760     1.0  0.84627  0.59549  0.17468  1.0000
  H   H1761     1.0  0.94812  0.60559  0.02683  1.0000
  H   H1762     1.0  0.84941  0.88553  0.04004  1.0000
  H   H1763     1.0  0.93420  0.69139  0.19285  1.0000
  H   H1764     1.0  0.70546  0.82833  0.03200  1.0000
  S   S220      1.0  0.55323  0.74085  0.23112  1.0000
  H   H1765     1.0  0.71419  0.65796  0.23416  1.0000
  H   H1766     1.0  0.82142  0.91474  0.01957  1.0000
  H   H1767     1.0  0.96859  0.83423  0.00810  1.0000
  H   H1768     1.0  0.96796  0.64999  0.11478  1.0000
  H   H1769     1.0  0.96240  0.86240  0.02729  1.0000
  H   H1770     1.0  0.53575  0.57883  0.20470  1.0000
  S   S221      1.0  0.49179  0.92830  0.01093  1.0000
  C   C993      1.0  0.53090  0.54063  0.22810  1.0000
  H   H1771     1.0  0.97812  0.49565  0.03103  1.0000
  H   H1772     1.0  0.51026  0.51176  0.19388  1.0000
  C   C994      1.0  0.82464  0.74632  0.99207  1.0000
  H   H1773     1.0  0.97087  0.57790  0.99683  1.0000
  H   H1774     1.0  0.97404  0.70703  0.01699  1.0000
  C   C995      1.0  0.70208  0.67129  0.23943  1.0000
  C   C996      1.0  0.56588  0.61983  0.23931  1.0000
  H   H1775     1.0  0.95157  0.85648  0.99416  1.0000
  C   C997      1.0  0.48862  0.57357  0.14591  1.0000
  H   H1776     1.0  0.62477  0.59015  0.99313  1.0000
  C   C998      1.0  0.98214  0.48885  0.01208  1.0000
  H   H1777     1.0  0.85710  0.91089  0.99540  1.0000
  H   H1778     1.0  0.98373  0.67621  0.00839  1.0000
  Fe  Fe112     1.0  0.68107  0.90471  0.44050  1.0000
  S   S222      1.0  0.71890  0.93134  0.41233  1.0000
  S   S223      1.0  0.64123  0.91668  0.44719  1.0000
  Fe  Fe113     1.0  0.71119  0.86326  0.45457  1.0000
  S   S224      1.0  0.75069  0.88756  0.42684  1.0000
  C   C999      1.0  0.84711  0.58990  0.44288  1.0000
  Fe  Fe114     1.0  0.75195  0.93256  0.44240  1.0000
  C   C1000     1.0  0.86611  0.68149  0.38379  1.0000
  Fe  Fe115     1.0  0.71322  0.88385  0.39981  1.0000
  S   S225      1.0  0.71118  0.87128  0.35731  1.0000
  S   S226      1.0  0.71428  0.90827  0.47158  1.0000
  S   S227      1.0  0.67358  0.85711  0.42658  1.0000
  C   C1001     1.0  0.58292  0.52894  0.43421  1.0000
  H   H1779     1.0  0.53766  0.87331  0.33949  1.0000
  Fe  Fe116     1.0  0.70327  0.55703  0.27286  1.0000
  S   S228      1.0  0.72794  0.59266  0.30422  1.0000
  H   H1780     1.0  0.52202  0.54554  0.24631  1.0000
  Fe  Fe117     1.0  0.72912  0.62784  0.27654  1.0000
  S   S229      1.0  0.71414  0.66432  0.28909  1.0000
  Fe  Fe118     1.0  0.77293  0.59890  0.28583  1.0000
  S   S230      1.0  0.81761  0.60612  0.30624  1.0000
  H   H1781     1.0  0.53262  0.49467  0.40913  1.0000
  C   C1002     1.0  0.57705  0.50466  0.29791  1.0000
  H   H1782     1.0  0.60620  0.62491  0.27703  1.0000
  S   S231      1.0  0.59680  0.75903  0.29849  1.0000
  Fe  Fe119     1.0  0.88893  0.51068  0.37876  1.0000
  S   S232      1.0  0.91980  0.51052  0.34631  1.0000
  Fe  Fe120     1.0  0.59390  0.74778  0.25572  1.0000
  H   H1783     1.0  0.78189  0.84724  0.29328  1.0000
  C   C1003     1.0  0.60829  0.54780  0.39270  1.0000
  Fe  Fe121     1.0  0.95900  0.54543  0.37117  1.0000
  S   S233      1.0  0.92791  0.54738  0.40243  1.0000
  C   C1004     1.0  0.92894  0.71746  0.47200  1.0000
  C   C1005     1.0  0.90231  0.74891  0.46934  1.0000
  C   C1006     1.0  0.75716  0.83993  0.28820  1.0000
  C   C1007     1.0  0.92576  0.76882  0.45243  1.0000
  C   C1008     1.0  0.95126  0.76357  0.44567  1.0000
  H   H1784     1.0  0.84679  0.70867  0.29701  1.0000
  H   H1785     1.0  0.56385  0.51575  0.29094  1.0000
  H   H1786     1.0  0.65874  0.71960  0.25783  1.0000
  H   H1787     1.0  0.58674  0.81630  0.31435  1.0000
  C   C1009     1.0  0.82379  0.57821  0.32338  1.0000
  C   C1010     1.0  0.79895  0.55107  0.33308  1.0000
  C   C1011     1.0  0.80501  0.53074  0.34806  1.0000
  C   C1012     1.0  0.83592  0.53683  0.35306  1.0000
  C   C1013     1.0  0.86074  0.56358  0.34288  1.0000
  C   C1014     1.0  0.85471  0.58435  0.32848  1.0000
  H   H1788     1.0  0.77504  0.54602  0.32945  1.0000
  N   N57       1.0  0.58325  0.52006  0.40641  1.0000
  H   H1789     1.0  0.88455  0.56819  0.34615  1.0000
  H   H1790     1.0  0.87414  0.60508  0.32093  1.0000
  H   H1791     1.0  0.87028  0.49960  0.45542  1.0000
  C   C1015     1.0  0.59574  0.83886  0.30444  1.0000
  C   C1016     1.0  0.53518  0.63153  0.27397  1.0000
  H   H1792     1.0  0.86455  0.59921  0.40329  1.0000
  C   C1017     1.0  0.95272  0.73773  0.45554  1.0000
  C   C1018     1.0  0.93549  0.62173  0.45798  1.0000
  C   C1019     1.0  0.58109  0.56593  0.46882  1.0000
  C   C1020     1.0  0.60795  0.51446  0.28905  1.0000
  H   H1793     1.0  0.59371  0.52586  0.35440  1.0000
  H   H1794     1.0  0.61806  0.53236  0.27497  1.0000
  H   H1795     1.0  0.76683  0.71833  0.32496  1.0000
  H   H1796     1.0  0.58694  0.97340  0.41642  1.0000
  H   H1797     1.0  0.54599  0.64611  0.47627  1.0000
  C   C1021     1.0  0.63419  0.93928  0.42482  1.0000
  C   C1022     1.0  0.61166  0.94932  0.43020  1.0000
  H   H1798     1.0  0.50379  0.53711  0.36889  1.0000
  H   H1799     1.0  0.82482  0.57312  0.45216  1.0000
  C   C1023     1.0  0.64321  0.96366  0.38365  1.0000
  C   C1024     1.0  0.65037  0.94711  0.40166  1.0000
  H   H1800     1.0  0.90285  0.63842  0.44678  1.0000
  C   C1025     1.0  0.53998  0.60588  0.25989  1.0000
  H   H1801     1.0  0.66772  0.93960  0.39725  1.0000
  C   C1026     1.0  0.67880  0.84025  0.34135  1.0000
  C   C1027     1.0  0.67957  0.83745  0.31468  1.0000
  C   C1028     1.0  0.65490  0.81259  0.30129  1.0000
  C   C1029     1.0  0.62888  0.79040  0.31443  1.0000
  C   C1030     1.0  0.62794  0.79338  0.34110  1.0000
  C   C1031     1.0  0.65276  0.81810  0.35451  1.0000
  H   H1802     1.0  0.69934  0.85470  0.30426  1.0000
  H   H1803     1.0  0.65585  0.81082  0.28077  1.0000
  H   H1804     1.0  0.60788  0.77641  0.35146  1.0000
  H   H1805     1.0  0.65181  0.81989  0.37501  1.0000
  H   H1806     1.0  0.62963  0.52793  0.36527  1.0000
  H   H1807     1.0  0.61745  0.50340  0.41109  1.0000
  H   H1808     1.0  0.91435  0.66914  0.39357  1.0000
  H   H1809     1.0  0.60242  0.56737  0.39205  1.0000
  C   C1032     1.0  0.59264  0.49421  0.40491  1.0000
  H   H1810     1.0  0.93030  0.69753  0.47945  1.0000
  H   H1811     1.0  0.63077  0.55775  0.40340  1.0000
  H   H1812     1.0  0.88022  0.55780  0.42690  1.0000
  N   N58       1.0  0.87485  0.58898  0.45476  1.0000
  C   C1033     1.0  0.63455  0.57076  0.35042  1.0000
  H   H1813     1.0  0.77079  0.73558  0.29425  1.0000
  C   C1034     1.0  0.68409  0.93141  0.32671  1.0000
  C   C1035     1.0  0.57525  0.55614  0.44066  1.0000
  C   C1036     1.0  0.81581  0.58695  0.40371  1.0000
  H   H1814     1.0  0.67839  0.69819  0.29138  1.0000
  C   C1037     1.0  0.55107  0.50791  0.39480  1.0000
  N   N59       1.0  0.59740  0.87217  0.34458  1.0000
  C   C1038     1.0  0.58576  0.89456  0.35447  1.0000
  C   C1039     1.0  0.63280  0.88929  0.34418  1.0000
  H   H1815     1.0  0.81879  0.61077  0.40840  1.0000
  C   C1040     1.0  0.58696  0.84440  0.36158  1.0000
  C   C1041     1.0  0.59454  0.85233  0.39031  1.0000
  C   C1042     1.0  0.96763  0.76961  0.35656  1.0000
  H   H1816     1.0  0.84790  0.68141  0.44851  1.0000
  C   C1043     1.0  0.64839  0.91515  0.32417  1.0000
  C   C1044     1.0  0.58509  0.82257  0.40525  1.0000
  H   H1817     1.0  0.79335  0.56912  0.41192  1.0000
  H   H1818     1.0  0.95145  0.64505  0.38457  1.0000
  C   C1045     1.0  0.54333  0.53263  0.38306  1.0000
  H   H1819     1.0  0.59699  0.90546  0.37290  1.0000
  H   H1820     1.0  0.64193  0.90085  0.36296  1.0000
  H   H1821     1.0  0.64244  0.87251  0.34137  1.0000
  H   H1822     1.0  0.93463  0.62470  0.47890  1.0000
  H   H1823     1.0  0.51604  0.62076  0.28819  1.0000
  H   H1824     1.0  0.56137  0.82843  0.35962  1.0000
  H   H1825     1.0  0.59820  0.82979  0.35541  1.0000
  H   H1826     1.0  0.58169  0.86441  0.39870  1.0000
  H   H1827     1.0  0.61997  0.86765  0.39342  1.0000
  H   H1828     1.0  0.65677  0.58630  0.36049  1.0000
  H   H1829     1.0  0.58581  0.64151  0.24721  1.0000
  H   H1830     1.0  0.87395  0.72200  0.33878  1.0000
  S   S234      1.0  0.94004  0.50811  0.46255  1.0000
  H   H1831     1.0  0.64267  0.90509  0.30454  1.0000
  C   C1046     1.0  0.87570  0.55885  0.44763  1.0000
  C   C1047     1.0  0.50837  0.51902  0.37761  1.0000
  H   H1832     1.0  0.59820  0.81009  0.39824  1.0000
  H   H1833     1.0  0.59078  0.82900  0.42567  1.0000
  H   H1834     1.0  0.55951  0.80662  0.40352  1.0000
  C   C1048     1.0  0.61639  0.61205  0.26576  1.0000
  H   H1835     1.0  0.64053  0.56469  0.33125  1.0000
  H   H1836     1.0  0.62164  0.84982  0.30361  1.0000
  S   S235      1.0  0.77672  0.63828  0.26121  1.0000
  H   H1837     1.0  0.80364  0.75076  0.31570  1.0000
  H   H1838     1.0  0.84359  0.70541  0.42508  1.0000
  C   C1049     1.0  0.84323  0.58308  0.41376  1.0000
  C   C1050     1.0  0.87196  0.68309  0.41285  1.0000
  H   H1839     1.0  0.93444  0.72246  0.38739  1.0000
  H   H1840     1.0  0.89371  0.70457  0.41841  1.0000
  H   H1841     1.0  0.59281  0.85280  0.26592  1.0000
  H   H1842     1.0  0.88523  0.64016  0.37314  1.0000
  H   H1843     1.0  0.84601  0.65795  0.37915  1.0000
  C   C1051     1.0  0.84464  0.68320  0.42793  1.0000
  H   H1844     1.0  0.62076  0.58353  0.34805  1.0000
  C   C1052     1.0  0.62522  0.50002  0.29746  1.0000
  H   H1845     1.0  0.91842  0.61552  0.36708  1.0000
  N   N60       1.0  0.71841  0.77124  0.33587  1.0000
  C   C1053     1.0  0.72233  0.77332  0.36438  1.0000
  C   C1054     1.0  0.73158  0.75058  0.32477  1.0000
  C   C1055     1.0  0.73539  0.80396  0.32567  1.0000
  C   C1056     1.0  0.68431  0.75701  0.32859  1.0000
  C   C1057     1.0  0.66217  0.72503  0.34058  1.0000
  C   C1058     1.0  0.70716  0.79106  0.37941  1.0000
  C   C1059     1.0  0.73586  0.80627  0.29630  1.0000
  C   C1060     1.0  0.76767  0.76404  0.32625  1.0000
  H   H1846     1.0  0.59283  0.91454  0.34149  1.0000
  C   C1061     1.0  0.62873  0.71214  0.33068  1.0000
  C   C1062     1.0  0.71114  0.79014  0.40808  1.0000
  H   H1847     1.0  0.81460  0.58360  0.38271  1.0000
  H   H1848     1.0  0.74763  0.78566  0.36938  1.0000
  H   H1849     1.0  0.71319  0.74947  0.37229  1.0000
  H   H1850     1.0  0.72122  0.72769  0.33446  1.0000
  H   H1851     1.0  0.72473  0.74435  0.30449  1.0000
  H   H1852     1.0  0.75988  0.81646  0.33288  1.0000
  H   H1853     1.0  0.72441  0.81836  0.33302  1.0000
  H   H1854     1.0  0.67489  0.77361  0.33324  1.0000
  H   H1855     1.0  0.68171  0.75319  0.30759  1.0000
  H   H1856     1.0  0.66124  0.72745  0.36157  1.0000
  H   H1857     1.0  0.66998  0.70722  0.33593  1.0000
  H   H1858     1.0  0.71844  0.81615  0.37437  1.0000
  H   H1859     1.0  0.68170  0.78068  0.37562  1.0000
  H   H1860     1.0  0.71192  0.79930  0.28918  1.0000
  C   C1063     1.0  0.59129  0.58639  0.24815  1.0000
  H   H1861     1.0  0.55017  0.55367  0.39553  1.0000
  H   H1862     1.0  0.77575  0.76886  0.34626  1.0000
  H   H1863     1.0  0.55179  0.91166  0.38981  1.0000
  Fe  Fe122     1.0  0.93385  0.50815  0.41935  1.0000
  H   H1864     1.0  0.78001  0.78609  0.31563  1.0000
  H   H1865     1.0  0.62820  0.70970  0.30958  1.0000
  H   H1866     1.0  0.61365  0.68867  0.33862  1.0000
  H   H1867     1.0  0.61883  0.72798  0.33662  1.0000
  H   H1868     1.0  0.70026  0.80316  0.41827  1.0000
  H   H1869     1.0  0.69949  0.76556  0.41461  1.0000
  H   H1870     1.0  0.73637  0.80150  0.41321  1.0000
  H   H1871     1.0  0.85759  0.69882  0.38028  1.0000
  C   C1064     1.0  0.49858  0.51524  0.48644  1.0000
  C   C1065     1.0  0.60487  0.96643  0.41234  1.0000
  N   N61       1.0  0.89385  0.68749  0.36678  1.0000
  C   C1066     1.0  0.88214  0.68054  0.33971  1.0000
  C   C1067     1.0  0.91913  0.72106  0.37127  1.0000
  C   C1068     1.0  0.67064  0.70602  0.25261  1.0000
  C   C1069     1.0  0.86339  0.69742  0.33126  1.0000
  H   H1872     1.0  0.68895  0.70609  0.49020  1.0000
  C   C1070     1.0  0.86160  0.69782  0.30231  1.0000
  H   H1873     1.0  0.86642  0.65486  0.33679  1.0000
  H   H1874     1.0  0.90158  0.68592  0.32599  1.0000
  C   C1071     1.0  0.61555  0.54069  0.36505  1.0000
  H   H1875     1.0  0.54029  0.85977  0.37043  1.0000
  H   H1876     1.0  0.65510  0.96862  0.36546  1.0000
  H   H1877     1.0  0.60646  0.57632  0.47328  1.0000
  H   H1878     1.0  0.83896  0.68479  0.33863  1.0000
  H   H1879     1.0  0.69992  0.98417  0.44224  1.0000
  H   H1880     1.0  0.92503  0.65886  0.33691  1.0000
  H   H1881     1.0  0.78560  0.51014  0.35581  1.0000
  H   H1882     1.0  0.74986  0.85644  0.29759  1.0000
  H   H1883     1.0  0.58972  0.57733  0.42960  1.0000
  H   H1884     1.0  0.54735  0.49029  0.37921  1.0000
  H   H1885     1.0  0.90775  0.61279  0.42448  1.0000
  H   H1886     1.0  0.51547  0.89429  0.37246  1.0000
  C   C1072     1.0  0.87194  0.59095  0.48329  1.0000
  H   H1887     1.0  0.92426  0.78860  0.44474  1.0000
  H   H1888     1.0  0.84851  0.61341  0.44631  1.0000
  C   C1073     1.0  0.62014  0.97301  0.38873  1.0000
  C   C1074     1.0  0.58372  0.83110  0.27712  1.0000
  H   H1889     1.0  0.82489  0.52617  0.44488  1.0000
  H   H1890     1.0  0.69130  0.94267  0.34590  1.0000
  H   H1891     1.0  0.59906  0.94343  0.44807  1.0000
  H   H1892     1.0  0.92727  0.74239  0.33365  1.0000
  H   H1893     1.0  0.58900  0.88058  0.30597  1.0000
  H   H1894     1.0  0.96695  0.64886  0.42757  1.0000
  C   C1075     1.0  0.62938  0.59781  0.28466  1.0000
  H   H1895     1.0  0.90868  0.73641  0.37763  1.0000
  H   H1896     1.0  0.59193  0.81519  0.26790  1.0000
  H   H1897     1.0  0.50627  0.98462  0.44069  1.0000
  H   H1898     1.0  0.74453  0.79107  0.28666  1.0000
  H   H1899     1.0  0.55769  0.81900  0.27680  1.0000
  C   C1076     1.0  0.54977  0.88045  0.35811  1.0000
  H   H1900     1.0  0.87406  0.66224  0.41861  1.0000
  C   C1077     1.0  0.93977  0.63855  0.36577  1.0000
  H   H1901     1.0  0.89565  0.55800  0.45715  1.0000
  H   H1902     1.0  0.55831  0.84655  0.31916  1.0000
  C   C1078     1.0  0.68218  0.69430  0.27161  1.0000
  C   C1079     1.0  0.90375  0.72304  0.47919  1.0000
  H   H1903     1.0  0.69311  0.91418  0.32359  1.0000
  H   H1904     1.0  0.55599  0.54057  0.36473  1.0000
  H   H1905     1.0  0.69485  0.94985  0.31227  1.0000
  H   H1906     1.0  0.55692  0.64829  0.28408  1.0000
  C   C1080     1.0  0.69846  0.67743  0.26506  1.0000
  S   S236      1.0  0.96781  0.50875  0.38939  1.0000
  S   S237      1.0  0.98060  0.78974  0.42482  1.0000
  S   S238      1.0  0.84237  0.51146  0.37326  1.0000
  H   H1907     1.0  0.95358  0.68665  0.35918  1.0000
  C   C1081     1.0  0.58429  0.86050  0.31832  1.0000
  H   H1908     1.0  0.83838  0.55867  0.40902  1.0000
  H   H1909     1.0  0.61018  0.57947  0.29587  1.0000
  H   H1910     1.0  0.64296  0.58759  0.27451  1.0000
  H   H1911     1.0  0.64553  0.61646  0.29805  1.0000
  H   H1912     1.0  0.60591  0.53480  0.44302  1.0000
  H   H1913     1.0  0.57316  0.58371  0.47345  1.0000
  S   S239      1.0  0.66301  0.50932  0.28475  1.0000
  C   C1082     1.0  0.90527  0.66447  0.37376  1.0000
  H   H1914     1.0  0.52849  0.64459  0.26051  1.0000
  C   C1083     1.0  0.96950  0.50279  0.47828  1.0000
  H   H1915     1.0  0.82201  0.66296  0.42209  1.0000
  H   H1916     1.0  0.50053  0.49864  0.36409  1.0000
  H   H1917     1.0  0.66558  0.97514  0.48018  1.0000
  C   C1084     1.0  0.77777  0.74072  0.31458  1.0000
  C   C1085     1.0  0.93185  0.66398  0.35720  1.0000
  H   H1918     1.0  0.64068  0.93339  0.32659  1.0000
  H   H1919     1.0  0.55003  0.54823  0.43707  1.0000
  H   H1920     1.0  0.85093  0.67353  0.29408  1.0000
  H   H1921     1.0  0.57298  0.57000  0.26110  1.0000
  C   C1086     1.0  0.54132  0.90459  0.37055  1.0000
  H   H1922     1.0  0.54567  0.59324  0.27438  1.0000
  H   H1923     1.0  0.54990  0.92580  0.35879  1.0000
  H   H1924     1.0  0.75574  0.84141  0.26728  1.0000
  C   C1087     1.0  0.84600  0.52802  0.45440  1.0000
  C   C1088     1.0  0.90453  0.61618  0.44514  1.0000
  H   H1925     1.0  0.59811  0.68778  0.49045  1.0000
  S   S240      1.0  0.79847  0.97648  0.45133  1.0000
  H   H1926     1.0  0.88535  0.71167  0.29401  1.0000
  H   H1927     1.0  0.94038  0.60175  0.45372  1.0000
  H   H1928     1.0  0.56485  0.50875  0.44479  1.0000
  H   H1929     1.0  0.97213  0.73332  0.45043  1.0000
  S   S241      1.0  0.74861  0.56147  0.25556  1.0000
  H   H1930     1.0  0.63656  0.62914  0.25474  1.0000
  H   H1931     1.0  0.95989  0.67232  0.45186  1.0000
  H   H1932     1.0  0.84180  0.52661  0.47522  1.0000
  H   H1933     1.0  0.95595  0.63587  0.35182  1.0000
  S   S242      1.0  0.70392  0.82035  0.47703  1.0000
  C   C1089     1.0  0.96340  0.65138  0.44824  1.0000
  H   H1934     1.0  0.85281  0.49878  0.42513  1.0000
  S   S243      1.0  0.59088  0.70184  0.24200  1.0000
  H   H1935     1.0  0.76061  0.98448  0.37214  1.0000
  C   C1090     1.0  0.94066  0.73785  0.34836  1.0000
  C   C1091     1.0  0.84971  0.49930  0.44605  1.0000
  S   S244      1.0  0.70227  0.59205  0.24602  1.0000
  H   H1936     1.0  0.56780  0.54545  0.48106  1.0000
  C   C1092     1.0  0.76577  0.83519  0.48765  1.0000
  C   C1093     1.0  0.48720  0.50709  0.46143  1.0000
  H   H1937     1.0  0.88290  0.75332  0.47446  1.0000
  H   H1938     1.0  0.84861  0.57256  0.48970  1.0000
  H   H1939     1.0  0.98229  0.78144  0.33981  1.0000
  H   H1940     1.0  0.85631  0.62711  0.48721  1.0000
  H   H1941     1.0  0.77243  0.85812  0.48018  1.0000
  H   H1942     1.0  0.95090  0.72380  0.33919  1.0000
  H   H1943     1.0  0.49449  0.51158  0.39546  1.0000
  C   C1094     1.0  0.73420  0.81245  0.48767  1.0000
  H   H1944     1.0  0.95853  0.78504  0.36529  1.0000
  H   H1945     1.0  0.59212  0.98010  0.48038  1.0000
  H   H1946     1.0  0.51738  0.58951  0.25072  1.0000
  H   H1947     1.0  0.89803  0.64252  0.48964  1.0000
  H   H1948     1.0  0.98270  0.76642  0.37056  1.0000
  H   H1949     1.0  0.78477  0.98575  0.39852  1.0000
  H   H1950     1.0  0.95271  0.81795  0.48941  1.0000
  H   H1951     1.0  0.53434  0.94494  0.48757  1.0000
  H   H1952     1.0  0.89267  0.81232  0.53744  1.0000
  Fe  Fe123     1.0  0.55175  0.57749  0.58919  1.0000
  S   S245      1.0  0.54817  0.60610  0.55826  1.0000
  S   S246      1.0  0.60147  0.59046  0.60126  1.0000
  Fe  Fe124     1.0  0.51452  0.61290  0.58436  1.0000
  H   H1953     1.0  0.94863  0.50040  0.51527  1.0000
  H   H1954     1.0  0.96641  0.54028  0.59027  1.0000
  H   H1955     1.0  0.92059  0.61613  0.61702  1.0000
  S   S247      1.0  0.51920  0.58558  0.61631  1.0000
  S   S248      1.0  0.51316  0.53196  0.57330  1.0000
  Fe  Fe125     1.0  0.80491  0.74495  0.53301  1.0000
  C   C1095     1.0  0.97945  0.70707  0.71301  1.0000
  S   S249      1.0  0.80975  0.79279  0.52308  1.0000
  Fe  Fe126     1.0  0.81165  0.70403  0.57445  1.0000
  S   S250      1.0  0.80248  0.66488  0.54624  1.0000
  S   S251      1.0  0.81914  0.70156  0.61700  1.0000
  Fe  Fe127     1.0  0.83509  0.70289  0.51994  1.0000
  H   H1956     1.0  0.90169  0.50243  0.72501  1.0000
  Fe  Fe128     1.0  0.76419  0.67439  0.53197  1.0000
  S   S252      1.0  0.71480  0.63706  0.52196  1.0000
  S   S253      1.0  0.84635  0.74171  0.54913  1.0000
  S   S254      1.0  0.77150  0.71170  0.56148  1.0000
  H   H1957     1.0  0.53394  0.63600  0.50876  1.0000
  Fe  Fe129     1.0  0.84063  0.59191  0.71729  1.0000
  S   S255      1.0  0.83540  0.59496  0.67435  1.0000
  Fe  Fe130     1.0  0.63158  0.88190  0.69640  1.0000
  S   S256      1.0  0.67009  0.93056  0.68763  1.0000
  Fe  Fe131     1.0  0.60142  0.81089  0.68483  1.0000
  S   S257      1.0  0.56304  0.80192  0.71332  1.0000
  S   S258      1.0  0.60640  0.76925  0.66749  1.0000
  Fe  Fe132     1.0  0.56102  0.84360  0.69656  1.0000
  S   S259      1.0  0.51369  0.84080  0.68683  1.0000
  S   S260      1.0  0.59728  0.85043  0.66653  1.0000
  S   S261      1.0  0.63986  0.84347  0.71163  1.0000
  H   H1958     1.0  0.79527  0.86092  0.66779  1.0000
  C   C1096     1.0  0.68071  0.95840  0.71306  1.0000
  C   C1097     1.0  0.77169  0.84125  0.66324  1.0000
  H   H1959     1.0  0.65606  0.81822  0.54063  1.0000
  C   C1098     1.0  0.62388  0.70689  0.56791  1.0000
  C   C1099     1.0  0.51906  0.78522  0.63405  1.0000
  H   H1960     1.0  0.53182  0.97670  0.50422  1.0000
  C   C1100     1.0  0.91745  0.66184  0.64840  1.0000
  H   H1961     1.0  0.55289  0.72990  0.70279  1.0000
  C   C1101     1.0  0.68812  0.56902  0.64794  1.0000
  C   C1102     1.0  0.82405  0.67184  0.63247  1.0000
  C   C1103     1.0  0.82807  0.67404  0.65902  1.0000
  C   C1104     1.0  0.83164  0.65085  0.67213  1.0000
  C   C1105     1.0  0.83097  0.62492  0.65884  1.0000
  C   C1106     1.0  0.82694  0.62271  0.63228  1.0000
  C   C1107     1.0  0.82363  0.64605  0.61916  1.0000
  H   H1962     1.0  0.82856  0.69392  0.66955  1.0000
  H   H1963     1.0  0.83500  0.65312  0.69251  1.0000
  H   H1964     1.0  0.82649  0.60286  0.62177  1.0000
  H   H1965     1.0  0.82082  0.64411  0.59874  1.0000
  C   C1108     1.0  0.63247  0.60542  0.57868  1.0000
  C   C1109     1.0  0.62705  0.59781  0.55273  1.0000
  C   C1110     1.0  0.65245  0.60789  0.53554  1.0000
  C   C1111     1.0  0.68342  0.62630  0.54399  1.0000
  C   C1112     1.0  0.68874  0.63496  0.56979  1.0000
  C   C1113     1.0  0.66340  0.62430  0.58706  1.0000
  H   H1966     1.0  0.60337  0.58324  0.54603  1.0000
  H   H1967     1.0  0.64811  0.60112  0.51562  1.0000
  H   H1968     1.0  0.71244  0.64922  0.57650  1.0000
  H   H1969     1.0  0.66779  0.63063  0.60701  1.0000
  C   C1114     1.0  0.54404  0.69185  0.60967  1.0000
  C   C1115     1.0  0.55031  0.72313  0.60664  1.0000
  C   C1116     1.0  0.56911  0.74704  0.62426  1.0000
  C   C1117     1.0  0.58192  0.73991  0.64513  1.0000
  C   C1118     1.0  0.57643  0.70881  0.64770  1.0000
  C   C1119     1.0  0.55727  0.68484  0.63030  1.0000
  C   C1120     1.0  0.73801  0.68245  0.67343  1.0000
  H   H1970     1.0  0.57422  0.77107  0.62150  1.0000
  H   H1971     1.0  0.58670  0.70311  0.66349  1.0000
  H   H1972     1.0  0.55268  0.66089  0.63290  1.0000
  H   H1973     1.0  0.55934  0.94724  0.70444  1.0000
  H   H1974     1.0  0.69109  0.54786  0.64339  1.0000
  H   H1975     1.0  0.70180  0.76514  0.49752  1.0000
  C   C1121     1.0  0.50624  0.86790  0.66965  1.0000
  C   C1122     1.0  0.53018  0.89742  0.66292  1.0000
  C   C1123     1.0  0.52298  0.91852  0.65010  1.0000
  H   H1976     1.0  0.55414  0.90404  0.66784  1.0000
  H   H1977     1.0  0.54161  0.94144  0.64535  1.0000
  C   C1124     1.0  0.73496  0.58851  0.69202  1.0000
  H   H1978     1.0  0.59782  0.95918  0.67321  1.0000
  C   C1125     1.0  0.78049  0.79900  0.50807  1.0000
  S   S262      1.0  0.59506  0.87703  0.72541  1.0000
  H   H1979     1.0  0.56779  0.94116  0.51896  1.0000
  C   C1126     1.0  0.76005  0.98194  0.56256  1.0000
  H   H1980     1.0  0.77473  0.85887  0.54118  1.0000
  H   H1981     1.0  0.71589  0.78761  0.58673  1.0000
  H   H1982     1.0  0.71800  0.74283  0.56257  1.0000
  C   C1127     1.0  0.87240  0.62178  0.52348  1.0000
  C   C1128     1.0  0.78871  0.82855  0.49798  1.0000
  H   H1983     1.0  0.84918  0.60285  0.52947  1.0000
  H   H1984     1.0  0.64401  0.66441  0.53149  1.0000
  H   H1985     1.0  0.75388  0.58001  0.72631  1.0000
  H   H1986     1.0  0.96998  0.72996  0.51557  1.0000
  H   H1987     1.0  0.89662  0.69304  0.65114  1.0000
  H   H1988     1.0  0.89414  0.54459  0.69428  1.0000
  H   H1989     1.0  0.60431  0.67070  0.61292  1.0000
  C   C1129     1.0  0.57224  0.95253  0.58066  1.0000
  H   H1990     1.0  0.96503  0.59057  0.57291  1.0000
  C   C1130     1.0  0.50349  0.71536  0.69603  1.0000
  Fe  Fe133     1.0  0.60134  0.83644  0.73912  1.0000
  C   C1131     1.0  0.62871  0.67880  0.60614  1.0000
  C   C1132     1.0  0.91375  0.56570  0.65781  1.0000
  C   C1133     1.0  0.61456  0.73604  0.53513  1.0000
  H   H1991     1.0  0.59200  0.96827  0.56850  1.0000
  H   H1992     1.0  0.93623  0.65434  0.68268  1.0000
  H   H1993     1.0  0.48634  0.87731  0.55990  1.0000
  H   H1994     1.0  0.67793  0.56527  0.66745  1.0000
  H   H1995     1.0  0.54050  0.78852  0.64384  1.0000
  H   H1996     1.0  0.53768  0.78341  0.59621  1.0000
  C   C1134     1.0  0.74902  0.77603  0.50755  1.0000
  H   H1997     1.0  0.93636  0.71038  0.66245  1.0000
  N   N62       1.0  0.53209  0.94149  0.54430  1.0000
  H   H1998     1.0  0.64424  0.72882  0.57490  1.0000
  C   C1135     1.0  0.96437  0.83003  0.50756  1.0000
  N   N63       1.0  0.71936  0.59839  0.64756  1.0000
  C   C1136     1.0  0.74234  0.59317  0.66314  1.0000
  C   C1137     1.0  0.71494  0.62543  0.65831  1.0000
  C   C1138     1.0  0.73208  0.60604  0.62083  1.0000
  C   C1139     1.0  0.73373  0.57903  0.60517  1.0000
  C   C1140     1.0  0.74538  0.65691  0.66247  1.0000
  H   H1999     1.0  0.77114  0.81863  0.66764  1.0000
  C   C1141     1.0  0.74534  0.58921  0.57814  1.0000
  H   H2000     1.0  0.50243  0.92476  0.71073  1.0000
  H   H2001     1.0  0.74384  0.57198  0.65593  1.0000
  H   H2002     1.0  0.76646  0.61281  0.66086  1.0000
  H   H2003     1.0  0.70178  0.61913  0.67662  1.0000
  H   H2004     1.0  0.70001  0.63054  0.64541  1.0000
  H   H2005     1.0  0.71836  0.61465  0.60980  1.0000
  H   H2006     1.0  0.75635  0.62590  0.62113  1.0000
  H   H2007     1.0  0.75023  0.57222  0.61401  1.0000
  H   H2008     1.0  0.75795  0.66544  0.64424  1.0000
  H   H2009     1.0  0.76144  0.65445  0.67591  1.0000
  H   H2010     1.0  0.71246  0.56704  0.69526  1.0000
  H   H2011     1.0  0.57041  0.67521  0.54485  1.0000
  H   H2012     1.0  0.76940  0.60924  0.57858  1.0000
  H   H2013     1.0  0.74591  0.56946  0.56712  1.0000
  H   H2014     1.0  0.72955  0.59624  0.56827  1.0000
  H   H2015     1.0  0.72620  0.67561  0.69222  1.0000
  H   H2016     1.0  0.66984  0.72632  0.53616  1.0000
  C   C1142     1.0  0.93903  0.81751  0.52890  1.0000
  H   H2017     1.0  0.59230  0.73288  0.54436  1.0000
  H   H2018     1.0  0.87746  0.88293  0.57139  1.0000
  H   H2019     1.0  0.96136  0.62606  0.57342  1.0000
  H   H2020     1.0  0.68106  0.66677  0.49709  1.0000
  H   H2021     1.0  0.54966  0.91041  0.55657  1.0000
  H   H2022     1.0  0.77969  0.78775  0.58935  1.0000
  S   S263      1.0  0.87433  0.69645  0.49978  1.0000
  S   S264      1.0  0.50121  0.55004  0.50124  1.0000
  H   H2023     1.0  0.56674  0.69372  0.50389  1.0000
  H   H2024     1.0  0.92750  0.58858  0.57945  1.0000
  H   H2025     1.0  0.93594  0.56532  0.66203  1.0000
  Fe  Fe134     1.0  0.50758  0.56152  0.54393  1.0000
  H   H2026     1.0  0.92470  0.66889  0.62851  1.0000
  C   C1143     1.0  0.50797  0.49588  0.49884  1.0000
  H   H2027     1.0  0.50072  0.96234  0.54402  1.0000
  H   H2028     1.0  0.88479  0.51699  0.66787  1.0000
  H   H2029     1.0  0.76851  0.97010  0.57578  1.0000
  H   H2030     1.0  0.69446  0.73105  0.59114  1.0000
  H   H2031     1.0  0.76345  0.86406  0.63218  1.0000
  C   C1144     1.0  0.64114  0.76846  0.54435  1.0000
  C   C1145     1.0  0.62150  0.76109  0.73855  1.0000
  N   N64       1.0  0.61959  0.70793  0.53965  1.0000
  H   H2032     1.0  0.63638  0.66178  0.61246  1.0000
  H   H2033     1.0  0.90455  0.68192  0.68141  1.0000
  C   C1146     1.0  0.63766  0.79539  0.53294  1.0000
  H   H2034     1.0  0.89128  0.61806  0.53186  1.0000
  H   H2035     1.0  0.52520  0.91665  0.57943  1.0000
  C   C1147     1.0  0.49190  0.91026  0.64339  1.0000
  H   H2036     1.0  0.49706  0.77483  0.68516  1.0000
  C   C1148     1.0  0.52999  0.70817  0.70290  1.0000
  H   H2037     1.0  0.62980  0.96055  0.69096  1.0000
  H   H2038     1.0  0.61238  0.65672  0.56980  1.0000
  C   C1149     1.0  0.96753  0.49914  0.50482  1.0000
  H   H2039     1.0  0.61484  0.53729  0.61833  1.0000
  S   S265      1.0  0.79558  0.70804  0.50247  1.0000
  H   H2040     1.0  0.56507  0.62950  0.49501  1.0000
  H   H2041     1.0  0.49406  0.92228  0.51700  1.0000
  H   H2042     1.0  0.73438  0.97276  0.56512  1.0000
  H   H2043     1.0  0.73248  0.77864  0.61397  1.0000
  H   H2044     1.0  0.59404  0.92246  0.58598  1.0000
  H   H2045     1.0  0.66466  0.77141  0.53893  1.0000
  H   H2046     1.0  0.76021  0.70468  0.67603  1.0000
  H   H2047     1.0  0.96027  0.60497  0.69997  1.0000
  C   C1150     1.0  0.62148  0.97496  0.68089  1.0000
  C   C1151     1.0  0.94491  0.62553  0.62445  1.0000
  H   H2048     1.0  0.97917  0.60991  0.65624  1.0000
  H   H2049     1.0  0.87470  0.64456  0.53100  1.0000
  C   C1152     1.0  0.73207  0.77881  0.59294  1.0000
  H   H2050     1.0  0.84293  0.84318  0.60243  1.0000
  C   C1153     1.0  0.71861  0.74462  0.58368  1.0000
  C   C1154     1.0  0.91364  0.68846  0.66176  1.0000
  H   H2051     1.0  0.67039  0.57251  0.61020  1.0000
  H   H2052     1.0  0.60294  0.94856  0.72554  1.0000
  H   H2053     1.0  0.76484  0.79488  0.56146  1.0000
  H   H2054     1.0  0.97054  0.85514  0.50557  1.0000
  H   H2055     1.0  0.64012  0.77102  0.56537  1.0000
  C   C1155     1.0  0.49335  0.75020  0.63354  1.0000
  C   C1156     1.0  0.94210  0.65545  0.66207  1.0000
  H   H2056     1.0  0.62298  0.53215  0.65059  1.0000
  H   H2057     1.0  0.72601  0.85778  0.52740  1.0000
  H   H2058     1.0  0.96517  0.67691  0.65994  1.0000
  H   H2059     1.0  0.70945  0.84777  0.55881  1.0000
  H   H2060     1.0  0.82882  0.81363  0.57740  1.0000
  C   C1157     1.0  0.63278  0.53690  0.63100  1.0000
  H   H2061     1.0  0.64511  0.97009  0.64691  1.0000
  H   H2062     1.0  0.93068  0.79220  0.53218  1.0000
  C   C1158     1.0  0.54383  0.92860  0.56492  1.0000
  H   H2063     1.0  0.74122  0.82103  0.54623  1.0000
  H   H2064     1.0  0.76326  0.56473  0.69757  1.0000
  H   H2065     1.0  0.73285  0.73401  0.59088  1.0000
  H   H2066     1.0  0.89923  0.80705  0.50429  1.0000
  H   H2067     1.0  0.60299  0.70561  0.57838  1.0000
  C   C1159     1.0  0.95528  0.68949  0.73027  1.0000
  H   H2068     1.0  0.64418  0.70214  0.61502  1.0000
  H   H2069     1.0  0.86302  0.85306  0.54620  1.0000
  H   H2070     1.0  0.73350  0.60886  0.70110  1.0000
  H   H2071     1.0  0.88482  0.84961  0.57219  1.0000
  H   H2072     1.0  0.63778  0.51764  0.62424  1.0000
  H   H2073     1.0  0.65587  0.58683  0.63649  1.0000
  C   C1160     1.0  0.66249  0.56853  0.63029  1.0000
  H   H2074     1.0  0.54057  0.72888  0.59053  1.0000
  S   S266      1.0  0.51924  0.66239  0.58753  1.0000
  H   H2075     1.0  0.71045  0.55800  0.60356  1.0000
  H   H2076     1.0  0.73982  0.82229  0.63198  1.0000
  C   C1161     1.0  0.62994  0.68006  0.57712  1.0000
  H   H2077     1.0  0.75412  0.84400  0.67552  1.0000
  H   H2078     1.0  0.86521  0.54079  0.67118  1.0000
  C   C1162     1.0  0.53689  0.97174  0.72386  1.0000
  H   H2079     1.0  0.51397  0.89947  0.51998  1.0000
  H   H2080     1.0  0.74326  0.88553  0.55345  1.0000
  H   H2081     1.0  0.65362  0.68408  0.57101  1.0000
  N   N65       1.0  0.78123  0.83335  0.58922  1.0000
  C   C1163     1.0  0.76179  0.84870  0.58151  1.0000
  C   C1164     1.0  0.78856  0.83895  0.61741  1.0000
  C   C1165     1.0  0.81190  0.84878  0.57474  1.0000
  C   C1166     1.0  0.76557  0.79870  0.58244  1.0000
  C   C1167     1.0  0.75340  0.84593  0.55291  1.0000
  C   C1168     1.0  0.83705  0.83890  0.58193  1.0000
  C   C1169     1.0  0.76381  0.84154  0.63528  1.0000
  C   C1170     1.0  0.73169  0.86015  0.54799  1.0000
  C   C1171     1.0  0.86742  0.85736  0.56698  1.0000
  H   H2082     1.0  0.77425  0.87423  0.58681  1.0000
  H   H2083     1.0  0.73923  0.83909  0.59204  1.0000
  H   H2084     1.0  0.79375  0.82046  0.62474  1.0000
  H   H2085     1.0  0.81035  0.86156  0.62078  1.0000
  H   H2086     1.0  0.82267  0.87484  0.57709  1.0000
  H   H2087     1.0  0.80796  0.84361  0.55399  1.0000
  C   C1172     1.0  0.56485  0.97212  0.70853  1.0000
  N   N66       1.0  0.94434  0.62635  0.65322  1.0000
  C   C1173     1.0  0.54742  0.96616  0.49996  1.0000
  H   H2088     1.0  0.72277  0.68668  0.66026  1.0000
  H   H2089     1.0  0.65100  0.72480  0.50723  1.0000
  H   H2090     1.0  0.94832  0.83076  0.54706  1.0000
  H   H2091     1.0  0.95822  0.64988  0.61731  1.0000
  H   H2092     1.0  0.91400  0.60119  0.68432  1.0000
  C   C1174     1.0  0.76038  0.58468  0.70593  1.0000
  H   H2093     1.0  0.54696  0.82226  0.60811  1.0000
  C   C1175     1.0  0.64828  0.71164  0.52491  1.0000
  C   C1176     1.0  0.95315  0.60297  0.58243  1.0000
  H   H2094     1.0  0.89406  0.59694  0.65574  1.0000
  H   H2095     1.0  0.97029  0.64572  0.70250  1.0000
  H   H2096     1.0  0.51726  0.50218  0.51791  1.0000
  C   C1177     1.0  0.94923  0.50688  0.72254  1.0000
  H   H2097     1.0  0.97731  0.78813  0.53784  1.0000
  H   H2098     1.0  0.64050  0.79522  0.51192  1.0000
  H   H2099     1.0  0.81295  0.84655  0.49833  1.0000
  H   H2100     1.0  0.74237  0.75325  0.51526  1.0000
  H   H2101     1.0  0.59684  0.74312  0.73505  1.0000
  H   H2102     1.0  0.78313  0.60645  0.70495  1.0000
  H   H2103     1.0  0.95484  0.52338  0.70667  1.0000
  H   H2104     1.0  0.50940  0.95495  0.57457  1.0000
  C   C1178     1.0  0.57845  0.67866  0.50433  1.0000
  C   C1179     1.0  0.59014  0.67891  0.53164  1.0000
  H   H2105     1.0  0.53093  0.69062  0.68918  1.0000
  H   H2106     1.0  0.51665  0.71740  0.65623  1.0000
  C   C1180     1.0  0.97648  0.62868  0.69293  1.0000
  C   C1181     1.0  0.64944  0.68115  0.51601  1.0000
  H   H2107     1.0  0.89420  0.64081  0.64788  1.0000
  H   H2108     1.0  0.60367  0.95317  0.60990  1.0000
  H   H2109     1.0  0.59318  0.65771  0.53320  1.0000
  H   H2110     1.0  0.88921  0.58565  0.49286  1.0000
  C   C1182     1.0  0.60440  0.96920  0.73662  1.0000
  H   H2111     1.0  0.90750  0.55888  0.63755  1.0000
  C   C1183     1.0  0.88790  0.54057  0.67379  1.0000
  H   H2112     1.0  0.69949  0.69756  0.52082  1.0000
  C   C1184     1.0  0.97451  0.62913  0.66357  1.0000
  C   C1185     1.0  0.91593  0.59831  0.66341  1.0000
  C   C1186     1.0  0.50521  0.91388  0.53109  1.0000
  H   H2113     1.0  0.57777  0.97838  0.53271  1.0000
  H   H2114     1.0  0.97823  0.52935  0.56056  1.0000
  C   C1187     1.0  0.52839  0.79737  0.60712  1.0000
  H   H2115     1.0  0.53068  0.75390  0.67224  1.0000
  C   C1188     1.0  0.50568  0.94917  0.71134  1.0000
  S   S267      1.0  0.88159  0.58741  0.73257  1.0000
  H   H2116     1.0  0.61175  0.73811  0.51443  1.0000
  H   H2117     1.0  0.91686  0.84609  0.51889  1.0000
  H   H2118     1.0  0.61435  0.79350  0.53773  1.0000
  H   H2119     1.0  0.97428  0.71664  0.69656  1.0000
  H   H2120     1.0  0.63400  0.76691  0.71998  1.0000
  C   C1189     1.0  0.58456  0.93569  0.59769  1.0000
  C   C1190     1.0  0.91030  0.82106  0.52187  1.0000
  C   C1191     1.0  0.68176  0.68855  0.50540  1.0000
  C   C1192     1.0  0.52022  0.96325  0.55558  1.0000
  H   H2121     1.0  0.93168  0.68571  0.72714  1.0000
  H   H2122     1.0  0.50268  0.73723  0.62137  1.0000
  H   H2123     1.0  0.52593  0.69839  0.72223  1.0000
  H   H2124     1.0  0.96066  0.77669  0.50702  1.0000
  H   H2125     1.0  0.56562  0.91909  0.61018  1.0000
  C   C1193     1.0  0.55771  0.95701  0.52474  1.0000
  C   C1194     1.0  0.50939  0.73086  0.66985  1.0000
  H   H2126     1.0  0.51059  0.80048  0.64386  1.0000
  C   C1195     1.0  0.72605  0.78284  0.49757  1.0000
  H   H2127     1.0  0.56486  0.96674  0.59337  1.0000
  H   H2128     1.0  0.95339  0.58411  0.61872  1.0000
  H   H2129     1.0  0.95947  0.49126  0.71655  1.0000
  H   H2130     1.0  0.50278  0.73176  0.71102  1.0000
  C   C1196     1.0  0.87511  0.62247  0.49448  1.0000
  H   H2131     1.0  0.50470  0.95628  0.69163  1.0000
  C   C1197     1.0  0.67099  0.94898  0.73792  1.0000
  H   H2132     1.0  0.76450  0.97626  0.54274  1.0000
  H   H2133     1.0  0.63220  0.66886  0.50063  1.0000
  H   H2134     1.0  0.95526  0.56244  0.73500  1.0000
  H   H2135     1.0  0.56414  0.98168  0.68968  1.0000
  H   H2136     1.0  0.50791  0.79621  0.59696  1.0000
  C   C1198     1.0  0.55443  0.64553  0.49563  1.0000
  C   C1199     1.0  0.96071  0.60749  0.61084  1.0000
  S   S268      1.0  0.80599  0.55141  0.74029  1.0000
  C   C1200     1.0  0.98293  0.79228  0.51723  1.0000
  H   H2137     1.0  0.48600  0.94946  0.72240  1.0000
  Fe  Fe135     1.0  0.81152  0.58801  0.77030  1.0000
  H   H2138     1.0  0.74523  0.68499  0.94224  1.0000
  S   S269      1.0  0.76786  0.59045  0.78608  1.0000
  Fe  Fe136     1.0  0.88359  0.62191  0.76285  1.0000
  S   S270      1.0  0.93275  0.65770  0.77509  1.0000
  Fe  Fe137     1.0  0.84772  0.55091  0.75876  1.0000
  H   H2139     1.0  0.74524  0.97015  0.81683  1.0000
  H   H2140     1.0  0.92553  0.53514  0.83590  1.0000
  S   S271      1.0  0.85128  0.58520  0.79012  1.0000
  Fe  Fe138     1.0  0.57527  0.54408  0.87005  1.0000
  S   S272      1.0  0.60524  0.53858  0.89925  1.0000
  S   S273      1.0  0.58088  0.59268  0.86234  1.0000
  H   H2141     1.0  0.75349  0.64910  0.91163  1.0000
  H   H2142     1.0  0.88234  0.57032  0.89170  1.0000
  H   H2143     1.0  0.73732  0.91805  0.74382  1.0000
  S   S274      1.0  0.53022  0.50502  0.88473  1.0000
  S   S275      1.0  0.58136  0.51257  0.84015  1.0000
  Fe  Fe139     1.0  0.71674  0.83178  0.93692  1.0000
  S   S276      1.0  0.75538  0.84429  0.90814  1.0000
  S   S277      1.0  0.70937  0.86886  0.96014  1.0000
  Fe  Fe140     1.0  0.69001  0.76087  0.92363  1.0000
  S   S278      1.0  0.72687  0.76955  0.89396  1.0000
  S   S279      1.0  0.65856  0.71076  0.93545  1.0000
  Fe  Fe141     1.0  0.76020  0.80328  0.92321  1.0000
  S   S280      1.0  0.80744  0.80645  0.93377  1.0000
  Fe  Fe142     1.0  0.71752  0.80911  0.88215  1.0000
  S   S281      1.0  0.71397  0.81852  0.84007  1.0000
  S   S282      1.0  0.72371  0.79301  0.95341  1.0000
  S   S283      1.0  0.67847  0.79820  0.91030  1.0000
  H   H2144     1.0  0.86366  0.80835  0.95314  1.0000
  C   C1201     1.0  0.50608  0.95158  0.90482  1.0000
  S   S284      1.0  0.60372  0.82788  0.78146  1.0000
  C   C1202     1.0  0.86359  0.89389  0.95895  1.0000
  S   S285      1.0  0.84467  0.62877  0.74622  1.0000
  C   C1203     1.0  0.68335  0.82196  0.82445  1.0000
  C   C1204     1.0  0.68624  0.82794  0.79826  1.0000
  C   C1205     1.0  0.66221  0.82989  0.78484  1.0000
  C   C1206     1.0  0.63490  0.82597  0.79749  1.0000
  C   C1207     1.0  0.63203  0.82003  0.82369  1.0000
  C   C1208     1.0  0.65608  0.81809  0.83712  1.0000
  H   H2145     1.0  0.70716  0.83086  0.78823  1.0000
  H   H2146     1.0  0.66476  0.83432  0.76470  1.0000
  H   H2147     1.0  0.61099  0.81682  0.83369  1.0000
  H   H2148     1.0  0.65342  0.81340  0.85723  1.0000
  C   C1209     1.0  0.60478  0.62592  0.88174  1.0000
  C   C1210     1.0  0.62194  0.62398  0.90208  1.0000
  C   C1211     1.0  0.63952  0.65057  0.91775  1.0000
  C   C1212     1.0  0.64082  0.67956  0.91288  1.0000
  C   C1213     1.0  0.62452  0.68185  0.89206  1.0000
  C   C1214     1.0  0.60622  0.65500  0.87684  1.0000
  H   H2149     1.0  0.62140  0.60199  0.90598  1.0000
  H   H2150     1.0  0.65168  0.64854  0.93405  1.0000
  H   H2151     1.0  0.62468  0.70390  0.88859  1.0000
  H   H2152     1.0  0.59233  0.65644  0.86169  1.0000
  H   H2153     1.0  0.66201  0.94628  0.82070  1.0000
  H   H2154     1.0  0.66835  0.93933  0.85259  1.0000
  C   C1215     1.0  0.73630  0.56458  0.80577  1.0000
  C   C1216     1.0  0.73883  0.54311  0.82158  1.0000
  C   C1217     1.0  0.71428  0.52534  0.83863  1.0000
  C   C1218     1.0  0.68671  0.52845  0.83996  1.0000
  C   C1219     1.0  0.68386  0.54936  0.82371  1.0000
  C   C1220     1.0  0.70851  0.56730  0.80682  1.0000
  H   H2155     1.0  0.75999  0.54070  0.82110  1.0000
  H   H2156     1.0  0.88518  0.89277  0.96424  1.0000
  H   H2157     1.0  0.66281  0.55196  0.82436  1.0000
  H   H2158     1.0  0.70619  0.58373  0.79466  1.0000
  H   H2159     1.0  0.71680  0.50922  0.85103  1.0000
  H   H2160     1.0  0.79154  0.60138  0.84197  1.0000
  H   H2161     1.0  0.72854  0.95227  0.77387  1.0000
  H   H2162     1.0  0.67255  0.61997  0.81429  1.0000
  C   C1221     1.0  0.96333  0.51337  0.91742  1.0000
  N   N67       1.0  0.94176  0.52599  0.92731  1.0000
  H   H2163     1.0  0.76893  0.90112  0.85985  1.0000
  H   H2164     1.0  0.56494  0.63179  0.98782  1.0000
  C   C1222     1.0  0.78823  0.75818  0.96843  1.0000
  C   C1223     1.0  0.81330  0.78283  0.95628  1.0000
  C   C1224     1.0  0.84407  0.78932  0.96237  1.0000
  C   C1225     1.0  0.73541  0.69187  0.92614  1.0000
  H   H2165     1.0  0.76311  0.61276  0.88874  1.0000
  H   H2166     1.0  0.60166  0.92291  0.76763  1.0000
  C   C1226     1.0  0.90871  0.51611  0.82411  1.0000
  C   C1227     1.0  0.89145  0.52243  0.80592  1.0000
  H   H2167     1.0  0.66165  0.59575  0.85665  1.0000
  H   H2168     1.0  0.67602  0.91829  0.78759  1.0000
  C   C1228     1.0  0.93346  0.54011  0.90541  1.0000
  H   H2169     1.0  0.89483  0.54606  0.80401  1.0000
  H   H2170     1.0  0.73804  0.90114  0.82375  1.0000
  C   C1229     1.0  0.77083  0.91182  0.97277  1.0000
  C   C1230     1.0  0.63833  0.89750  0.83127  1.0000
  C   C1231     1.0  0.60864  0.89880  0.84011  1.0000
  H   H2171     1.0  0.68553  0.89076  0.80091  1.0000
  H   H2172     1.0  0.95380  0.70491  0.84429  1.0000
  H   H2173     1.0  0.64127  0.88096  0.84367  1.0000
  H   H2174     1.0  0.63413  0.88756  0.81158  1.0000
  C   C1232     1.0  0.67733  0.62147  0.85549  1.0000
  H   H2175     1.0  0.61069  0.90670  0.86038  1.0000
  H   H2176     1.0  0.60435  0.91503  0.82832  1.0000
  H   H2177     1.0  0.58821  0.87499  0.83819  1.0000
  H   H2178     1.0  0.92688  0.53642  0.75620  1.0000
  H   H2179     1.0  0.94058  0.55896  0.95560  1.0000
  H   H2180     1.0  0.97472  0.68620  0.85809  1.0000
  H   H2181     1.0  0.82234  0.89213  0.97582  1.0000
  C   C1233     1.0  0.73916  0.90433  0.97397  1.0000
  H   H2182     1.0  0.51301  0.57944  0.89608  1.0000
  H   H2183     1.0  0.75475  0.71173  0.91624  1.0000
  H   H2184     1.0  0.52612  0.54589  0.94440  1.0000
  C   C1234     1.0  0.59656  0.94050  0.77788  1.0000
  C   C1235     1.0  0.74705  0.90279  0.86358  1.0000
  N   N68       1.0  0.96407  0.52471  0.74688  1.0000
  C   C1236     1.0  0.75047  0.61388  0.87167  1.0000
  H   H2185     1.0  0.59689  0.73285  0.78063  1.0000
  H   H2186     1.0  0.68011  0.59989  0.89865  1.0000
  C   C1237     1.0  0.63756  0.74861  0.75629  1.0000
  C   C1238     1.0  0.70723  0.91596  0.84427  1.0000
  H   H2187     1.0  0.71352  0.61368  0.83921  1.0000
  H   H2188     1.0  0.62171  0.78266  0.74683  1.0000
  C   C1239     1.0  0.96189  0.67762  0.75192  1.0000
  C   C1240     1.0  0.72766  0.98690  0.84815  1.0000
  H   H2189     1.0  0.92041  0.57394  0.92375  1.0000
  S   S286      1.0  0.85110  0.50571  0.76447  1.0000
  H   H2190     1.0  0.57901  0.97265  0.77128  1.0000
  H   H2191     1.0  0.64380  0.62661  0.83200  1.0000
  H   H2192     1.0  0.54736  0.71151  0.85619  1.0000
  H   H2193     1.0  0.71554  0.88428  0.76300  1.0000
  H   H2194     1.0  0.73971  0.58984  0.86267  1.0000
  H   H2195     1.0  0.49571  0.58927  0.93956  1.0000
  H   H2196     1.0  0.85037  0.87491  0.94466  1.0000
  C   C1241     1.0  0.71013  0.58548  0.91745  1.0000
  Fe  Fe143     1.0  0.60970  0.50548  0.87030  1.0000
  H   H2197     1.0  0.59722  0.98625  0.83935  1.0000
  H   H2198     1.0  0.62907  0.98240  0.74348  1.0000
  H   H2199     1.0  0.70630  0.91974  0.98793  1.0000
  H   H2200     1.0  0.58400  0.68626  0.93448  1.0000
  C   C1242     1.0  0.66888  0.63226  0.83123  1.0000
  C   C1243     1.0  0.95254  0.54849  0.75219  1.0000
  C   C1244     1.0  0.72337  0.92877  0.78077  1.0000
  H   H2201     1.0  0.89934  0.50815  0.95034  1.0000
  H   H2202     1.0  0.55657  0.55361  0.98183  1.0000
  C   C1245     1.0  0.71222  0.62865  0.85519  1.0000
  C   C1246     1.0  0.73916  0.91623  0.84052  1.0000
  H   H2203     1.0  0.72795  0.87885  0.86748  1.0000
  H   H2204     1.0  0.75059  0.91812  0.88074  1.0000
  H   H2205     1.0  0.68340  0.65800  0.82943  1.0000
  C   C1247     1.0  0.68216  0.55845  0.93010  1.0000
  H   H2206     1.0  0.54697  0.58255  0.93045  1.0000
  C   C1248     1.0  0.74012  0.65214  0.89593  1.0000
  H   H2207     1.0  0.87046  0.91680  0.95007  1.0000
  N   N69       1.0  0.63003  0.72274  0.80028  1.0000
  C   C1249     1.0  0.61801  0.72486  0.82662  1.0000
  C   C1250     1.0  0.66527  0.73648  0.80143  1.0000
  C   C1251     1.0  0.62268  0.74308  0.78328  1.0000
  C   C1252     1.0  0.61520  0.68969  0.78891  1.0000
  C   C1253     1.0  0.60497  0.66227  0.80756  1.0000
  C   C1254     1.0  0.58346  0.71858  0.82816  1.0000
  H   H2208     1.0  0.50194  0.54256  0.98685  1.0000
  C   C1255     1.0  0.67814  0.71959  0.81844  1.0000
  C   C1256     1.0  0.71386  0.73780  0.82031  1.0000
  C   C1257     1.0  0.59682  0.63127  0.79335  1.0000
  C   C1258     1.0  0.57150  0.71425  0.85560  1.0000
  H   H2209     1.0  0.96567  0.49790  0.93149  1.0000
  H   H2210     1.0  0.63257  0.74878  0.83525  1.0000
  H   H2211     1.0  0.62069  0.70882  0.83975  1.0000
  H   H2212     1.0  0.67526  0.73650  0.78222  1.0000
  H   H2213     1.0  0.67590  0.76158  0.80792  1.0000
  H   H2214     1.0  0.63013  0.76651  0.79254  1.0000
  C   C1259     1.0  0.54800  0.61972  0.97208  1.0000
  H   H2215     1.0  0.59366  0.68457  0.77805  1.0000
  H   H2216     1.0  0.63129  0.68740  0.77452  1.0000
  H   H2217     1.0  0.58368  0.65916  0.81817  1.0000
  H   H2218     1.0  0.62330  0.66633  0.82159  1.0000
  H   H2219     1.0  0.58161  0.73902  0.82085  1.0000
  H   H2220     1.0  0.56787  0.69743  0.81664  1.0000
  H   H2221     1.0  0.82520  0.84023  0.98111  1.0000
  C   C1260     1.0  0.61843  0.58227  0.97303  1.0000
  H   H2222     1.0  0.66879  0.71696  0.83811  1.0000
  H   H2223     1.0  0.67223  0.69617  0.80990  1.0000
  H   H2224     1.0  0.72247  0.72485  0.83219  1.0000
  H   H2225     1.0  0.72483  0.74069  0.80116  1.0000
  H   H2226     1.0  0.72131  0.76133  0.82939  1.0000
  H   H2227     1.0  0.61780  0.63245  0.78336  1.0000
  H   H2228     1.0  0.58853  0.61197  0.80711  1.0000
  C   C1261     1.0  0.59642  0.98228  0.86009  1.0000
  H   H2229     1.0  0.74454  0.93106  0.79036  1.0000
  H   H2230     1.0  0.57084  0.69292  0.86352  1.0000
  H   H2231     1.0  0.58681  0.73505  0.86767  1.0000
  C   C1262     1.0  0.91295  0.49924  0.93848  1.0000
  C   C1263     1.0  0.49354  0.56049  0.90667  1.0000
  H   H2232     1.0  0.58966  0.58368  0.94346  1.0000
  H   H2233     1.0  0.67197  0.63312  0.87178  1.0000
  C   C1264     1.0  0.66731  0.93066  0.83259  1.0000
  Fe  Fe144     1.0  0.56037  0.49776  0.91258  1.0000
  H   H2234     1.0  0.75860  0.94026  0.83800  1.0000
  H   H2235     1.0  0.77770  0.89652  0.96208  1.0000
  C   C1265     1.0  0.95774  0.59719  0.77609  1.0000
  H   H2236     1.0  0.57948  0.92854  0.79333  1.0000
  C   C1266     1.0  0.71789  0.66399  0.90771  1.0000
  H   H2237     1.0  0.67153  0.53762  0.91693  1.0000
  H   H2238     1.0  0.66407  0.56553  0.93571  1.0000
  H   H2239     1.0  0.93180  0.58692  0.77696  1.0000
  H   H2240     1.0  0.76443  0.75288  0.96404  1.0000
  N   N70       1.0  0.72523  0.62277  0.87922  1.0000
  H   H2241     1.0  0.68969  0.89068  0.84468  1.0000
  H   H2242     1.0  0.67222  0.96403  0.77706  1.0000
  C   C1267     1.0  0.77606  0.63598  0.85293  1.0000
  H   H2243     1.0  0.70645  0.92533  0.86373  1.0000
  C   C1268     1.0  0.80172  0.62618  0.84895  1.0000
  H   H2244     1.0  0.72691  0.65328  0.84912  1.0000
  H   H2245     1.0  0.88654  0.53966  0.87438  1.0000
  H   H2246     1.0  0.78754  0.66067  0.86010  1.0000
  H   H2247     1.0  0.76593  0.63515  0.83399  1.0000
  C   C1269     1.0  0.69436  0.91638  0.79874  1.0000
  H   H2248     1.0  0.59493  0.68251  0.96615  1.0000
  C   C1270     1.0  0.57511  0.67365  0.95253  1.0000
  H   H2249     1.0  0.81444  0.62887  0.86697  1.0000
  H   H2250     1.0  0.81877  0.64118  0.83447  1.0000
  H   H2251     1.0  0.96767  0.61263  0.79321  1.0000
  H   H2252     1.0  0.69855  0.64543  0.91851  1.0000
  C   C1271     1.0  0.69991  0.59538  0.89306  1.0000
  C   C1272     1.0  0.90951  0.55241  0.91139  1.0000
  C   C1273     1.0  0.95730  0.55098  0.94779  1.0000
  C   C1274     1.0  0.67980  0.97143  0.75793  1.0000
  H   H2253     1.0  0.60842  0.55630  0.97147  1.0000
  H   H2254     1.0  0.64009  0.59300  0.96128  1.0000
  H   H2255     1.0  0.56860  0.96653  0.90623  1.0000
  H   H2256     1.0  0.95469  0.56048  0.89801  1.0000
  H   H2257     1.0  0.57785  0.62562  0.77936  1.0000
  H   H2258     1.0  0.58550  0.95657  0.86301  1.0000
  H   H2259     1.0  0.75792  0.67211  0.88505  1.0000
  H   H2260     1.0  0.68947  0.57435  0.87997  1.0000
  H   H2261     1.0  0.55357  0.98482  0.86499  1.0000
  H   H2262     1.0  0.96020  0.55859  0.79322  1.0000
  H   H2263     1.0  0.69001  0.55165  0.94743  1.0000
  N   N71       1.0  0.69839  0.93252  0.82464  1.0000
  H   H2264     1.0  0.97701  0.57234  0.93973  1.0000
  H   H2265     1.0  0.58139  0.63437  0.93967  1.0000
  H   H2266     1.0  0.72037  0.60531  0.93152  1.0000
  H   H2267     1.0  0.91921  0.57895  0.87656  1.0000
  H   H2268     1.0  0.73580  0.97736  0.86356  1.0000
  H   H2269     1.0  0.92468  0.52303  0.88899  1.0000
  H   H2270     1.0  0.96823  0.51609  0.78639  1.0000
  C   C1275     1.0  0.84975  0.77126  0.98017  1.0000
  H   H2271     1.0  0.70819  0.67240  0.89263  1.0000
  S   S287      1.0  0.65732  0.50682  0.86295  1.0000
  H   H2272     1.0  0.98328  0.72462  0.97201  1.0000
  H   H2273     1.0  0.51887  0.94316  0.89164  1.0000
  C   C1276     1.0  0.72196  0.96692  0.82322  1.0000
  H   H2274     1.0  0.71898  0.70016  0.93400  1.0000
  H   H2275     1.0  0.54636  0.96768  0.94606  1.0000
  C   C1277     1.0  0.87047  0.49833  0.78981  1.0000
  H   H2276     1.0  0.72750  0.57708  0.91294  1.0000
  H   H2277     1.0  0.55971  0.93594  0.75335  1.0000
  H   H2278     1.0  0.71459  0.97817  0.80846  1.0000
  C   C1278     1.0  0.96645  0.69110  0.84006  1.0000
  C   C1279     1.0  0.58274  0.95499  0.75990  1.0000
  C   C1280     1.0  0.51286  0.48739  0.96998  1.0000
  H   H2279     1.0  0.57059  0.97260  0.98802  1.0000
  C   C1281     1.0  0.89885  0.56085  0.88698  1.0000
  C   C1282     1.0  0.71745  0.90708  0.75739  1.0000
  C   C1283     1.0  0.73067  0.92508  0.98717  1.0000
  H   H2280     1.0  0.50367  0.94064  0.92350  1.0000
  H   H2281     1.0  0.49326  0.53776  0.90199  1.0000
  H   H2282     1.0  0.94969  0.66832  0.83100  1.0000
  H   H2283     1.0  0.93016  0.49416  0.77421  1.0000
  H   H2284     1.0  0.66271  0.76639  0.75742  1.0000
  H   H2285     1.0  0.55652  0.67898  0.96022  1.0000
  N   N72       1.0  0.53865  0.58502  0.97112  1.0000
  C   C1284     1.0  0.59500  0.59240  0.96340  1.0000
  C   C1285     1.0  0.97905  0.70077  0.97698  1.0000
  H   H2286     1.0  0.54412  0.63124  0.93253  1.0000
  C   C1286     1.0  0.56221  0.63836  0.94752  1.0000
  C   C1287     1.0  0.95524  0.50299  0.76902  1.0000
  H   H2287     1.0  0.94969  0.52211  0.98141  1.0000
  C   C1288     1.0  0.84319  0.89066  0.98238  1.0000
  C   C1289     1.0  0.49730  0.56739  0.93531  1.0000
  H   H2288     1.0  0.60676  0.61842  0.96425  1.0000
  C   C1290     1.0  0.52864  0.57007  0.94493  1.0000
  H   H2289     1.0  0.88830  0.53484  0.92118  1.0000
  H   H2290     1.0  0.63581  0.72663  0.74752  1.0000
  C   C1291     1.0  0.96946  0.54089  0.97100  1.0000
  H   H2291     1.0  0.65162  0.95527  0.98691  1.0000
  H   H2292     1.0  0.81791  0.94439  0.98476  1.0000
  H   H2293     1.0  0.61851  0.95906  0.78655  1.0000
  H   H2294     1.0  0.49157  0.57299  0.98422  1.0000
  H   H2295     1.0  0.95359  0.68438  0.97491  1.0000
  C   C1292     1.0  0.56506  0.57933  0.98002  1.0000
  H   H2296     1.0  0.96636  0.61187  0.75899  1.0000
  H   H2297     1.0  0.95293  0.49775  0.90043  1.0000
  H   H2298     1.0  0.52744  0.62351  0.97689  1.0000
  H   H2299     1.0  0.87352  0.77645  0.98453  1.0000
  C   C1293     1.0  0.96771  0.57141  0.77518  1.0000
  H   H2300     1.0  0.69563  0.90287  0.74754  1.0000
  C   C1294     1.0  0.79389  0.74003  0.98610  1.0000
  H   H2301     1.0  0.53616  0.96451  0.74367  1.0000
  S   S288      1.0  0.54826  0.49229  0.95514  1.0000
  C   C1295     1.0  0.79352  0.93897  0.98560  1.0000
  H   H2302     1.0  0.65709  0.92434  0.74182  1.0000
  H   H2303     1.0  0.98396  0.71225  0.80430  1.0000
  H   H2304     1.0  0.77337  0.83130  0.98986  1.0000
  C   C1296     1.0  0.51132  0.56836  0.98908  1.0000
