data_image0
_chemical_formula_structural       FeS2FeS2FeHFeS3FeSHFeSHFeSFeS2HCH2CHCHC5H2CH2SHCH2C3H2CHC6H4C6H4NC2HC8H5C3H2CNH11CH2SCH3C3H4CHSCHCH5C3H3CH11CSHCH2CH3C3NH3CHC2H2CH3CH11NC5HC4H14CH6CHCH6CHNCHCHSH2CHS2C2FeHSFeS2HFeS3FeS2FeSFeSFeS3C2H5C6H4CH7CHC6H5C3H4NC10H25FeC3HCH8CNC7HCH13CH2NH8C2H7NCSHCHC2H2CH2CH2CH4SHCH3CH2CH2CHC6H2CH2CHCHNCH2CH3C2HNCH2CHC2H4CHCH2CHCHSFeS2HSHFeS2HSHFeS2FeSHSH2C2H6C2HCH2C6H5C3H3FeH7C2H10CH2NH4C2H2CFeHCHCHFeCHCH5CNC12H28NC8H2CH3CHCFeHCH4CH2C4H2CSCH9CHCSHC2H2SFeS2CHFeHS2HFeSH2SHFeHFeSHSH2SHC6H4FeHC2HCHC4H3NC8FeCHCH16C2H4CH5CHCH6FeHNC12H28C2NC8HCH15C2H2CHCH4S2H2C2HC2H3SH5CHCHSH4CH2CH3C3SHFeSFeSHFeSFeS3FeS2FeS2FeSFeS2H2CH2CHC6H5NH5C2HSC7H5CHCH3CH2CH2CHC2H2CHC2H3C2H2C3H2C2HCH3CHCH2CH4CH2C2H9C6H2CH7NCH3CNC2HC2HSC2NH6CH15CHC2HC3HC3H7CH5C2H2SCH2CH4SHCHCH2CHC2H3C2FeS2FeSHFeHFeCS2FeS2FeS2FeSFeS3C6H5CH2CHCHC6H4CH6CH4SHC5H4NC9HCH10CH5CH10CH2CH2C2NH2CH4CH2SH3SHCH3CH2CH4CHCHC2H9CHCH2CHC5H3C2H5CHCNHCH3CH3C3H3CHCH2SH4CH2CHC4H3FeS2FeS2FeSFeS3HFeHFeS2Fe2HS2H2C2H2NCH3C2H2NH3C6H4C6H4CHCHC2H2SC3H11C3HCHCH8C2H3CH3C2HC2H9CH2NCNCHC5HCH6CH13CH4CHCHC2HCSH4CH7CHCHC2HC4HCH4CH2CH4CH2C2H2C2HCH3CH4C2H3CNCHCH6CH3CHCHCHCH4FeS2FeS2FeSFeS3FeS2FeS2FeCFeSHSC3H6C6H4CHCH5CH2C2HCHC6H4C2HC3H3NH6CH2C2H3CNC8HC3H27SH2CH5C2H6C4H6C2H4C2H3CHC3NC2HC6H7CH7CHCHC3H3SHCFeHFeS2FeCFeHS2C2FeS2H3S2H2C3H4C6H5NC2H2C2HC2HCH9CH3CH8CHCH8C4HNH2FeCH3C2HCSCH2CSH6CSFeHCNC11H12C2H6CH3C3H4CHSH10SHC4H4CH4C2H2CH2SH2FeSFeSFe2S2CSH2SCFeSHSHCH6C6H9SNH10CH4CHFeCHCH6C2H2CHSH4CNC11H6C2H3C2H7FeCH5CNC10HCH10FeCHSHSH3SCHCH4CH8CH2CHFeS2FeSHFeSFeS3FeS2FeS2FeSFeCS2H3C7H5C2HC2HCH5CH4CHC6H4C4H5CHCHC2SHCHC2H11CHCHSH7N2C10H13CH8CH5NC7H2C2H2C2H10FeHCHCH7CH2C2HSCH4CH4CHC4HNH3CHCH2CH5CH4CH3SC2SH2CHCFeSCFeS2Fe2S3FeS2FeS2FeSFeS3C3HC6H2CHC2HC6H4C6H5CHC3H2CH4CH2CHNCH15CH3CH4SH5C6H9CH9CHSCH2C2H7C2H3CHNC4HC2H4CH7NC3HC5HCH6C2NCH3CSHSCH6C2H2CHSH2CH9NH3C2H3CHCH2C4HCHCH2SH2CN
_chemical_formula_sum              "Fe96 S192 H1536 C864 N48"
_cell_length_a       40.8817
_cell_length_b       40.7443
_cell_length_c       40.8697
_cell_angle_alpha    90.0089
_cell_angle_beta     90.2915
_cell_angle_gamma    90.1312

_space_group_name_H-M_alt    "P 1"
_space_group_IT_number       1

loop_
  _space_group_symop_operation_xyz
  'x, y, z'

loop_
  _atom_site_type_symbol
  _atom_site_label
  _atom_site_symmetry_multiplicity
  _atom_site_fract_x
  _atom_site_fract_y
  _atom_site_fract_z
  _atom_site_occupancy
  Fe  Fe1       1.0  0.26550  0.15768  0.37670  1.0000
  S   S1        1.0  0.30376  0.18896  0.40036  1.0000
  S   S2        1.0  0.22583  0.18502  0.34947  1.0000
  Fe  Fe2       1.0  0.30177  0.09359  0.39392  1.0000
  S   S3        1.0  0.34222  0.12122  0.41913  1.0000
  S   S4        1.0  0.30358  0.03837  0.38675  1.0000
  Fe  Fe3       1.0  0.30171  0.15197  0.44093  1.0000
  H   H1        1.0  0.23336  0.05248  0.15775  1.0000
  Fe  Fe4       1.0  0.33914  0.15517  0.37571  1.0000
  S   S5        1.0  0.38190  0.17355  0.34572  1.0000
  S   S6        1.0  0.26129  0.12193  0.41839  1.0000
  S   S7        1.0  0.30085  0.12565  0.34979  1.0000
  Fe  Fe5       1.0  0.44443  0.26345  0.17384  1.0000
  S   S8        1.0  0.41899  0.23051  0.13765  1.0000
  H   H2        1.0  0.47747  0.17044  0.22043  1.0000
  Fe  Fe6       1.0  0.38146  0.30324  0.18504  1.0000
  S   S9        1.0  0.35202  0.27278  0.14999  1.0000
  H   H3        1.0  0.31717  0.29642  0.36112  1.0000
  Fe  Fe7       1.0  0.37819  0.23066  0.17402  1.0000
  S   S10       1.0  0.35224  0.18635  0.19375  1.0000
  Fe  Fe8       1.0  0.39583  0.27647  0.11746  1.0000
  S   S11       1.0  0.39565  0.28863  0.06314  1.0000
  S   S12       1.0  0.40470  0.26101  0.21129  1.0000
  H   H4        1.0  0.24859  0.03681  0.21392  1.0000
  C   C1        1.0  0.06253  0.22044  0.46971  1.0000
  H   H5        1.0  0.16247  0.30719  0.49164  1.0000
  H   H6        1.0  0.31377  0.18183  0.03811  1.0000
  C   C2        1.0  0.02861  0.31541  0.39202  1.0000
  H   H7        1.0  0.45653  0.02104  0.31860  1.0000
  C   C3        1.0  0.36526  0.07051  0.24331  1.0000
  H   H8        1.0  0.07752  0.31023  0.41075  1.0000
  C   C4        1.0  0.48740  0.12278  0.24284  1.0000
  C   C5        1.0  0.36378  0.31185  0.04511  1.0000
  C   C6        1.0  0.04417  0.27872  0.27228  1.0000
  C   C7        1.0  0.50019  0.13555  0.33591  1.0000
  C   C8        1.0  0.11293  0.30277  0.23139  1.0000
  H   H9        1.0  0.22688  0.26172  0.47993  1.0000
  H   H10       1.0  0.49408  0.32156  0.15779  1.0000
  C   C9        1.0  0.23475  0.12166  0.28073  1.0000
  H   H11       1.0  0.19933  0.14983  0.46041  1.0000
  H   H12       1.0  0.03070  0.33121  0.17982  1.0000
  S   S13       1.0  0.29731  0.16464  0.49503  1.0000
  H   H13       1.0  0.47315  0.13588  0.19326  1.0000
  C   C10       1.0  0.16692  0.31717  0.46679  1.0000
  H   H14       1.0  0.15035  0.31099  0.41762  1.0000
  H   H15       1.0  0.11291  0.23105  0.48009  1.0000
  C   C11       1.0  0.26805  0.11196  0.26700  1.0000
  C   C12       1.0  0.33311  0.02360  0.35895  1.0000
  C   C13       1.0  0.35572  0.04478  0.34434  1.0000
  H   H16       1.0  0.35582  0.07058  0.35065  1.0000
  H   H17       1.0  0.43990  0.04519  0.35188  1.0000
  C   C14       1.0  0.25695  0.21863  0.48591  1.0000
  H   H18       1.0  0.26375  0.21747  0.46045  1.0000
  C   C15       1.0  0.37345  0.17803  0.30353  1.0000
  C   C16       1.0  0.34183  0.17337  0.29116  1.0000
  C   C17       1.0  0.33567  0.17517  0.25743  1.0000
  C   C18       1.0  0.36079  0.18309  0.23584  1.0000
  C   C19       1.0  0.39233  0.18879  0.24814  1.0000
  C   C20       1.0  0.39865  0.18626  0.28188  1.0000
  H   H19       1.0  0.32173  0.16992  0.30754  1.0000
  H   H20       1.0  0.31116  0.17144  0.24811  1.0000
  H   H21       1.0  0.41201  0.19462  0.23158  1.0000
  H   H22       1.0  0.42303  0.19089  0.29109  1.0000
  C   C21       1.0  0.22795  0.22785  0.35597  1.0000
  C   C22       1.0  0.23758  0.24066  0.38631  1.0000
  C   C23       1.0  0.23709  0.27471  0.39188  1.0000
  C   C24       1.0  0.22677  0.29621  0.36719  1.0000
  C   C25       1.0  0.21856  0.28349  0.33639  1.0000
  C   C26       1.0  0.21837  0.24942  0.33106  1.0000
  H   H23       1.0  0.24404  0.22423  0.40599  1.0000
  H   H24       1.0  0.24366  0.28426  0.41575  1.0000
  H   H25       1.0  0.21232  0.29980  0.31659  1.0000
  H   H26       1.0  0.21098  0.23979  0.30748  1.0000
  N   N1        1.0  0.33779  0.30326  0.31281  1.0000
  C   C27       1.0  0.36806  0.29500  0.29336  1.0000
  C   C28       1.0  0.30750  0.28823  0.29727  1.0000
  H   H27       1.0  0.05885  0.20825  0.49371  1.0000
  C   C29       1.0  0.34083  0.29300  0.34817  1.0000
  C   C30       1.0  0.35087  0.25700  0.35473  1.0000
  C   C31       1.0  0.46892  0.14460  0.21863  1.0000
  C   C32       1.0  0.13406  0.27271  0.22446  1.0000
  C   C33       1.0  0.31171  0.25514  0.27917  1.0000
  C   C34       1.0  0.27868  0.23976  0.27031  1.0000
  C   C35       1.0  0.35908  0.25208  0.39096  1.0000
  C   C36       1.0  0.42997  0.29654  0.28714  1.0000
  H   H28       1.0  0.36513  0.30375  0.26773  1.0000
  H   H29       1.0  0.37143  0.26810  0.29104  1.0000
  H   H30       1.0  0.40485  0.30141  0.33266  1.0000
  H   H31       1.0  0.29696  0.30502  0.27845  1.0000
  H   H32       1.0  0.16143  0.14203  0.43886  1.0000
  C   C37       1.0  0.00544  0.28944  0.20105  1.0000
  C   C38       1.0  0.07906  0.30047  0.21401  1.0000
  C   C39       1.0  0.33317  0.31483  0.05995  1.0000
  H   H33       1.0  0.37282  0.24968  0.34079  1.0000
  H   H34       1.0  0.33038  0.24022  0.34836  1.0000
  C   C40       1.0  0.27475  0.07470  0.27135  1.0000
  N   N2        1.0  0.49902  0.11494  0.30520  1.0000
  H   H35       1.0  0.39504  0.04932  0.30968  1.0000
  H   H36       1.0  0.32543  0.25911  0.25607  1.0000
  H   H37       1.0  0.32542  0.23738  0.29426  1.0000
  H   H38       1.0  0.26088  0.25860  0.26200  1.0000
  H   H39       1.0  0.28179  0.22180  0.25019  1.0000
  H   H40       1.0  0.26870  0.22658  0.29182  1.0000
  H   H41       1.0  0.03018  0.26290  0.25532  1.0000
  H   H42       1.0  0.19748  0.15450  0.41653  1.0000
  H   H43       1.0  0.31197  0.04394  0.20246  1.0000
  H   H44       1.0  0.06954  0.26920  0.27289  1.0000
  H   H45       1.0  0.42870  0.30612  0.26173  1.0000
  C   C41       1.0  0.30943  0.02644  0.26269  1.0000
  H   H46       1.0  0.28779  0.28510  0.31576  1.0000
  H   H47       1.0  0.45029  0.12702  0.35473  1.0000
  S   S14       1.0  0.42413  0.30972  0.15110  1.0000
  C   C42       1.0  0.26451  0.30899  0.21018  1.0000
  H   H48       1.0  0.37408  0.04710  0.25380  1.0000
  H   H49       1.0  0.19349  0.31570  0.46128  1.0000
  H   H50       1.0  0.04725  0.20759  0.45111  1.0000
  C   C43       1.0  0.48380  0.13571  0.27846  1.0000
  C   C44       1.0  0.47793  0.08474  0.30928  1.0000
  C   C45       1.0  0.48852  0.06029  0.33625  1.0000
  H   H51       1.0  0.12645  0.32472  0.22250  1.0000
  H   H52       1.0  0.08331  0.30535  0.18752  1.0000
  H   H53       1.0  0.13868  0.27042  0.19779  1.0000
  H   H54       1.0  0.21472  0.10932  0.26699  1.0000
  C   C46       1.0  0.26076  0.05839  0.20302  1.0000
  H   H55       1.0  0.45312  0.30538  0.29844  1.0000
  S   S15       1.0  0.49870  0.25258  0.18098  1.0000
  C   C47       1.0  0.29666  0.06265  0.21505  1.0000
  H   H56       1.0  0.02206  0.26915  0.19426  1.0000
  C   C48       1.0  0.33277  0.08147  0.25954  1.0000
  H   H57       1.0  0.45464  0.16390  0.33075  1.0000
  H   H58       1.0  0.25246  0.28592  0.20489  1.0000
  H   H59       1.0  0.45711  0.13888  0.28274  1.0000
  H   H60       1.0  0.45199  0.09172  0.31359  1.0000
  H   H61       1.0  0.47716  0.07030  0.28623  1.0000
  C   C49       1.0  0.47121  0.16805  0.38011  1.0000
  C   C50       1.0  0.03012  0.27398  0.30652  1.0000
  C   C51       1.0  0.25926  0.05468  0.16583  1.0000
  H   H62       1.0  0.47771  0.09750  0.24027  1.0000
  H   H63       1.0  0.30495  0.08671  0.20495  1.0000
  H   H64       1.0  0.39491  0.10178  0.27536  1.0000
  C   C52       1.0  0.37797  0.03268  0.32114  1.0000
  H   H65       1.0  0.48266  0.25083  0.25094  1.0000
  H   H66       1.0  0.36653  0.22625  0.39527  1.0000
  H   H67       1.0  0.23152  0.14865  0.27858  1.0000
  H   H68       1.0  0.11680  0.23922  0.30164  1.0000
  H   H69       1.0  0.11035  0.30519  0.25827  1.0000
  H   H70       1.0  0.15802  0.27542  0.23717  1.0000
  H   H71       1.0  0.25168  0.06132  0.26616  1.0000
  H   H72       1.0  0.44227  0.14366  0.22343  1.0000
  H   H73       1.0  0.49669  0.33577  0.11619  1.0000
  H   H74       1.0  0.07349  0.31248  0.48341  1.0000
  H   H75       1.0  0.47155  0.01559  0.35971  1.0000
  C   C53       1.0  0.31718  0.20804  0.04473  1.0000
  S   S16       1.0  0.01123  0.28816  0.42077  1.0000
  H   H76       1.0  0.49281  0.07263  0.36003  1.0000
  C   C54       1.0  0.23611  0.24374  0.49706  1.0000
  H   H77       1.0  0.44695  0.17678  0.38859  1.0000
  H   H78       1.0  0.23314  0.11504  0.30707  1.0000
  C   C55       1.0  0.06244  0.32134  0.39223  1.0000
  H   H79       1.0  0.37977  0.26814  0.39848  1.0000
  H   H80       1.0  0.01755  0.29880  0.49330  1.0000
  H   H81       1.0  0.28672  0.12632  0.28056  1.0000
  C   C56       1.0  0.39230  0.09586  0.24893  1.0000
  C   C57       1.0  0.14698  0.29817  0.44136  1.0000
  C   C58       1.0  0.30741  0.33068  0.04334  1.0000
  N   N3        1.0  0.30274  0.06116  0.25154  1.0000
  H   H82       1.0  0.48692  0.18982  0.37538  1.0000
  H   H83       1.0  0.36226  0.06722  0.21652  1.0000
  H   H84       1.0  0.27024  0.07647  0.15371  1.0000
  C   C59       1.0  0.00910  0.33101  0.36858  1.0000
  H   H85       1.0  0.26922  0.11958  0.24100  1.0000
  C   C60       1.0  0.40086  0.30893  0.30688  1.0000
  C   C61       1.0  0.04388  0.31551  0.26199  1.0000
  H   H86       1.0  0.07078  0.27457  0.21496  1.0000
  H   H87       1.0  0.12208  0.25003  0.23358  1.0000
  C   C62       1.0  0.46246  0.03399  0.34182  1.0000
  H   H88       1.0  0.33685  0.08246  0.28653  1.0000
  H   H89       1.0  0.31286  0.28971  0.20273  1.0000
  H   H90       1.0  0.12100  0.29957  0.44859  1.0000
  C   C63       1.0  0.33246  0.20935  0.07895  1.0000
  H   H91       1.0  0.29278  0.21977  0.04626  1.0000
  H   H92       1.0  0.27253  0.03225  0.15801  1.0000
  H   H93       1.0  0.31634  0.19666  0.09676  1.0000
  H   H94       1.0  0.31468  0.02627  0.28944  1.0000
  H   H95       1.0  0.25827  0.00852  0.26506  1.0000
  H   H96       1.0  0.43045  0.26926  0.28665  1.0000
  H   H97       1.0  0.33555  0.23524  0.08697  1.0000
  H   H98       1.0  0.32913  0.10730  0.25163  1.0000
  H   H99       1.0  0.48234  0.15294  0.39982  1.0000
  H   H100      1.0  0.41590  0.08601  0.23995  1.0000
  H   H101      1.0  0.38667  0.11866  0.23520  1.0000
  N   N4        1.0  0.13934  0.23992  0.41620  1.0000
  C   C64       1.0  0.15844  0.26199  0.43915  1.0000
  C   C65       1.0  0.15605  0.20696  0.41323  1.0000
  C   C66       1.0  0.13906  0.25608  0.38286  1.0000
  C   C67       1.0  0.10432  0.23572  0.42688  1.0000
  C   C68       1.0  0.09868  0.21906  0.46033  1.0000
  H   H102      1.0  0.24597  0.08021  0.20948  1.0000
  C   C69       1.0  0.12667  0.23482  0.35369  1.0000
  C   C70       1.0  0.17426  0.19373  0.44397  1.0000
  C   C71       1.0  0.18362  0.15777  0.43960  1.0000
  C   C72       1.0  0.12575  0.25486  0.32207  1.0000
  H   H103      1.0  0.18453  0.26263  0.43153  1.0000
  H   H104      1.0  0.15894  0.25219  0.46446  1.0000
  H   H105      1.0  0.13839  0.18796  0.40454  1.0000
  H   H106      1.0  0.17534  0.20799  0.39419  1.0000
  H   H107      1.0  0.16415  0.26458  0.37652  1.0000
  H   H108      1.0  0.12353  0.27847  0.38309  1.0000
  H   H109      1.0  0.09145  0.25960  0.42686  1.0000
  H   H110      1.0  0.09054  0.22050  0.40896  1.0000
  H   H111      1.0  0.27935  0.07060  0.29800  1.0000
  H   H112      1.0  0.10159  0.22548  0.35789  1.0000
  H   H113      1.0  0.14301  0.21353  0.34940  1.0000
  H   H114      1.0  0.19726  0.20784  0.44768  1.0000
  H   H115      1.0  0.15976  0.19580  0.46663  1.0000
  H   H116      1.0  0.05419  0.24630  0.47152  1.0000
  C   C73       1.0  0.29879  0.31123  0.20863  1.0000
  H   H117      1.0  0.10561  0.19277  0.45897  1.0000
  H   H118      1.0  0.35674  0.19715  0.07925  1.0000
  H   H119      1.0  0.15062  0.26375  0.31580  1.0000
  H   H120      1.0  0.10916  0.27626  0.32462  1.0000
  H   H121      1.0  0.49448  0.16088  0.27883  1.0000
  H   H122      1.0  0.32914  0.30427  0.08386  1.0000
  C   C74       1.0  0.36846  0.32522  0.01382  1.0000
  H   H123      1.0  0.33745  0.25752  0.40639  1.0000
  C   C75       1.0  0.46681  0.14783  0.34889  1.0000
  H   H124      1.0  0.35838  0.30933  0.36130  1.0000
  H   H125      1.0  0.33157  0.01637  0.25073  1.0000
  H   H126      1.0  0.04568  0.28668  0.32491  1.0000
  H   H127      1.0  0.34554  0.25018  0.02944  1.0000
  H   H128      1.0  0.36290  0.21158  0.01965  1.0000
  H   H129      1.0  0.29312  0.26332  0.00873  1.0000
  C   C76       1.0  0.33953  0.22551  0.01950  1.0000
  H   H130      1.0  0.28367  0.33254  0.05470  1.0000
  N   N5        1.0  0.05326  0.32337  0.22709  1.0000
  C   C77       1.0  0.07214  0.33124  0.50324  1.0000
  H   H131      1.0  0.01934  0.32588  0.26763  1.0000
  C   C78       1.0  0.02370  0.32254  0.20473  1.0000
  H   H132      1.0  0.06087  0.32782  0.27939  1.0000
  S   S17       1.0  0.20295  0.33329  0.22146  1.0000
  H   H133      1.0  0.29378  0.32398  0.13436  1.0000
  H   H134      1.0  0.02959  0.24745  0.31273  1.0000
  C   C79       1.0  0.24589  0.33640  0.21896  1.0000
  H   H135      1.0  0.40135  0.33610  0.30543  1.0000
  S   S18       1.0  0.15859  0.33856  0.30558  1.0000
  S   S19       1.0  0.22202  0.33837  0.37594  1.0000
  C   C80       1.0  0.50447  0.23642  0.24692  1.0000
  C   C81       1.0  0.33390  0.34012  0.31186  1.0000
  Fe  Fe9       1.0  0.13471  0.29180  0.64428  1.0000
  H   H136      1.0  0.01883  0.21670  0.55877  1.0000
  S   S20       1.0  0.07936  0.29403  0.64762  1.0000
  Fe  Fe10      1.0  0.19712  0.25529  0.66508  1.0000
  S   S21       1.0  0.22977  0.28949  0.63749  1.0000
  S   S22       1.0  0.21886  0.21708  0.69841  1.0000
  H   H137      1.0  0.43993  0.04164  0.85126  1.0000
  Fe  Fe11      1.0  0.19194  0.28504  0.59768  1.0000
  S   S23       1.0  0.20169  0.27818  0.54344  1.0000
  S   S24       1.0  0.16711  0.29481  0.68816  1.0000
  S   S25       1.0  0.16117  0.24787  0.62405  1.0000
  Fe  Fe12      1.0  0.39797  0.18253  0.73244  1.0000
  S   S26       1.0  0.36829  0.14595  0.76048  1.0000
  S   S27       1.0  0.37385  0.21206  0.69235  1.0000
  Fe  Fe13      1.0  0.46047  0.16965  0.77276  1.0000
  S   S28       1.0  0.43459  0.13218  0.80375  1.0000
  Fe  Fe14      1.0  0.41229  0.11355  0.75666  1.0000
  S   S29       1.0  0.41297  0.05996  0.74074  1.0000
  Fe  Fe15      1.0  0.39340  0.16854  0.80413  1.0000
  S   S30       1.0  0.36435  0.18491  0.84794  1.0000
  S   S31       1.0  0.44086  0.14876  0.72543  1.0000
  S   S32       1.0  0.42056  0.20708  0.77606  1.0000
  C   C82       1.0  0.37847  0.03981  0.72371  1.0000
  C   C83       1.0  0.34652  0.04872  0.73188  1.0000
  H   H138      1.0  0.29520  0.03676  0.72682  1.0000
  H   H139      1.0  0.44189  0.11092  0.65045  1.0000
  H   H140      1.0  0.34239  0.06934  0.74801  1.0000
  H   H141      1.0  0.28479  0.31526  0.70926  1.0000
  H   H142      1.0  0.50407  0.27302  0.92702  1.0000
  C   C84       1.0  0.36629  0.22783  0.85221  1.0000
  C   C85       1.0  0.39522  0.24491  0.84565  1.0000
  C   C86       1.0  0.39623  0.27925  0.84811  1.0000
  C   C87       1.0  0.36857  0.29679  0.85784  1.0000
  C   C88       1.0  0.33970  0.27959  0.86456  1.0000
  C   C89       1.0  0.33857  0.24526  0.86192  1.0000
  H   H143      1.0  0.41702  0.23162  0.83917  1.0000
  H   H144      1.0  0.41846  0.29216  0.84228  1.0000
  H   H145      1.0  0.31780  0.29252  0.87050  1.0000
  H   H146      1.0  0.31592  0.23232  0.86646  1.0000
  C   C90       1.0  0.32217  0.19471  0.97119  1.0000
  H   H147      1.0  0.27334  0.22810  0.99228  1.0000
  H   H148      1.0  0.34118  0.25311  0.94031  1.0000
  H   H149      1.0  0.38603  0.21050  0.95580  1.0000
  H   H150      1.0  0.24019  0.29513  0.94093  1.0000
  H   H151      1.0  0.47024  0.21922  0.86170  1.0000
  H   H152      1.0  0.02473  0.22576  0.60186  1.0000
  H   H153      1.0  0.35102  0.27442  0.97641  1.0000
  C   C91       1.0  0.31984  0.03022  0.71992  1.0000
  H   H154      1.0  0.30016  0.01402  0.61567  1.0000
  C   C92       1.0  0.26195  0.21641  0.69689  1.0000
  C   C93       1.0  0.27995  0.20634  0.72434  1.0000
  C   C94       1.0  0.31433  0.20597  0.72355  1.0000
  C   C95       1.0  0.33089  0.21481  0.69501  1.0000
  C   C96       1.0  0.31288  0.22509  0.66767  1.0000
  C   C97       1.0  0.27856  0.22554  0.66847  1.0000
  H   H155      1.0  0.26733  0.19905  0.74635  1.0000
  H   H156      1.0  0.32789  0.19903  0.74515  1.0000
  H   H157      1.0  0.32545  0.23207  0.64549  1.0000
  H   H158      1.0  0.26502  0.23193  0.64667  1.0000
  H   H159      1.0  0.23027  0.25805  0.96270  1.0000
  C   C98       1.0  0.26101  0.19770  0.54107  1.0000
  C   C99       1.0  0.24029  0.22288  0.55229  1.0000
  C   C100      1.0  0.22783  0.24611  0.53032  1.0000
  H   H160      1.0  0.11393  0.29707  0.55307  1.0000
  H   H161      1.0  0.27035  0.17977  0.55819  1.0000
  H   H162      1.0  0.23403  0.22434  0.57794  1.0000
  H   H163      1.0  0.45319  0.27080  0.88952  1.0000
  N   N6        1.0  0.12262  0.24339  0.76914  1.0000
  C   C101      1.0  0.13730  0.27695  0.77519  1.0000
  C   C102      1.0  0.14937  0.21806  0.76482  1.0000
  C   C103      1.0  0.10327  0.24511  0.73751  1.0000
  C   C104      1.0  0.09944  0.23338  0.79594  1.0000
  C   C105      1.0  0.11355  0.23305  0.83113  1.0000
  C   C106      1.0  0.11268  0.30546  0.77980  1.0000
  C   C107      1.0  0.08886  0.21217  0.72469  1.0000
  C   C108      1.0  0.18142  0.22271  0.78493  1.0000
  C   C109      1.0  0.20182  0.19130  0.78543  1.0000
  C   C110      1.0  0.08659  0.22686  0.85619  1.0000
  H   H164      1.0  0.34092  0.28707  0.71104  1.0000
  H   H165      1.0  0.39746  0.23829  0.98847  1.0000
  H   H166      1.0  0.15390  0.28357  0.75476  1.0000
  H   H167      1.0  0.15327  0.27724  0.79716  1.0000
  H   H168      1.0  0.13969  0.19299  0.76980  1.0000
  H   H169      1.0  0.15769  0.21745  0.73884  1.0000
  H   H170      1.0  0.11871  0.25553  0.71771  1.0000
  H   H171      1.0  0.08205  0.26196  0.73982  1.0000
  H   H172      1.0  0.07728  0.24924  0.79559  1.0000
  H   H173      1.0  0.09005  0.20813  0.79149  1.0000
  H   H174      1.0  0.12537  0.25668  0.83765  1.0000
  H   H175      1.0  0.13153  0.21285  0.83372  1.0000
  H   H176      1.0  0.45836  0.30927  0.94286  1.0000
  H   H177      1.0  0.09629  0.30070  0.80082  1.0000
  H   H178      1.0  0.06975  0.20284  0.74151  1.0000
  H   H179      1.0  0.10797  0.19309  0.72204  1.0000
  H   H180      1.0  0.19635  0.24243  0.77349  1.0000
  H   H181      1.0  0.17694  0.22979  0.81063  1.0000
  H   H182      1.0  0.18867  0.17148  0.79863  1.0000
  H   H183      1.0  0.20709  0.18291  0.76015  1.0000
  H   H184      1.0  0.22545  0.19592  0.79815  1.0000
  H   H185      1.0  0.09741  0.22613  0.88117  1.0000
  H   H186      1.0  0.06819  0.24689  0.85539  1.0000
  H   H187      1.0  0.07424  0.20301  0.85139  1.0000
  H   H188      1.0  0.30230  0.18127  0.98403  1.0000
  Fe  Fe16      1.0  0.19825  0.32887  0.65884  1.0000
  C   C111      1.0  0.07287  0.21670  0.69110  1.0000
  C   C112      1.0  0.24722  0.27937  0.96196  1.0000
  C   C113      1.0  0.37665  0.32289  0.76296  1.0000
  H   H189      1.0  0.05335  0.23562  0.69216  1.0000
  C   C114      1.0  0.48630  0.23161  0.87990  1.0000
  H   H190      1.0  0.44253  0.31880  0.74316  1.0000
  H   H191      1.0  0.29553  0.23431  0.79125  1.0000
  H   H192      1.0  0.44430  0.32130  0.90377  1.0000
  H   H193      1.0  0.39250  0.27317  0.77590  1.0000
  H   H194      1.0  0.33322  0.20481  0.91933  1.0000
  H   H195      1.0  0.21851  0.31241  0.72533  1.0000
  H   H196      1.0  0.36097  0.21172  0.59070  1.0000
  H   H197      1.0  0.09757  0.30922  0.75758  1.0000
  C   C115      1.0  0.29877  0.03971  0.60661  1.0000
  N   N7        1.0  0.33932  0.12218  0.63517  1.0000
  C   C116      1.0  0.32829  0.12207  0.67043  1.0000
  C   C117      1.0  0.37597  0.11672  0.63316  1.0000
  C   C118      1.0  0.33237  0.15590  0.62149  1.0000
  C   C119      1.0  0.32101  0.09738  0.61463  1.0000
  C   C120      1.0  0.29126  0.12783  0.67635  1.0000
  C   C121      1.0  0.34253  0.16174  0.58537  1.0000
  C   C122      1.0  0.39194  0.09455  0.65959  1.0000
  H   H198      1.0  0.39472  0.28174  0.73270  1.0000
  C   C123      1.0  0.28245  0.12211  0.71221  1.0000
  H   H199      1.0  0.34196  0.14123  0.68447  1.0000
  H   H200      1.0  0.33443  0.09859  0.68264  1.0000
  H   H201      1.0  0.34598  0.20160  0.55028  1.0000
  H   H202      1.0  0.38942  0.14054  0.63520  1.0000
  H   H203      1.0  0.34490  0.17472  0.63684  1.0000
  H   H204      1.0  0.30583  0.16170  0.62244  1.0000
  H   H205      1.0  0.29506  0.10499  0.61134  1.0000
  H   H206      1.0  0.33792  0.14493  0.92649  1.0000
  H   H207      1.0  0.28447  0.15344  0.67035  1.0000
  H   H208      1.0  0.27592  0.11098  0.66150  1.0000
  H   H209      1.0  0.32531  0.14881  0.56860  1.0000
  H   H210      1.0  0.36759  0.15283  0.58030  1.0000
  H   H211      1.0  0.39125  0.10695  0.68380  1.0000
  C   C124      1.0  0.44673  0.04308  0.82503  1.0000
  H   H212      1.0  0.48029  0.27759  0.85557  1.0000
  H   H213      1.0  0.43141  0.24837  0.94114  1.0000
  N   N8        1.0  0.49718  0.32271  0.90978  1.0000
  H   H214      1.0  0.28532  0.09582  0.71863  1.0000
  H   H215      1.0  0.29828  0.13704  0.72860  1.0000
  H   H216      1.0  0.06177  0.19319  0.68288  1.0000
  H   H217      1.0  0.33334  0.29291  0.79853  1.0000
  H   H218      1.0  0.31749  0.20906  0.58292  1.0000
  H   H219      1.0  0.21201  0.30336  0.78467  1.0000
  H   H220      1.0  0.28551  0.27337  0.74353  1.0000
  H   H221      1.0  0.24457  0.29405  0.98472  1.0000
  C   C125      1.0  0.13047  0.33775  0.78648  1.0000
  C   C126      1.0  0.09892  0.27819  0.54058  1.0000
  H   H222      1.0  0.29822  0.29025  0.95707  1.0000
  H   H223      1.0  0.03835  0.18723  0.58522  1.0000
  H   H224      1.0  0.37896  0.32978  0.78929  1.0000
  H   H225      1.0  0.11049  0.34000  0.69249  1.0000
  H   H226      1.0  0.01323  0.30861  0.66722  1.0000
  H   H227      1.0  0.25658  0.12924  0.71636  1.0000
  H   H228      1.0  0.27607  0.30461  0.77327  1.0000
  N   N9        1.0  0.32598  0.22881  0.98518  1.0000
  C   C127      1.0  0.29096  0.28269  0.76845  1.0000
  S   S33       1.0  0.16347  0.32892  0.61575  1.0000
  H   H229      1.0  0.29472  0.14239  0.93628  1.0000
  C   C128      1.0  0.34166  0.19828  0.57690  1.0000
  H   H230      1.0  0.42888  0.05898  0.81204  1.0000
  C   C129      1.0  0.01886  0.20614  0.58382  1.0000
  C   C130      1.0  0.50321  0.28666  0.90337  1.0000
  H   H231      1.0  0.09143  0.22431  0.67281  1.0000
  H   H232      1.0  0.28999  0.20280  0.92882  1.0000
  C   C131      1.0  0.28010  0.25666  0.79305  1.0000
  H   H233      1.0  0.05384  0.28157  0.56817  1.0000
  H   H234      1.0  0.04989  0.26551  0.52807  1.0000
  C   C132      1.0  0.06168  0.28563  0.54236  1.0000
  H   H235      1.0  0.34020  0.26695  0.76419  1.0000
  H   H236      1.0  0.42990  0.07417  0.62828  1.0000
  C   C133      1.0  0.38339  0.01301  0.70271  1.0000
  H   H237      1.0  0.30595  0.04006  0.58044  1.0000
  H   H238      1.0  0.28169  0.26651  0.81835  1.0000
  H   H239      1.0  0.25431  0.24979  0.78802  1.0000
  H   H240      1.0  0.31355  0.05945  0.65274  1.0000
  S   S34       1.0  0.28481  0.33830  0.90127  1.0000
  H   H241      1.0  0.27304  0.04811  0.60891  1.0000
  C   C134      1.0  0.32159  0.06145  0.62698  1.0000
  H   H242      1.0  0.09329  0.22493  0.54360  1.0000
  H   H243      1.0  0.37918  0.07076  0.66179  1.0000
  H   H244      1.0  0.13339  0.24012  0.55411  1.0000
  C   C135      1.0  0.33857  0.31371  0.71690  1.0000
  H   H245      1.0  0.43860  0.07224  0.67150  1.0000
  H   H246      1.0  0.33100  0.09680  0.58935  1.0000
  C   C136      1.0  0.10674  0.24503  0.55617  1.0000
  H   H247      1.0  0.34653  0.05115  0.62459  1.0000
  H   H248      1.0  0.38262  0.10661  0.60877  1.0000
  C   C137      1.0  0.40561  0.25679  0.94043  1.0000
  H   H249      1.0  0.10006  0.24516  0.58249  1.0000
  C   C138      1.0  0.06351  0.32151  0.67707  1.0000
  C   C139      1.0  0.39843  0.29225  0.75751  1.0000
  C   C140      1.0  0.42779  0.08762  0.65180  1.0000
  C   C141      1.0  0.32787  0.28996  0.77200  1.0000
  C   C142      1.0  0.46298  0.32714  0.92276  1.0000
  C   C143      1.0  0.21839  0.33317  0.74162  1.0000
  H   H250      1.0  0.39199  0.32267  0.00217  1.0000
  H   H251      1.0  0.34464  0.18001  0.97587  1.0000
  C   C144      1.0  0.28259  0.26792  0.95810  1.0000
  H   H252      1.0  0.10701  0.27704  0.51474  1.0000
  H   H253      1.0  0.28462  0.25513  0.93435  1.0000
  C   C145      1.0  0.44730  0.00887  0.80972  1.0000
  H   H254      1.0  0.40473  0.28315  0.94724  1.0000
  C   C146      1.0  0.43471  0.30054  0.76172  1.0000
  H   H255      1.0  0.33113  0.32968  0.65165  1.0000
  N   N10       1.0  0.34100  0.31918  0.75350  1.0000
  C   C147      1.0  0.02955  0.32376  0.68168  1.0000
  H   H256      1.0  0.44952  0.27796  0.75842  1.0000
  H   H257      1.0  0.39609  0.25379  0.91516  1.0000
  C   C148      1.0  0.21554  0.32796  0.77540  1.0000
  H   H258      1.0  0.49356  0.24454  0.79022  1.0000
  H   H259      1.0  0.39790  0.00966  0.79251  1.0000
  H   H260      1.0  0.30772  0.15563  0.89625  1.0000
  C   C149      1.0  0.38533  0.23638  0.96416  1.0000
  C   C150      1.0  0.31436  0.19228  0.93418  1.0000
  H   H261      1.0  0.03282  0.33215  0.57832  1.0000
  N   N11       1.0  0.05012  0.31886  0.53017  1.0000
  C   C151      1.0  0.31361  0.15655  0.92282  1.0000
  H   H262      1.0  0.45682  0.01141  0.78443  1.0000
  H   H263      1.0  0.09763  0.33448  0.51217  1.0000
  C   C152      1.0  0.47864  0.26836  0.88092  1.0000
  H   H264      1.0  0.43957  0.31041  0.78661  1.0000
  C   C153      1.0  0.34978  0.24935  0.96584  1.0000
  C   C154      1.0  0.29326  0.24612  0.98743  1.0000
  H   H265      1.0  0.14586  0.33590  0.80888  1.0000
  H   H266      1.0  0.46208  0.32647  0.84885  1.0000
  H   H267      1.0  0.30742  0.29270  0.65800  1.0000
  H   H268      1.0  0.09222  0.33199  0.58617  1.0000
  C   C155      1.0  0.30730  0.32651  0.69930  1.0000
  H   H269      1.0  0.48209  0.22023  0.90421  1.0000
  C   C156      1.0  0.01630  0.31457  0.51559  1.0000
  H   H270      1.0  0.47130  0.05460  0.82314  1.0000
  H   H271      1.0  0.28721  0.33123  0.65040  1.0000
  C   C157      1.0  0.26968  0.19558  0.50790  1.0000
  H   H272      1.0  0.00621  0.33850  0.50726  1.0000
  C   C158      1.0  0.30849  0.31948  0.66262  1.0000
  H   H273      1.0  0.35956  0.32553  0.70418  1.0000
  S   S35       1.0  0.37084  0.34002  0.86040  1.0000
  Fe  Fe17      1.0  0.12865  0.38429  0.30853  1.0000
  S   S36       1.0  0.16284  0.41052  0.34278  1.0000
  S   S37       1.0  0.07380  0.38407  0.31572  1.0000
  H   H274      1.0  0.23884  0.45577  0.12238  1.0000
  S   S38       1.0  0.22250  0.38790  0.29489  1.0000
  H   H275      1.0  0.17466  0.59141  0.24695  1.0000
  Fe  Fe18      1.0  0.18678  0.42935  0.29679  1.0000
  S   S39       1.0  0.19711  0.48331  0.28817  1.0000
  S   S40       1.0  0.15054  0.40571  0.26277  1.0000
  H   H276      1.0  0.16515  0.65579  0.28105  1.0000
  S   S41       1.0  0.30723  0.62738  0.21381  1.0000
  H   H277      1.0  0.34721  0.41153  0.07372  1.0000
  Fe  Fe19      1.0  0.31645  0.63048  0.11929  1.0000
  S   S42       1.0  0.35465  0.60830  0.15222  1.0000
  S   S43       1.0  0.31891  0.63426  0.06399  1.0000
  Fe  Fe20      1.0  0.31191  0.58543  0.17877  1.0000
  S   S44       1.0  0.31216  0.53236  0.19597  1.0000
  H   H278      1.0  0.23736  0.62077  0.23853  1.0000
  S   S45       1.0  0.27413  0.60450  0.14346  1.0000
  H   H279      1.0  0.35477  0.35246  0.32431  1.0000
  H   H280      1.0  0.23715  0.65085  0.04300  1.0000
  C   C159      1.0  0.23446  0.64063  0.28725  1.0000
  C   C160      1.0  0.29600  0.36828  0.22448  1.0000
  H   H281      1.0  0.25648  0.48953  0.09988  1.0000
  H   H282      1.0  0.26539  0.34619  0.10874  1.0000
  H   H283      1.0  0.30212  0.34796  0.35473  1.0000
  H   H284      1.0  0.28192  0.44881  0.07509  1.0000
  H   H285      1.0  0.31968  0.46994  0.08080  1.0000
  H   H286      1.0  0.31996  0.37468  0.15242  1.0000
  C   C161      1.0  0.12401  0.65080  0.31471  1.0000
  C   C162      1.0  0.14283  0.64038  0.28355  1.0000
  H   H287      1.0  0.30493  0.43885  0.01774  1.0000
  C   C163      1.0  0.09409  0.61824  0.25628  1.0000
  H   H288      1.0  0.24761  0.38778  0.23122  1.0000
  H   H289      1.0  0.30480  0.49145  0.13509  1.0000
  C   C164      1.0  0.27959  0.51850  0.22076  1.0000
  C   C165      1.0  0.28001  0.48636  0.23327  1.0000
  C   C166      1.0  0.25434  0.47481  0.25307  1.0000
  C   C167      1.0  0.22823  0.49548  0.26079  1.0000
  C   C168      1.0  0.22767  0.52744  0.24800  1.0000
  C   C169      1.0  0.25315  0.53891  0.22796  1.0000
  H   H290      1.0  0.30039  0.47041  0.22795  1.0000
  H   H291      1.0  0.25515  0.45018  0.26291  1.0000
  H   H292      1.0  0.20767  0.54355  0.25403  1.0000
  H   H293      1.0  0.25254  0.56364  0.21837  1.0000
  H   H294      1.0  0.32923  0.65370  0.30996  1.0000
  C   C170      1.0  0.04339  0.38627  0.23347  1.0000
  C   C171      1.0  0.30151  0.39130  0.32522  1.0000
  C   C172      1.0  0.28017  0.34737  0.13155  1.0000
  H   H295      1.0  0.27959  0.40066  0.33806  1.0000
  H   H296      1.0  0.32351  0.40263  0.33663  1.0000
  H   H297      1.0  0.30000  0.39868  0.29907  1.0000
  Fe  Fe21      1.0  0.34595  0.65247  0.18428  1.0000
  H   H298      1.0  0.07328  0.42452  0.21098  1.0000
  H   H299      1.0  0.30800  0.39127  0.23015  1.0000
  H   H300      1.0  0.05113  0.56667  0.24234  1.0000
  H   H301      1.0  0.35470  0.45949  0.12610  1.0000
  H   H302      1.0  0.33419  0.34893  0.28600  1.0000
  H   H303      1.0  0.27368  0.41153  0.15364  1.0000
  H   H304      1.0  0.00839  0.66673  0.35517  1.0000
  C   C173      1.0  0.14708  0.65762  0.34334  1.0000
  C   C174      1.0  0.06104  0.41937  0.23465  1.0000
  H   H305      1.0  0.03145  0.38219  0.25742  1.0000
  H   H306      1.0  0.33933  0.46324  0.18251  1.0000
  H   H307      1.0  0.35316  0.41623  0.12576  1.0000
  H   H308      1.0  0.39626  0.44476  0.17464  1.0000
  H   H309      1.0  0.26527  0.40694  0.11137  1.0000
  H   H310      1.0  0.07791  0.36277  0.20114  1.0000
  H   H311      1.0  0.28646  0.46501  0.16433  1.0000
  H   H312      1.0  0.02868  0.58704  0.21014  1.0000
  H   H313      1.0  0.07958  0.41976  0.25453  1.0000
  H   H314      1.0  0.23845  0.61725  0.29883  1.0000
  C   C175      1.0  0.30423  0.37608  0.13029  1.0000
  H   H315      1.0  0.06392  0.63588  0.21505  1.0000
  H   H316      1.0  0.21335  0.50919  0.13608  1.0000
  N   N12       1.0  0.12309  0.64082  0.25228  1.0000
  H   H317      1.0  0.05678  0.38329  0.50487  1.0000
  H   H318      1.0  0.33937  0.41168  0.01428  1.0000
  H   H319      1.0  0.38296  0.40230  0.17494  1.0000
  H   H320      1.0  0.15628  0.54718  0.30874  1.0000
  C   C176      1.0  0.32282  0.66803  0.28775  1.0000
  C   C177      1.0  0.23387  0.64266  0.25304  1.0000
  H   H321      1.0  0.26338  0.35008  0.15261  1.0000
  H   H322      1.0  0.16093  0.58805  0.17296  1.0000
  C   C178      1.0  0.32850  0.43155  0.02927  1.0000
  Fe  Fe22      1.0  0.19482  0.36595  0.33653  1.0000
  H   H323      1.0  0.10675  0.63115  0.32228  1.0000
  C   C179      1.0  0.30263  0.35393  0.32825  1.0000
  H   H324      1.0  0.25530  0.59779  0.45160  1.0000
  C   C180      1.0  0.26176  0.36614  0.22575  1.0000
  H   H325      1.0  0.25235  0.52511  0.14945  1.0000
  Fe  Fe23      1.0  0.27267  0.64824  0.17672  1.0000
  C   C181      1.0  0.34124  0.67285  0.01382  1.0000
  H   H326      1.0  0.16658  0.64612  0.22289  1.0000
  C   C182      1.0  0.15770  0.59442  0.22592  1.0000
  H   H327      1.0  0.32020  0.37235  0.10891  1.0000
  H   H328      1.0  0.32509  0.42153  0.18409  1.0000
  H   H329      1.0  0.23326  0.49149  0.17127  1.0000
  H   H330      1.0  0.08800  0.36041  0.24347  1.0000
  H   H331      1.0  0.37866  0.42713  0.21107  1.0000
  C   C183      1.0  0.23744  0.50242  0.14673  1.0000
  N   N13       1.0  0.24563  0.54855  0.36059  1.0000
  C   C184      1.0  0.27359  0.56687  0.34470  1.0000
  C   C185      1.0  0.24366  0.55974  0.39577  1.0000
  C   C186      1.0  0.25333  0.51219  0.35894  1.0000
  C   C187      1.0  0.21478  0.55634  0.34172  1.0000
  C   C188      1.0  0.18265  0.54145  0.35499  1.0000
  C   C189      1.0  0.28174  0.55654  0.30900  1.0000
  C   C190      1.0  0.23964  0.48975  0.38643  1.0000
  C   C191      1.0  0.23704  0.59682  0.40133  1.0000
  C   C192      1.0  0.23292  0.60456  0.43766  1.0000
  C   C193      1.0  0.15315  0.55318  0.33508  1.0000
  C   C194      1.0  0.31257  0.57357  0.29667  1.0000
  C   C195      1.0  0.24426  0.45351  0.37798  1.0000
  H   H332      1.0  0.29628  0.56416  0.35971  1.0000
  H   H333      1.0  0.26851  0.59367  0.34367  1.0000
  H   H334      1.0  0.22422  0.54635  0.40910  1.0000
  H   H335      1.0  0.26690  0.55361  0.40876  1.0000
  H   H336      1.0  0.28029  0.50811  0.35974  1.0000
  H   H337      1.0  0.24524  0.50192  0.33499  1.0000
  H   H338      1.0  0.21156  0.58334  0.33926  1.0000
  H   H339      1.0  0.21673  0.54726  0.31620  1.0000
  H   H340      1.0  0.17845  0.54836  0.38084  1.0000
  H   H341      1.0  0.18318  0.51438  0.35266  1.0000
  H   H342      1.0  0.28560  0.52973  0.30653  1.0000
  H   H343      1.0  0.26166  0.56387  0.29235  1.0000
  H   H344      1.0  0.21334  0.49380  0.39096  1.0000
  H   H345      1.0  0.25299  0.49457  0.40971  1.0000
  H   H346      1.0  0.25780  0.61194  0.39253  1.0000
  H   H347      1.0  0.21432  0.60474  0.38870  1.0000
  H   H348      1.0  0.10189  0.59402  0.26618  1.0000
  H   H349      1.0  0.22869  0.63133  0.44076  1.0000
  H   H350      1.0  0.21153  0.59120  0.44779  1.0000
  H   H351      1.0  0.08748  0.59968  0.20594  1.0000
  H   H352      1.0  0.13069  0.54069  0.34391  1.0000
  H   H353      1.0  0.14988  0.58000  0.33797  1.0000
  H   H354      1.0  0.31763  0.56556  0.27118  1.0000
  H   H355      1.0  0.30899  0.60050  0.29650  1.0000
  H   H356      1.0  0.33401  0.56729  0.31222  1.0000
  H   H357      1.0  0.27065  0.44779  0.37526  1.0000
  H   H358      1.0  0.23415  0.43789  0.39780  1.0000
  H   H359      1.0  0.23122  0.44732  0.35484  1.0000
  N   N14       1.0  0.30563  0.43981  0.12186  1.0000
  C   C196      1.0  0.34016  0.43814  0.13505  1.0000
  C   C197      1.0  0.30696  0.44615  0.08548  1.0000
  C   C198      1.0  0.28921  0.46907  0.13755  1.0000
  C   C199      1.0  0.28575  0.40937  0.12931  1.0000
  C   C200      1.0  0.31203  0.34388  0.01196  1.0000
  C   C201      1.0  0.34337  0.43809  0.17287  1.0000
  C   C202      1.0  0.25461  0.47787  0.12437  1.0000
  C   C203      1.0  0.32308  0.41932  0.06415  1.0000
  H   H360      1.0  0.02748  0.60321  0.25111  1.0000
  H   H361      1.0  0.30659  0.39771  0.06261  1.0000
  C   C204      1.0  0.37748  0.42742  0.18391  1.0000
  H   H362      1.0  0.00513  0.43369  0.41602  1.0000
  H   H363      1.0  0.19820  0.60263  0.19222  1.0000
  H   H364      1.0  0.13757  0.57631  0.22824  1.0000
  C   C205      1.0  0.14465  0.63010  0.22439  1.0000
  H   H365      1.0  0.34568  0.45266  0.02938  1.0000
  C   C206      1.0  0.17682  0.58596  0.19498  1.0000
  Fe  Fe24      1.0  0.18477  0.36288  0.26398  1.0000
  H   H366      1.0  0.34064  0.66254  0.26807  1.0000
  C   C207      1.0  0.07312  0.61234  0.22511  1.0000
  H   H367      1.0  0.18595  0.56036  0.19650  1.0000
  H   H368      1.0  0.15971  0.34340  0.46653  1.0000
  H   H369      1.0  0.16245  0.63594  0.34898  1.0000
  H   H370      1.0  0.02436  0.38855  0.21417  1.0000
  C   C208      1.0  0.23034  0.66881  0.30635  1.0000
  H   H371      1.0  0.13270  0.66415  0.36540  1.0000
  H   H372      1.0  0.04310  0.43918  0.23952  1.0000
  C   C209      1.0  0.31462  0.34098  0.21540  1.0000
  C   C210      1.0  0.06733  0.35780  0.22577  1.0000
  C   C211      1.0  0.05717  0.35729  0.34512  1.0000
  C   C212      1.0  0.22877  0.67288  0.23769  1.0000
  H   H373      1.0  0.08038  0.39926  0.45139  1.0000
  H   H374      1.0  0.03984  0.36014  0.47106  1.0000
  C   C213      1.0  0.08894  0.37679  0.46420  1.0000
  S   S46       1.0  0.35745  0.34485  0.21224  1.0000
  C   C214      1.0  0.04334  0.59095  0.23277  1.0000
  H   H375      1.0  0.09535  0.35823  0.44542  1.0000
  H   H376      1.0  0.00802  0.36310  0.32686  1.0000
  H   H377      1.0  0.29814  0.66059  0.27932  1.0000
  H   H378      1.0  0.13193  0.63352  0.20050  1.0000
  H   H379      1.0  0.02363  0.40849  0.38482  1.0000
  H   H380      1.0  0.15215  0.61536  0.28874  1.0000
  H   H381      1.0  0.07708  0.62836  0.27497  1.0000
  H   H382      1.0  0.01667  0.53394  0.28628  1.0000
  H   H383      1.0  0.37706  0.66780  0.08889  1.0000
  C   C215      1.0  0.34616  0.66293  0.04636  1.0000
  H   H384      1.0  0.10290  0.34648  0.36911  1.0000
  C   C216      1.0  0.07679  0.34202  0.36873  1.0000
  S   S47       1.0  0.23222  0.66538  0.34917  1.0000
  H   H385      1.0  0.28008  0.34387  0.31677  1.0000
  C   C217      1.0  0.02335  0.35162  0.34510  1.0000
  C   C218      1.0  0.06193  0.36393  0.48658  1.0000
  H   H386      1.0  0.11116  0.38309  0.47866  1.0000
  H   H387      1.0  0.10992  0.67334  0.31036  1.0000
  S   S48       1.0  0.22001  0.37211  0.68651  1.0000
  Fe  Fe25      1.0  0.17092  0.59386  0.77886  1.0000
  S   S49       1.0  0.14171  0.62030  0.81686  1.0000
  S   S50       1.0  0.17977  0.53897  0.78089  1.0000
  C   C219      1.0  0.01653  0.34562  0.70496  1.0000
  H   H388      1.0  0.01887  0.50356  0.76772  1.0000
  Fe  Fe26      1.0  0.11895  0.64740  0.77435  1.0000
  H   H389      1.0  0.37109  0.47806  0.97644  1.0000
  S   S51       1.0  0.21206  0.63012  0.77869  1.0000
  S   S52       1.0  0.14511  0.61775  0.73623  1.0000
  H   H390      1.0  0.18492  0.45809  0.85756  1.0000
  Fe  Fe27      1.0  0.28399  0.37820  0.93866  1.0000
  S   S53       1.0  0.32717  0.40528  0.91819  1.0000
  H   H391      1.0  0.29732  0.34936  0.75745  1.0000
  H   H392      1.0  0.32561  0.43383  0.74561  1.0000
  S   S54       1.0  0.29378  0.39606  0.84546  1.0000
  H   H393      1.0  0.29387  0.40527  0.73411  1.0000
  Fe  Fe28      1.0  0.25261  0.37027  0.87046  1.0000
  H   H394      1.0  0.40829  0.37052  0.91291  1.0000
  Fe  Fe29      1.0  0.28991  0.43188  0.88698  1.0000
  S   S55       1.0  0.28863  0.48712  0.87986  1.0000
  H   H395      1.0  0.15383  0.43485  0.87873  1.0000
  S   S56       1.0  0.24655  0.40757  0.91039  1.0000
  H   H396      1.0  0.16914  0.42808  0.70803  1.0000
  H   H397      1.0  0.02949  0.42848  0.86175  1.0000
  S   S57       1.0  0.21332  0.34695  0.83940  1.0000
  H   H398      1.0  0.33541  0.48146  0.95061  1.0000
  C   C220      1.0  0.21037  0.52509  0.80824  1.0000
  C   C221      1.0  0.22067  0.49229  0.80682  1.0000
  C   C222      1.0  0.24450  0.48048  0.82880  1.0000
  C   C223      1.0  0.25844  0.50144  0.85217  1.0000
  C   C224      1.0  0.24844  0.53438  0.85322  1.0000
  C   C225      1.0  0.22444  0.54616  0.83140  1.0000
  H   H399      1.0  0.21011  0.47585  0.78887  1.0000
  H   H400      1.0  0.25211  0.45513  0.82767  1.0000
  H   H401      1.0  0.25870  0.55073  0.87136  1.0000
  H   H402      1.0  0.21658  0.57146  0.83282  1.0000
  Fe  Fe30      1.0  0.18381  0.65681  0.73999  1.0000
  H   H403      1.0  0.30650  0.62359  0.83681  1.0000
  C   C226      1.0  0.31466  0.66657  0.86635  1.0000
  C   C227      1.0  0.38345  0.60858  0.96772  1.0000
  H   H404      1.0  0.05811  0.36841  0.62052  1.0000
  C   C228      1.0  0.50367  0.34311  0.87953  1.0000
  H   H405      1.0  0.34855  0.38028  0.72761  1.0000
  C   C229      1.0  0.31345  0.41043  0.75236  1.0000
  C   C230      1.0  0.08038  0.35338  0.57444  1.0000
  C   C231      1.0  0.22420  0.38583  0.78510  1.0000
  C   C232      1.0  0.22546  0.39126  0.75109  1.0000
  H   H406      1.0  0.23435  0.62304  0.93974  1.0000
  H   H407      1.0  0.22649  0.40622  0.80188  1.0000
  H   H408      1.0  0.22852  0.41592  0.74178  1.0000
  N   N15       1.0  0.10148  0.46197  0.79532  1.0000
  C   C233      1.0  0.10842  0.43855  0.76760  1.0000
  C   C234      1.0  0.06998  0.45185  0.81170  1.0000
  C   C235      1.0  0.09604  0.49548  0.78035  1.0000
  C   C236      1.0  0.12916  0.46415  0.81997  1.0000
  C   C237      1.0  0.15009  0.43274  0.82554  1.0000
  C   C238      1.0  0.13673  0.44879  0.74451  1.0000
  C   C239      1.0  0.08513  0.52315  0.80401  1.0000
  C   C240      1.0  0.06942  0.41763  0.82809  1.0000
  Fe  Fe31      1.0  0.32593  0.36649  0.87888  1.0000
  C   C241      1.0  0.17016  0.43520  0.85710  1.0000
  H   H409      1.0  0.15620  0.39928  0.73873  1.0000
  C   C242      1.0  0.08509  0.55644  0.78674  1.0000
  H   H410      1.0  0.08614  0.43547  0.75199  1.0000
  H   H411      1.0  0.11367  0.41361  0.77681  1.0000
  H   H412      1.0  0.06367  0.46924  0.83160  1.0000
  H   H413      1.0  0.04937  0.45270  0.79369  1.0000
  H   H414      1.0  0.07758  0.49394  0.76022  1.0000
  H   H415      1.0  0.11894  0.50450  0.76880  1.0000
  H   H416      1.0  0.14696  0.48360  0.81293  1.0000
  H   H417      1.0  0.11961  0.47239  0.84409  1.0000
  H   H418      1.0  0.16744  0.42944  0.80503  1.0000
  H   H419      1.0  0.13532  0.41004  0.82700  1.0000
  H   H420      1.0  0.12818  0.46841  0.72771  1.0000
  H   H421      1.0  0.15803  0.45844  0.75842  1.0000
  H   H422      1.0  0.10182  0.52482  0.82547  1.0000
  H   H423      1.0  0.05983  0.51886  0.81273  1.0000
  H   H424      1.0  0.07484  0.39793  0.81027  1.0000
  H   H425      1.0  0.14606  0.34456  0.76535  1.0000
  C   C243      1.0  0.32349  0.34976  0.76474  1.0000
  C   C244      1.0  0.41846  0.36808  0.93802  1.0000
  H   H426      1.0  0.37311  0.59338  0.98770  1.0000
  H   H427      1.0  0.33484  0.49813  0.99167  1.0000
  H   H428      1.0  0.28748  0.65963  0.74047  1.0000
  H   H429      1.0  0.28271  0.65701  0.78404  1.0000
  C   C245      1.0  0.33854  0.38264  0.75269  1.0000
  H   H430      1.0  0.12815  0.41188  0.70672  1.0000
  H   H431      1.0  0.11018  0.56304  0.77885  1.0000
  H   H432      1.0  0.06883  0.55593  0.76493  1.0000
  H   H433      1.0  0.07628  0.57577  0.80371  1.0000
  H   H434      1.0  0.32306  0.35075  0.79203  1.0000
  C   C246      1.0  0.03579  0.41023  0.84260  1.0000
  H   H435      1.0  0.30220  0.41342  0.77681  1.0000
  C   C247      1.0  0.07134  0.36281  0.71934  1.0000
  H   H436      1.0  0.39487  0.57427  0.92897  1.0000
  H   H437      1.0  0.26765  0.65205  0.93953  1.0000
  H   H438      1.0  0.40568  0.34771  0.95067  1.0000
  H   H439      1.0  0.03590  0.38543  0.85388  1.0000
  H   H440      1.0  0.08767  0.37752  0.73407  1.0000
  H   H441      1.0  0.36975  0.52570  0.82984  1.0000
  Fe  Fe32      1.0  0.18157  0.65815  0.81432  1.0000
  H   H442      1.0  0.15622  0.50884  0.69499  1.0000
  N   N16       1.0  0.24869  0.55094  0.69495  1.0000
  C   C248      1.0  0.25792  0.52684  0.66850  1.0000
  C   C249      1.0  0.25225  0.58540  0.68192  1.0000
  C   C250      1.0  0.27080  0.54511  0.72407  1.0000
  C   C251      1.0  0.21374  0.54622  0.70550  1.0000
  C   C252      1.0  0.18746  0.54855  0.67805  1.0000
  C   C253      1.0  0.24913  0.49032  0.67538  1.0000
  C   C254      1.0  0.26812  0.57021  0.75239  1.0000
  C   C255      1.0  0.28754  0.59626  0.67327  1.0000
  C   C256      1.0  0.28807  0.63170  0.66099  1.0000
  C   C257      1.0  0.15448  0.53554  0.68988  1.0000
  C   C258      1.0  0.26081  0.46795  0.64782  1.0000
  C   C259      1.0  0.29223  0.56219  0.77985  1.0000
  H   H443      1.0  0.28477  0.52771  0.66414  1.0000
  H   H444      1.0  0.24682  0.53386  0.64459  1.0000
  H   H445      1.0  0.23736  0.58845  0.65925  1.0000
  H   H446      1.0  0.24189  0.60360  0.69940  1.0000
  H   H447      1.0  0.29688  0.54398  0.71645  1.0000
  H   H448      1.0  0.26555  0.52070  0.73514  1.0000
  H   H449      1.0  0.21083  0.52249  0.71874  1.0000
  H   H450      1.0  0.20691  0.56538  0.72356  1.0000
  H   H451      1.0  0.19405  0.53425  0.65604  1.0000
  H   H452      1.0  0.18414  0.57459  0.67067  1.0000
  H   H453      1.0  0.26069  0.48161  0.69839  1.0000
  H   H454      1.0  0.22229  0.48683  0.67745  1.0000
  H   H455      1.0  0.24336  0.56937  0.76307  1.0000
  H   H456      1.0  0.27326  0.59561  0.74417  1.0000
  H   H457      1.0  0.30401  0.59495  0.69487  1.0000
  H   H458      1.0  0.29770  0.58050  0.65366  1.0000
  H   H459      1.0  0.31342  0.63881  0.65436  1.0000
  H   H460      1.0  0.27220  0.63448  0.63903  1.0000
  H   H461      1.0  0.27940  0.64871  0.68033  1.0000
  H   H462      1.0  0.01664  0.41059  0.82326  1.0000
  H   H463      1.0  0.14673  0.54838  0.71251  1.0000
  H   H464      1.0  0.13556  0.53944  0.67070  1.0000
  H   H465      1.0  0.24911  0.47491  0.62424  1.0000
  H   H466      1.0  0.28783  0.46931  0.64536  1.0000
  H   H467      1.0  0.25400  0.44211  0.65342  1.0000
  H   H468      1.0  0.31783  0.56461  0.77120  1.0000
  H   H469      1.0  0.28853  0.57945  0.80052  1.0000
  H   H470      1.0  0.28809  0.53685  0.78903  1.0000
  C   C260      1.0  0.14813  0.42019  0.72328  1.0000
  C   C261      1.0  0.26097  0.64673  0.84949  1.0000
  N   N17       1.0  0.34199  0.58057  0.92859  1.0000
  C   C262      1.0  0.37633  0.59345  0.93360  1.0000
  C   C263      1.0  0.33692  0.57331  0.89270  1.0000
  C   C264      1.0  0.31859  0.60772  0.93782  1.0000
  C   C265      1.0  0.33432  0.55065  0.94908  1.0000
  C   C266      1.0  0.36301  0.52692  0.95681  1.0000
  C   C267      1.0  0.28183  0.60125  0.93054  1.0000
  C   C268      1.0  0.35944  0.54714  0.87727  1.0000
  C   C269      1.0  0.35318  0.54438  0.84049  1.0000
  H   H471      1.0  0.01172  0.56824  0.75463  1.0000
  C   C270      1.0  0.26027  0.62693  0.94708  1.0000
  H   H472      1.0  0.31168  0.56433  0.88805  1.0000
  H   H473      1.0  0.33968  0.59628  0.87829  1.0000
  H   H474      1.0  0.32546  0.63105  0.92532  1.0000
  H   H475      1.0  0.45593  0.36546  0.86767  1.0000
  H   H476      1.0  0.32428  0.55791  0.97334  1.0000
  H   H477      1.0  0.31430  0.53612  0.93728  1.0000
  H   H478      1.0  0.37836  0.52168  0.93528  1.0000
  H   H479      1.0  0.46406  0.37091  0.80850  1.0000
  H   H480      1.0  0.26219  0.62490  0.97413  1.0000
  H   H481      1.0  0.27412  0.57666  0.93930  1.0000
  H   H482      1.0  0.27695  0.60274  0.90387  1.0000
  H   H483      1.0  0.35411  0.52266  0.88785  1.0000
  H   H484      1.0  0.35769  0.56829  0.82821  1.0000
  H   H485      1.0  0.24625  0.62875  0.83689  1.0000
  H   H486      1.0  0.18706  0.41397  0.85887  1.0000
  C   C271      1.0  0.34269  0.34109  0.99722  1.0000
  C   C272      1.0  0.22177  0.36496  0.72917  1.0000
  H   H487      1.0  0.41361  0.39126  0.95142  1.0000
  H   H488      1.0  0.30499  0.35348  0.70176  1.0000
  C   C273      1.0  0.07459  0.37862  0.60149  1.0000
  H   H489      1.0  0.32756  0.53646  0.83590  1.0000
  C   C274      1.0  0.29514  0.64355  0.84991  1.0000
  H   H490      1.0  0.38565  0.55321  0.88071  1.0000
  H   H491      1.0  0.37917  0.53776  0.97588  1.0000
  H   H492      1.0  0.06368  0.40137  0.59127  1.0000
  H   H493      1.0  0.08716  0.41678  0.84866  1.0000
  S   S58       1.0  0.06397  0.65529  0.77235  1.0000
  S   S59       1.0  0.27919  0.36413  0.99219  1.0000
  H   H494      1.0  0.38814  0.34331  0.74904  1.0000
  H   H495      1.0  0.09826  0.38495  0.61342  1.0000
  C   C275      1.0  0.45526  0.36175  0.93663  1.0000
  C   C276      1.0  0.47441  0.34942  0.85599  1.0000
  H   H496      1.0  0.35897  0.38987  0.76927  1.0000
  C   C277      1.0  0.03744  0.36527  0.72390  1.0000
  C   C278      1.0  0.35023  0.49415  0.96971  1.0000
  H   H497      1.0  0.46661  0.38142  0.92170  1.0000
  H   H498      1.0  0.32034  0.61292  0.96451  1.0000
  H   H499      1.0  0.03430  0.36532  0.55064  1.0000
  S   S60       1.0  0.02231  0.39324  0.75332  1.0000
  H   H500      1.0  0.46512  0.36378  0.96196  1.0000
  H   H501      1.0  0.38171  0.61301  0.91524  1.0000
  H   H502      1.0  0.43264  0.58898  0.97428  1.0000
  H   H503      1.0  0.43097  0.62875  0.95437  1.0000
  H   H504      1.0  0.11223  0.35739  0.79029  1.0000
  C   C279      1.0  0.21843  0.35420  0.79725  1.0000
  H   H505      1.0  0.50333  0.35107  0.81126  1.0000
  C   C280      1.0  0.48553  0.36655  0.82468  1.0000
  H   H506      1.0  0.34650  0.35112  0.97304  1.0000
  S   S61       1.0  0.35758  0.66289  0.86445  1.0000
  H   H507      1.0  0.37223  0.63327  0.96894  1.0000
  H   H508      1.0  0.25165  0.66910  0.59038  1.0000
  H   H509      1.0  0.09734  0.36460  0.55654  1.0000
  H   H510      1.0  0.49708  0.39058  0.83048  1.0000
  C   C281      1.0  0.42008  0.61311  0.97377  1.0000
  H   H511      1.0  0.21713  0.66319  0.56329  1.0000
  H   H512      1.0  0.32044  0.66352  0.00023  1.0000
  C   C282      1.0  0.24608  0.67332  0.86503  1.0000
  H   H513      1.0  0.01107  0.58215  0.69169  1.0000
  H   H514      1.0  0.42396  0.62546  0.99773  1.0000
  H   H515      1.0  0.01596  0.64020  0.67268  1.0000
  C   C283      1.0  0.29041  0.67330  0.76379  1.0000
  C   C284      1.0  0.04774  0.34283  0.55822  1.0000
  C   C285      1.0  0.08433  0.34125  0.69592  1.0000
  S   S62       1.0  0.01847  0.67600  0.28479  1.0000
  H   H516      1.0  0.47363  0.78845  0.17353  1.0000
  Fe  Fe33      1.0  0.21237  0.70916  0.37654  1.0000
  S   S63       1.0  0.17696  0.74575  0.35568  1.0000
  Fe  Fe34      1.0  0.21471  0.74328  0.44361  1.0000
  S   S64       1.0  0.17842  0.78158  0.42825  1.0000
  H   H517      1.0  0.45467  0.77367  0.06938  1.0000
  Fe  Fe35      1.0  0.15072  0.74026  0.40355  1.0000
  S   S65       1.0  0.09618  0.72987  0.40914  1.0000
  Fe  Fe36      1.0  0.20811  0.78309  0.38211  1.0000
  S   S66       1.0  0.22481  0.83050  0.35905  1.0000
  S   S67       1.0  0.18470  0.70153  0.42319  1.0000
  S   S68       1.0  0.24559  0.74667  0.39875  1.0000
  Fe  Fe37      1.0  0.41141  0.93047  0.27612  1.0000
  S   S69       1.0  0.44107  0.90555  0.31510  1.0000
  S   S70       1.0  0.40415  0.98553  0.28092  1.0000
  Fe  Fe38      1.0  0.39813  0.86526  0.24057  1.0000
  S   S71       1.0  0.42575  0.83627  0.27794  1.0000
  S   S72       1.0  0.37216  0.83777  0.20008  1.0000
  Fe  Fe39      1.0  0.40042  0.86842  0.31458  1.0000
  S   S73       1.0  0.37866  0.84872  0.36148  1.0000
  Fe  Fe40      1.0  0.46315  0.87619  0.27398  1.0000
  S   S74       1.0  0.36987  0.89459  0.27726  1.0000
  S   S75       1.0  0.43669  0.90425  0.23463  1.0000
  H   H518      1.0  0.47110  0.86235  0.15826  1.0000
  H   H519      1.0  0.44539  0.68504  0.12356  1.0000
  C   C286      1.0  0.07322  0.71660  0.37467  1.0000
  H   H520      1.0  0.21040  0.79073  0.09115  1.0000
  H   H521      1.0  0.47757  0.74295  0.30991  1.0000
  C   C287      1.0  0.48334  0.79308  0.01350  1.0000
  H   H522      1.0  0.24390  0.80932  0.47101  1.0000
  C   C288      1.0  0.26721  0.83780  0.36198  1.0000
  C   C289      1.0  0.28199  0.85996  0.34045  1.0000
  C   C290      1.0  0.31600  0.86483  0.34126  1.0000
  C   C291      1.0  0.33556  0.84703  0.36306  1.0000
  C   C292      1.0  0.32061  0.82575  0.38533  1.0000
  C   C293      1.0  0.28653  0.82164  0.38524  1.0000
  H   H523      1.0  0.26715  0.87317  0.32288  1.0000
  H   H524      1.0  0.32685  0.88232  0.32496  1.0000
  H   H525      1.0  0.33545  0.81205  0.40243  1.0000
  H   H526      1.0  0.27530  0.80619  0.40337  1.0000
  H   H527      1.0  0.20586  0.68085  0.05108  1.0000
  N   N18       1.0  0.32258  0.92085  0.46093  1.0000
  H   H528      1.0  0.14119  0.75517  0.23823  1.0000
  H   H529      1.0  0.23896  0.84955  0.05311  1.0000
  H   H530      1.0  0.40936  0.70095  0.14281  1.0000
  H   H531      1.0  0.14244  0.70730  0.27427  1.0000
  H   H532      1.0  0.32328  0.88360  0.49894  1.0000
  C   C294      1.0  0.35759  0.83192  0.47587  1.0000
  C   C295      1.0  0.22489  0.69905  0.29105  1.0000
  H   H533      1.0  0.31295  0.71768  0.27395  1.0000
  S   S76       1.0  0.22840  0.67519  0.19476  1.0000
  C   C296      1.0  0.03683  0.69373  0.32005  1.0000
  C   C297      1.0  0.38172  0.72583  0.20619  1.0000
  C   C298      1.0  0.35269  0.74042  0.19537  1.0000
  C   C299      1.0  0.35032  0.77472  0.19294  1.0000
  C   C300      1.0  0.37661  0.79479  0.20213  1.0000
  C   C301      1.0  0.40563  0.78029  0.21324  1.0000
  C   C302      1.0  0.40818  0.74592  0.21519  1.0000
  H   H534      1.0  0.33166  0.72544  0.18990  1.0000
  H   H535      1.0  0.32759  0.78585  0.18520  1.0000
  H   H536      1.0  0.42629  0.79549  0.21991  1.0000
  H   H537      1.0  0.43077  0.73486  0.22352  1.0000
  H   H538      1.0  0.46087  0.78355  0.31386  1.0000
  C   C303      1.0  0.35611  0.97798  0.32785  1.0000
  H   H539      1.0  0.32754  0.70467  0.36499  1.0000
  C   C304      1.0  0.36245  0.74480  0.35717  1.0000
  H   H540      1.0  0.31613  0.97361  0.36173  1.0000
  H   H541      1.0  0.35591  0.95221  0.32153  1.0000
  H   H542      1.0  0.06872  0.72474  0.29192  1.0000
  C   C305      1.0  0.33764  0.89089  0.47711  1.0000
  H   H543      1.0  0.35288  0.86273  0.43361  1.0000
  H   H544      1.0  0.37088  0.69691  0.31760  1.0000
  C   C306      1.0  0.48172  0.77156  0.07180  1.0000
  H   H545      1.0  0.15874  0.69757  0.23463  1.0000
  H   H546      1.0  0.29414  0.96290  0.47693  1.0000
  C   C307      1.0  0.22392  0.70105  0.25672  1.0000
  H   H547      1.0  0.44903  0.80360  0.11719  1.0000
  C   C308      1.0  0.25557  0.69650  0.06311  1.0000
  C   C309      1.0  0.04622  0.69559  0.37894  1.0000
  H   H548      1.0  0.22452  0.74872  0.18184  1.0000
  H   H549      1.0  0.25383  0.68730  0.08861  1.0000
  C   C310      1.0  0.33506  0.78468  0.27536  1.0000
  H   H550      1.0  0.38240  0.72793  0.36470  1.0000
  C   C311      1.0  0.13604  0.70317  0.24814  1.0000
  C   C312      1.0  0.32289  0.70454  0.29561  1.0000
  H   H551      1.0  0.39706  0.78880  0.32231  1.0000
  H   H552      1.0  0.01256  0.73964  0.43384  1.0000
  H   H553      1.0  0.27213  0.94906  0.26512  1.0000
  C   C313      1.0  0.45606  0.75854  0.30412  1.0000
  C   C314      1.0  0.39434  0.76407  0.31091  1.0000
  H   H554      1.0  0.03326  0.76222  0.50273  1.0000
  H   H555      1.0  0.42969  0.74399  0.34661  1.0000
  C   C315      1.0  0.12276  0.73543  0.23449  1.0000
  C   C316      1.0  0.33126  0.73043  0.37300  1.0000
  C   C317      1.0  0.42541  0.74392  0.31977  1.0000
  H   H556      1.0  0.10125  0.74397  0.33958  1.0000
  H   H557      1.0  0.36782  0.76886  0.36916  1.0000
  C   C318      1.0  0.39499  0.69710  0.04856  1.0000
  C   C319      1.0  0.44425  0.73841  0.12867  1.0000
  H   H558      1.0  0.28955  0.97056  0.29946  1.0000
  C   C320      1.0  0.39214  0.95436  0.40397  1.0000
  H   H559      1.0  0.22202  0.72100  0.30559  1.0000
  H   H560      1.0  0.49113  0.72142  0.11187  1.0000
  H   H561      1.0  0.35420  0.80374  0.27173  1.0000
  C   C321      1.0  0.25427  0.80779  0.49538  1.0000
  H   H562      1.0  0.31486  0.84942  0.45127  1.0000
  C   C322      1.0  0.33533  0.77305  0.31141  1.0000
  H   H563      1.0  0.34464  0.82650  0.49912  1.0000
  H   H564      1.0  0.09994  0.74261  0.24718  1.0000
  C   C323      1.0  0.33979  0.85885  0.45683  1.0000
  H   H565      1.0  0.33652  0.75520  0.42014  1.0000
  H   H566      1.0  0.33774  0.79545  0.32646  1.0000
  H   H567      1.0  0.43604  0.83641  0.16637  1.0000
  H   H568      1.0  0.42317  0.71816  0.31125  1.0000
  C   C324      1.0  0.24964  0.73403  0.06120  1.0000
  H   H569      1.0  0.24979  0.78086  0.19886  1.0000
  H   H570      1.0  0.35819  0.80911  0.46101  1.0000
  C   C325      1.0  0.35823  0.71641  0.30327  1.0000
  C   C326      1.0  0.30222  0.79982  0.26578  1.0000
  H   H571      1.0  0.34015  0.76403  0.25864  1.0000
  H   H572      1.0  0.31070  0.76338  0.31723  1.0000
  H   H573      1.0  0.11118  0.76054  0.50315  1.0000
  H   H574      1.0  0.48738  0.74680  0.06179  1.0000
  H   H575      1.0  0.30938  0.74515  0.36680  1.0000
  H   H576      1.0  0.28242  0.78114  0.26704  1.0000
  H   H577      1.0  0.29629  0.82060  0.28229  1.0000
  H   H578      1.0  0.30354  0.80930  0.24035  1.0000
  H   H579      1.0  0.36256  0.89656  0.48673  1.0000
  C   C327      1.0  0.29755  0.91078  0.43551  1.0000
  C   C328      1.0  0.34881  0.94271  0.44670  1.0000
  C   C329      1.0  0.36559  0.93039  0.41511  1.0000
  C   C330      1.0  0.27763  0.93915  0.41977  1.0000
  C   C331      1.0  0.37804  0.99932  0.31248  1.0000
  C   C332      1.0  0.26034  0.92803  0.38845  1.0000
  H   H580      1.0  0.27939  0.89366  0.44656  1.0000
  H   H581      1.0  0.30909  0.89653  0.41548  1.0000
  C   C333      1.0  0.08104  0.72719  0.34313  1.0000
  H   H582      1.0  0.33899  0.96767  0.44152  1.0000
  H   H583      1.0  0.36865  0.94684  0.46498  1.0000
  H   H584      1.0  0.34776  0.92792  0.39468  1.0000
  H   H585      1.0  0.37774  0.90656  0.41933  1.0000
  H   H586      1.0  0.25851  0.94764  0.43703  1.0000
  H   H587      1.0  0.29329  0.96042  0.41354  1.0000
  H   H588      1.0  0.28023  0.69092  0.05351  1.0000
  N   N19       1.0  0.36192  0.74902  0.32045  1.0000
  C   C334      1.0  0.47593  0.80415  0.12175  1.0000
  H   H589      1.0  0.24499  0.90597  0.39304  1.0000
  H   H590      1.0  0.24441  0.94806  0.37918  1.0000
  H   H591      1.0  0.27864  0.92234  0.36931  1.0000
  C   C335      1.0  0.48165  0.80984  0.15885  1.0000
  N   N20       1.0  0.26733  0.75467  0.08651  1.0000
  C   C336      1.0  0.26267  0.79019  0.07713  1.0000
  C   C337      1.0  0.30332  0.74645  0.08457  1.0000
  H   H592      1.0  0.49006  0.82284  0.05618  1.0000
  C   C338      1.0  0.25375  0.74669  0.12002  1.0000
  C   C339      1.0  0.25509  0.77429  0.14637  1.0000
  H   H593      1.0  0.40260  0.94580  0.38042  1.0000
  S   S77       1.0  0.38544  0.68274  0.20910  1.0000
  C   C340      1.0  0.32620  0.76504  0.10843  1.0000
  C   C341      1.0  0.36202  0.75662  0.10252  1.0000
  N   N21       1.0  0.49202  0.77420  0.10730  1.0000
  H   H594      1.0  0.35593  0.71533  0.41810  1.0000
  H   H595      1.0  0.45337  0.75976  0.27708  1.0000
  H   H596      1.0  0.27585  0.79559  0.05389  1.0000
  H   H597      1.0  0.27404  0.80689  0.09534  1.0000
  H   H598      1.0  0.30759  0.72006  0.09002  1.0000
  H   H599      1.0  0.31239  0.75036  0.05914  1.0000
  C   C342      1.0  0.39031  0.70671  0.01588  1.0000
  H   H600      1.0  0.49293  0.74210  0.14979  1.0000
  H   H601      1.0  0.22756  0.73917  0.11838  1.0000
  H   H602      1.0  0.26621  0.72473  0.13018  1.0000
  H   H603      1.0  0.23599  0.79294  0.14134  1.0000
  H   H604      1.0  0.27878  0.78736  0.14706  1.0000
  H   H605      1.0  0.39525  0.76793  0.28399  1.0000
  H   H606      1.0  0.46662  0.84295  0.19754  1.0000
  H   H607      1.0  0.25658  0.74192  0.03601  1.0000
  H   H608      1.0  0.26803  0.74241  0.18737  1.0000
  H   H609      1.0  0.32380  0.79202  0.10617  1.0000
  H   H610      1.0  0.32071  0.75728  0.13373  1.0000
  H   H611      1.0  0.36633  0.73019  0.10747  1.0000
  H   H612      1.0  0.36919  0.76244  0.07698  1.0000
  H   H613      1.0  0.37762  0.77116  0.11953  1.0000
  H   H614      1.0  0.11776  0.73315  0.20784  1.0000
  C   C343      1.0  0.23117  0.67743  0.04195  1.0000
  H   H615      1.0  0.31510  0.95912  0.26523  1.0000
  C   C344      1.0  0.06257  0.71622  0.31610  1.0000
  C   C345      1.0  0.43629  0.70390  0.14088  1.0000
  H   H616      1.0  0.13081  0.79598  0.48577  1.0000
  C   C346      1.0  0.33431  0.72988  0.41032  1.0000
  C   C347      1.0  0.46265  0.83973  0.17083  1.0000
  C   C348      1.0  0.22662  0.80103  0.07203  1.0000
  H   H617      1.0  0.22004  0.72452  0.24496  1.0000
  C   C349      1.0  0.24895  0.76064  0.18063  1.0000
  C   C350      1.0  0.48165  0.74338  0.12492  1.0000
  C   C351      1.0  0.29043  0.96790  0.27244  1.0000
  H   H618      1.0  0.41215  0.95574  0.42240  1.0000
  H   H619      1.0  0.21758  0.79220  0.04787  1.0000
  H   H620      1.0  0.48480  0.82674  0.10939  1.0000
  H   H621      1.0  0.23074  0.84839  0.09664  1.0000
  H   H622      1.0  0.44731  0.69973  0.16543  1.0000
  H   H623      1.0  0.30565  0.70851  0.31598  1.0000
  H   H624      1.0  0.31211  0.71845  0.42103  1.0000
  C   C352      1.0  0.22340  0.83839  0.07238  1.0000
  H   H625      1.0  0.43402  0.75622  0.14642  1.0000
  H   H626      1.0  0.41601  0.70608  0.06195  1.0000
  H   H627      1.0  0.37095  0.71672  0.27917  1.0000
  H   H628      1.0  0.48891  0.80570  0.24631  1.0000
  H   H629      1.0  0.43140  0.74171  0.10506  1.0000
  C   C353      1.0  0.30492  0.94000  0.48713  1.0000
  C   C354      1.0  0.28243  0.00060  0.25588  1.0000
  H   H630      1.0  0.22273  0.73767  0.06299  1.0000
  H   H631      1.0  0.19756  0.84534  0.06760  1.0000
  S   S78       1.0  0.31102  0.67599  0.14924  1.0000
  C   C355      1.0  0.33358  0.99014  0.35076  1.0000
  H   H632      1.0  0.26629  0.85932  0.49783  1.0000
  H   H633      1.0  0.08929  0.68117  0.26013  1.0000
  C   C356      1.0  0.37296  0.67539  0.06383  1.0000
  H   H634      1.0  0.05761  0.73938  0.47398  1.0000
  H   H635      1.0  0.45644  0.79700  0.01274  1.0000
  H   H636      1.0  0.38184  0.97929  0.40019  1.0000
  H   H637      1.0  0.28397  0.92522  0.49664  1.0000
  S   S79       1.0  0.23909  0.74133  0.49358  1.0000
  H   H638      1.0  0.04542  0.78060  0.46419  1.0000
  C   C357      1.0  0.03751  0.75752  0.47632  1.0000
  H   H639      1.0  0.38315  0.83946  0.48139  1.0000
  C   C358      1.0  0.49642  0.79763  0.04829  1.0000
  H   H640      1.0  0.28083  0.99574  0.22919  1.0000
  H   H641      1.0  0.10099  0.67597  0.21920  1.0000
  C   C359      1.0  0.00661  0.74394  0.45995  1.0000
  H   H642      1.0  0.23260  0.68554  0.01604  1.0000
  C   C360      1.0  0.11068  0.67492  0.24467  1.0000
  C   C361      1.0  0.02826  0.68393  0.35171  1.0000
  H   H643      1.0  0.03978  0.68756  0.40329  1.0000
  H   H644      1.0  0.16314  0.67867  0.33734  1.0000
  H   H645      1.0  0.41946  0.88827  0.80341  1.0000
  C   C362      1.0  0.02430  0.89669  0.78302  1.0000
  C   C363      1.0  0.42256  0.95633  0.76331  1.0000
  Fe  Fe41      1.0  0.39831  0.77941  0.88113  1.0000
  S   S80       1.0  0.41416  0.73973  0.84677  1.0000
  S   S81       1.0  0.37707  0.82659  0.86115  1.0000
  Fe  Fe42      1.0  0.41577  0.73897  0.94209  1.0000
  S   S82       1.0  0.43363  0.69703  0.91155  1.0000
  H   H646      1.0  0.48975  0.79918  0.85670  1.0000
  Fe  Fe43      1.0  0.45764  0.73575  0.88032  1.0000
  H   H647      1.0  0.27915  0.78676  0.89075  1.0000
  Fe  Fe44      1.0  0.38840  0.70582  0.88153  1.0000
  C   C364      1.0  0.43205  0.93822  0.82091  1.0000
  S   S83       1.0  0.44317  0.77732  0.91316  1.0000
  S   S84       1.0  0.36925  0.74579  0.91374  1.0000
  Fe  Fe45      1.0  0.33687  0.86482  0.68103  1.0000
  S   S85       1.0  0.29570  0.88690  0.70948  1.0000
  S   S86       1.0  0.38219  0.84556  0.70695  1.0000
  Fe  Fe46      1.0  0.30172  0.87547  0.61543  1.0000
  S   S87       1.0  0.25911  0.89959  0.64003  1.0000
  S   S88       1.0  0.29754  0.87057  0.56016  1.0000
  Fe  Fe47      1.0  0.29650  0.92606  0.67093  1.0000
  S   S89       1.0  0.29083  0.97951  0.68611  1.0000
  Fe  Fe48      1.0  0.26319  0.85791  0.67570  1.0000
  S   S90       1.0  0.21799  0.83110  0.69343  1.0000
  S   S91       1.0  0.33922  0.90535  0.64354  1.0000
  S   S92       1.0  0.30429  0.83274  0.64980  1.0000
  C   C365      1.0  0.37816  0.83105  0.81828  1.0000
  C   C366      1.0  0.35611  0.85238  0.80286  1.0000
  C   C367      1.0  0.35714  0.85702  0.76880  1.0000
  C   C368      1.0  0.38021  0.84044  0.74987  1.0000
  C   C369      1.0  0.40252  0.81953  0.76543  1.0000
  C   C370      1.0  0.40161  0.81486  0.79946  1.0000
  H   H648      1.0  0.33819  0.86537  0.81730  1.0000
  H   H649      1.0  0.34036  0.87374  0.75737  1.0000
  H   H650      1.0  0.42026  0.80659  0.75105  1.0000
  H   H651      1.0  0.41950  0.79928  0.81115  1.0000
  H   H652      1.0  0.45487  0.84176  0.69742  1.0000
  C   C371      1.0  0.06669  0.69347  0.71642  1.0000
  H   H653      1.0  0.09275  0.68896  0.71656  1.0000
  H   H654      1.0  0.45322  0.93494  0.70756  1.0000
  C   C372      1.0  0.01852  0.71797  0.69070  1.0000
  H   H655      1.0  0.28695  0.94818  0.55282  1.0000
  C   C373      1.0  0.29865  0.79424  0.87344  1.0000
  H   H656      1.0  0.42437  0.90349  0.69588  1.0000
  C   C374      1.0  0.21295  0.71887  0.69345  1.0000
  C   C375      1.0  0.18770  0.73764  0.70669  1.0000
  C   C376      1.0  0.18904  0.77202  0.70531  1.0000
  C   C377      1.0  0.21567  0.78797  0.69089  1.0000
  C   C378      1.0  0.24014  0.76920  0.67612  1.0000
  C   C379      1.0  0.23879  0.73470  0.67742  1.0000
  H   H657      1.0  0.16708  0.72571  0.71802  1.0000
  H   H658      1.0  0.16978  0.78642  0.71619  1.0000
  H   H659      1.0  0.26041  0.78117  0.66426  1.0000
  H   H660      1.0  0.25819  0.72035  0.66664  1.0000
  C   C380      1.0  0.18102  0.81437  0.60423  1.0000
  H   H661      1.0  0.02055  0.88243  0.73286  1.0000
  H   H662      1.0  0.22868  0.83459  0.61745  1.0000
  H   H663      1.0  0.39991  0.89989  0.84079  1.0000
  H   H664      1.0  0.17019  0.76195  0.51682  1.0000
  H   H665      1.0  0.49056  0.79086  0.78290  1.0000
  H   H666      1.0  0.32248  0.79081  0.88591  1.0000
  C   C381      1.0  0.41245  0.99353  0.80900  1.0000
  H   H667      1.0  0.16602  0.80242  0.53388  1.0000
  H   H668      1.0  0.47570  0.83718  0.62518  1.0000
  H   H669      1.0  0.20241  0.69460  0.61335  1.0000
  H   H670      1.0  0.36085  0.97361  0.67506  1.0000
  S   S93       1.0  0.15616  0.68805  0.77559  1.0000
  H   H671      1.0  0.48266  0.89888  0.77486  1.0000
  C   C382      1.0  0.26881  0.77603  0.54322  1.0000
  C   C383      1.0  0.28098  0.80448  0.55869  1.0000
  C   C384      1.0  0.28040  0.83466  0.54237  1.0000
  C   C385      1.0  0.50290  0.84251  0.74464  1.0000
  C   C386      1.0  0.19037  0.72579  0.57074  1.0000
  H   H672      1.0  0.26985  0.75278  0.55589  1.0000
  H   H673      1.0  0.29148  0.80290  0.58295  1.0000
  H   H674      1.0  0.21565  0.77518  0.60779  1.0000
  H   H675      1.0  0.15325  0.68758  0.66054  1.0000
  N   N22       1.0  0.25710  0.75800  0.79440  1.0000
  C   C387      1.0  0.27285  0.72451  0.79481  1.0000
  C   C388      1.0  0.26296  0.77568  0.82644  1.0000
  C   C389      1.0  0.22058  0.75270  0.79122  1.0000
  C   C390      1.0  0.26818  0.77849  0.76580  1.0000
  C   C391      1.0  0.30560  0.78129  0.76040  1.0000
  C   C392      1.0  0.26929  0.70416  0.76284  1.0000
  C   C393      1.0  0.19910  0.78411  0.79263  1.0000
  C   C394      1.0  0.29734  0.77343  0.84232  1.0000
  C   C395      1.0  0.31321  0.78975  0.72494  1.0000
  H   H676      1.0  0.47389  0.87444  0.64946  1.0000
  C   C396      1.0  0.16268  0.77552  0.79222  1.0000
  H   H677      1.0  0.26238  0.70966  0.81487  1.0000
  H   H678      1.0  0.29927  0.72585  0.80074  1.0000
  H   H679      1.0  0.25749  0.80230  0.82368  1.0000
  H   H680      1.0  0.24581  0.76616  0.84542  1.0000
  H   H681      1.0  0.21189  0.73565  0.81072  1.0000
  H   H682      1.0  0.21448  0.74045  0.76775  1.0000
  H   H683      1.0  0.25669  0.76913  0.74294  1.0000
  H   H684      1.0  0.25893  0.80408  0.76779  1.0000
  H   H685      1.0  0.31922  0.75858  0.76595  1.0000
  H   H686      1.0  0.31557  0.80127  0.77589  1.0000
  C   C397      1.0  0.30499  0.96635  0.54352  1.0000
  H   H687      1.0  0.27684  0.71840  0.74105  1.0000
  H   H688      1.0  0.20405  0.80020  0.77128  1.0000
  H   H689      1.0  0.20365  0.79835  0.81531  1.0000
  H   H690      1.0  0.30290  0.74791  0.84960  1.0000
  H   H691      1.0  0.31688  0.78197  0.82580  1.0000
  C   C398      1.0  0.50478  0.82395  0.68597  1.0000
  H   H692      1.0  0.30357  0.77055  0.70818  1.0000
  H   H693      1.0  0.30232  0.81382  0.71857  1.0000
  H   H694      1.0  0.34004  0.79096  0.72151  1.0000
  H   H695      1.0  0.17335  0.70728  0.56007  1.0000
  H   H696      1.0  0.23320  0.72475  0.60396  1.0000
  H   H697      1.0  0.24358  0.69617  0.75942  1.0000
  H   H698      1.0  0.15636  0.76017  0.81378  1.0000
  H   H699      1.0  0.14801  0.79839  0.79312  1.0000
  H   H700      1.0  0.15607  0.76202  0.76957  1.0000
  H   H701      1.0  0.37233  0.92117  0.79445  1.0000
  C   C399      1.0  0.13052  0.70030  0.65294  1.0000
  H   H702      1.0  0.29874  0.96580  0.76652  1.0000
  H   H703      1.0  0.12863  0.74123  0.55848  1.0000
  C   C400      1.0  0.31604  0.95137  0.78186  1.0000
  H   H704      1.0  0.30704  0.95125  0.80746  1.0000
  H   H705      1.0  0.42888  0.90340  0.75474  1.0000
  C   C401      1.0  0.09568  0.79231  0.71640  1.0000
  C   C402      1.0  0.23410  0.68174  0.57387  1.0000
  N   N23       1.0  0.41043  0.95810  0.79811  1.0000
  H   H706      1.0  0.20799  0.78786  0.56723  1.0000
  H   H707      1.0  0.44946  0.96040  0.76252  1.0000
  C   C403      1.0  0.46804  0.82919  0.67736  1.0000
  H   H708      1.0  0.32072  0.97417  0.56436  1.0000
  H   H709      1.0  0.09364  0.76514  0.71574  1.0000
  H   H710      1.0  0.12497  0.71988  0.67095  1.0000
  H   H711      1.0  0.25409  0.71574  0.89552  1.0000
  C   C404      1.0  0.20650  0.84182  0.60340  1.0000
  H   H712      1.0  0.15962  0.82269  0.58974  1.0000
  H   H713      1.0  0.29180  0.98816  0.53393  1.0000
  S   S94       1.0  0.21245  0.67574  0.69670  1.0000
  H   H714      1.0  0.38910  0.91844  0.74305  1.0000
  H   H715      1.0  0.45217  0.89505  0.87091  1.0000
  H   H716      1.0  0.47575  0.72292  0.75340  1.0000
  S   S95       1.0  0.41848  0.73399  0.99742  1.0000
  H   H717      1.0  0.19623  0.86435  0.61462  1.0000
  C   C405      1.0  0.37520  0.94739  0.80110  1.0000
  H   H718      1.0  0.46534  0.78996  0.72600  1.0000
  H   H719      1.0  0.43224  0.94922  0.84592  1.0000
  H   H720      1.0  0.17881  0.73956  0.63658  1.0000
  C   C406      1.0  0.15853  0.74431  0.61903  1.0000
  H   H721      1.0  0.21364  0.84748  0.57781  1.0000
  H   H722      1.0  0.06731  0.72301  0.67244  1.0000
  C   C407      1.0  0.19559  0.78208  0.59069  1.0000
  H   H723      1.0  0.14475  0.76501  0.63006  1.0000
  H   H724      1.0  0.20443  0.73482  0.54950  1.0000
  H   H725      1.0  0.29602  0.82069  0.86739  1.0000
  H   H726      1.0  0.12710  0.78053  0.57650  1.0000
  C   C408      1.0  0.04722  0.68041  0.74127  1.0000
  H   H727      1.0  0.00736  0.75473  0.77796  1.0000
  C   C409      1.0  0.03691  0.79608  0.73646  1.0000
  H   H728      1.0  0.31425  0.70905  0.89756  1.0000
  C   C410      1.0  0.02743  0.87061  0.75632  1.0000
  C   C411      1.0  0.15358  0.77840  0.53052  1.0000
  H   H729      1.0  0.45592  0.80506  0.67333  1.0000
  H   H730      1.0  0.05384  0.80161  0.68593  1.0000
  H   H731      1.0  0.31664  0.67978  0.76703  1.0000
  H   H732      1.0  0.43705  0.85175  0.64059  1.0000
  H   H733      1.0  0.03304  0.76983  0.73002  1.0000
  H   H734      1.0  0.06578  0.83519  0.71182  1.0000
  H   H735      1.0  0.47681  0.84040  0.75224  1.0000
  H   H736      1.0  0.24811  0.69347  0.55376  1.0000
  H   H737      1.0  0.17346  0.81120  0.63010  1.0000
  C   C412      1.0  0.35677  0.99438  0.69097  1.0000
  H   H738      1.0  0.03163  0.88655  0.80721  1.0000
  C   C413      1.0  0.21513  0.70752  0.59315  1.0000
  H   H739      1.0  0.35737  0.96714  0.75407  1.0000
  H   H740      1.0  0.36730  0.94908  0.82711  1.0000
  C   C414      1.0  0.41557  0.92432  0.74397  1.0000
  H   H741      1.0  0.01482  0.83047  0.78740  1.0000
  C   C415      1.0  0.42295  0.90169  0.82657  1.0000
  C   C416      1.0  0.47161  0.74335  0.77088  1.0000
  C   C417      1.0  0.13455  0.71470  0.61875  1.0000
  C   C418      1.0  0.42712  0.92744  0.70856  1.0000
  C   C419      1.0  0.06227  0.80828  0.71099  1.0000
  H   H742      1.0  0.14281  0.69455  0.60263  1.0000
  H   H743      1.0  0.41209  0.94572  0.69520  1.0000
  H   H744      1.0  0.11012  0.72288  0.60994  1.0000
  C   C420      1.0  0.49558  0.77147  0.76461  1.0000
  C   C421      1.0  0.44957  0.88403  0.84617  1.0000
  H   H745      1.0  0.10619  0.79992  0.74034  1.0000
  H   H746      1.0  0.45794  0.93914  0.81266  1.0000
  H   H747      1.0  0.48733  0.88448  0.71474  1.0000
  H   H748      1.0  0.44298  0.85774  0.84910  1.0000
  H   H749      1.0  0.47336  0.88544  0.83333  1.0000
  C   C422      1.0  0.35007  0.96679  0.78009  1.0000
  H   H750      1.0  0.31641  0.92587  0.77236  1.0000
  C   C423      1.0  0.36323  0.69459  0.99860  1.0000
  N   N24       1.0  0.17201  0.75389  0.58617  1.0000
  H   H751      1.0  0.35930  0.70181  0.97344  1.0000
  C   C424      1.0  0.14394  0.76322  0.56398  1.0000
  H   H752      1.0  0.49436  0.70078  0.97129  1.0000
  H   H753      1.0  0.33936  0.93004  0.52816  1.0000
  H   H754      1.0  0.05348  0.86318  0.75561  1.0000
  C   C425      1.0  0.26543  0.69530  0.88309  1.0000
  H   H755      1.0  0.44593  0.75196  0.76865  1.0000
  H   H756      1.0  0.11267  0.80015  0.69676  1.0000
  H   H757      1.0  0.41220  0.97688  0.74880  1.0000
  C   C426      1.0  0.49178  0.78503  0.72929  1.0000
  C   C427      1.0  0.29962  0.69178  0.88392  1.0000
  C   C428      1.0  0.46359  0.84939  0.64618  1.0000
  H   H758      1.0  0.04892  0.79550  0.76098  1.0000
  H   H759      1.0  0.10579  0.80067  0.52161  1.0000
  H   H760      1.0  0.49747  0.76472  0.71194  1.0000
  C   C429      1.0  0.05233  0.71242  0.69140  1.0000
  H   H761      1.0  0.01349  0.84479  0.69557  1.0000
  C   C430      1.0  0.01348  0.68675  0.74103  1.0000
  H   H762      1.0  0.49501  0.81112  0.99684  1.0000
  H   H763      1.0  0.34773  0.99247  0.78878  1.0000
  S   S96       1.0  0.20421  0.68170  0.85912  1.0000
  H   H764      1.0  0.34440  0.96959  0.50922  1.0000
  H   H765      1.0  0.04054  0.91781  0.77732  1.0000
  H   H766      1.0  0.46479  0.99388  0.82412  1.0000
  H   H767      1.0  0.47527  0.73382  0.79609  1.0000
  C   C431      1.0  0.26703  0.83613  0.51063  1.0000
  H   H768      1.0  0.48874  0.76798  0.00450  1.0000
  H   H769      1.0  0.49571  0.74043  0.95189  1.0000
  C   C432      1.0  0.12338  0.78421  0.50910  1.0000
  H   H770      1.0  0.40151  0.99634  0.83379  1.0000
  C   C433      1.0  0.00558  0.84052  0.76384  1.0000
  C   C434      1.0  0.25518  0.77756  0.51161  1.0000
  C   C435      1.0  0.32488  0.00267  0.69988  1.0000
  C   C436      1.0  0.32613  0.95095  0.51688  1.0000
  H   H771      1.0  0.11032  0.68202  0.65288  1.0000
  H   H772      1.0  0.50392  0.70376  0.92843  1.0000
  H   H773      1.0  0.40800  0.00647  0.69570  1.0000
  Fe  Fe49      1.0  0.67329  0.11601  0.29134  1.0000
  S   S97       1.0  0.65243  0.14253  0.33452  1.0000
  S   S98       1.0  0.67817  0.06044  0.29275  1.0000
  Fe  Fe50      1.0  0.68555  0.18070  0.25439  1.0000
  S   S99       1.0  0.66655  0.21098  0.29587  1.0000
  S   S100      1.0  0.70489  0.20456  0.20822  1.0000
  Fe  Fe51      1.0  0.69517  0.17660  0.32784  1.0000
  S   S101      1.0  0.72598  0.19271  0.37111  1.0000
  Fe  Fe52      1.0  0.62599  0.17384  0.29732  1.0000
  S   S102      1.0  0.57319  0.19048  0.30318  1.0000
  S   S103      1.0  0.71709  0.14865  0.28628  1.0000
  S   S104      1.0  0.64366  0.14475  0.25427  1.0000
  H   H774      1.0  0.58422  0.18662  0.23295  1.0000
  Fe  Fe53      1.0  0.95644  0.28137  0.41388  1.0000
  H   H775      1.0  0.86080  0.11833  0.28016  1.0000
  Fe  Fe54      1.0  0.89916  0.24210  0.38586  1.0000
  S   S105      1.0  0.86204  0.27824  0.40344  1.0000
  S   S106      1.0  0.87998  0.20063  0.35490  1.0000
  Fe  Fe55      1.0  0.89727  0.31608  0.38537  1.0000
  Fe  Fe56      1.0  0.89125  0.27753  0.45000  1.0000
  H   H776      1.0  0.78400  0.11415  0.27063  1.0000
  S   S107      1.0  0.93260  0.27997  0.36433  1.0000
  S   S108      1.0  0.92673  0.23897  0.43357  1.0000
  H   H777      1.0  0.72247  0.22651  0.49211  1.0000
  H   H778      1.0  0.72795  0.26228  0.01767  1.0000
  C   C437      1.0  0.77109  0.27968  0.07320  1.0000
  C   C438      1.0  0.83840  0.12116  0.39241  1.0000
  H   H779      1.0  0.69606  0.17457  0.46840  1.0000
  H   H780      1.0  0.54322  0.30686  0.18805  1.0000
  N   N25       1.0  0.71576  0.12606  0.47747  1.0000
  C   C439      1.0  0.61465  0.33108  0.15210  1.0000
  H   H781      1.0  0.67970  0.08716  0.47280  1.0000
  H   H782      1.0  0.78145  0.05462  0.44083  1.0000
  H   H783      1.0  0.75019  0.26575  0.40673  1.0000
  C   C440      1.0  0.70492  0.04242  0.32191  1.0000
  C   C441      1.0  0.72122  0.06145  0.34544  1.0000
  H   H784      1.0  0.76544  0.23118  0.48356  1.0000
  H   H785      1.0  0.77963  0.22171  0.24681  1.0000
  N   N26       1.0  0.77096  0.31096  0.32106  1.0000
  H   H786      1.0  0.71736  0.08771  0.34616  1.0000
  H   H787      1.0  0.75545  0.06149  0.38578  1.0000
  H   H788      1.0  0.79651  0.08206  0.34330  1.0000
  C   C442      1.0  0.70927  0.24767  0.20809  1.0000
  C   C443      1.0  0.69342  0.26745  0.23100  1.0000
  C   C444      1.0  0.69760  0.30168  0.23052  1.0000
  C   C445      1.0  0.71763  0.31649  0.20708  1.0000
  C   C446      1.0  0.73234  0.29682  0.18327  1.0000
  C   C447      1.0  0.72835  0.26257  0.18391  1.0000
  H   H789      1.0  0.67758  0.25648  0.24877  1.0000
  H   H790      1.0  0.68500  0.31682  0.24813  1.0000
  H   H791      1.0  0.74620  0.30786  0.16390  1.0000
  H   H792      1.0  0.74037  0.24753  0.16587  1.0000
  C   C448      1.0  0.76886  0.19334  0.36608  1.0000
  C   C449      1.0  0.78348  0.18671  0.33590  1.0000
  C   C450      1.0  0.81762  0.18883  0.33244  1.0000
  C   C451      1.0  0.83727  0.19797  0.35911  1.0000
  C   C452      1.0  0.82276  0.20404  0.38938  1.0000
  C   C453      1.0  0.78876  0.20144  0.39287  1.0000
  H   H793      1.0  0.76858  0.18095  0.31491  1.0000
  H   H794      1.0  0.82871  0.18412  0.30893  1.0000
  H   H795      1.0  0.83781  0.21018  0.41037  1.0000
  H   H796      1.0  0.77795  0.20611  0.41637  1.0000
  C   C454      1.0  0.55120  0.20583  0.26897  1.0000
  H   H797      1.0  0.77122  0.17390  0.46931  1.0000
  C   C455      1.0  0.78475  0.29527  0.29063  1.0000
  H   H798      1.0  0.96083  0.31098  0.18067  1.0000
  C   C456      1.0  0.54438  0.21314  0.21033  1.0000
  C   C457      1.0  0.56209  0.20046  0.23706  1.0000
  H   H799      1.0  0.78750  0.26232  0.23124  1.0000
  H   H800      1.0  0.55293  0.20877  0.18578  1.0000
  S   S109      1.0  0.92302  0.31990  0.43395  1.0000
  C   C458      1.0  0.59416  0.27415  0.16171  1.0000
  C   C459      1.0  0.62116  0.25076  0.17506  1.0000
  C   C460      1.0  0.62372  0.21954  0.15449  1.0000
  H   H801      1.0  0.57055  0.26194  0.16764  1.0000
  H   H802      1.0  0.59485  0.27368  0.13453  1.0000
  H   H803      1.0  0.61543  0.24328  0.20053  1.0000
  H   H804      1.0  0.64560  0.26216  0.17560  1.0000
  H   H805      1.0  0.67244  0.15947  0.10672  1.0000
  H   H806      1.0  0.86524  0.13416  0.33660  1.0000
  H   H807      1.0  0.85951  0.13797  0.38923  1.0000
  H   H808      1.0  0.64196  0.20275  0.16575  1.0000
  H   H809      1.0  0.59986  0.20656  0.15326  1.0000
  H   H810      1.0  0.63180  0.22548  0.12930  1.0000
  H   H811      1.0  0.89755  0.10628  0.34528  1.0000
  C   C461      1.0  0.86293  0.04992  0.33488  1.0000
  C   C462      1.0  0.84661  0.08653  0.37902  1.0000
  C   C463      1.0  0.88250  0.11009  0.29434  1.0000
  H   H812      1.0  0.72670  0.31793  0.29258  1.0000
  C   C464      1.0  0.71296  0.28626  0.33298  1.0000
  H   H813      1.0  0.90225  0.15993  0.29534  1.0000
  C   C465      1.0  0.67659  0.29210  0.32650  1.0000
  H   H814      1.0  0.66411  0.12689  0.46578  1.0000
  H   H815      1.0  0.77072  0.26645  0.35046  1.0000
  H   H816      1.0  0.71599  0.28472  0.35988  1.0000
  H   H817      1.0  0.71955  0.26202  0.32275  1.0000
  H   H818      1.0  0.58286  0.05768  0.29774  1.0000
  H   H819      1.0  0.51589  0.15757  0.33171  1.0000
  H   H820      1.0  0.77516  0.24348  0.30292  1.0000
  H   H821      1.0  0.74573  0.26160  0.27544  1.0000
  C   C466      1.0  0.73415  0.31449  0.31858  1.0000
  C   C467      1.0  0.78166  0.29139  0.35062  1.0000
  H   H822      1.0  0.64610  0.30284  0.06164  1.0000
  H   H823      1.0  0.66885  0.31620  0.33649  1.0000
  H   H824      1.0  0.54253  0.29897  0.12723  1.0000
  C   C468      1.0  0.52199  0.22337  0.27376  1.0000
  H   H825      1.0  0.86971  0.07853  0.39125  1.0000
  H   H826      1.0  0.75152  0.32234  0.38339  1.0000
  H   H827      1.0  0.89055  0.30317  0.31475  1.0000
  C   C469      1.0  0.88532  0.32413  0.29952  1.0000
  C   C470      1.0  0.65714  0.08897  0.41064  1.0000
  H   H828      1.0  0.66086  0.30356  0.14887  1.0000
  C   C471      1.0  0.68589  0.11118  0.46138  1.0000
  C   C472      1.0  0.83141  0.12047  0.42904  1.0000
  H   H829      1.0  0.82708  0.06976  0.38814  1.0000
  H   H830      1.0  0.85287  0.11099  0.44285  1.0000
  H   H831      1.0  0.82603  0.14573  0.43774  1.0000
  H   H832      1.0  0.80991  0.10483  0.43399  1.0000
  H   H833      1.0  0.88851  0.04772  0.34424  1.0000
  H   H834      1.0  0.86480  0.04562  0.30821  1.0000
  H   H835      1.0  0.67134  0.29130  0.29988  1.0000
  H   H836      1.0  0.73679  0.22369  0.45053  1.0000
  H   H837      1.0  0.77290  0.28366  0.04644  1.0000
  C   C473      1.0  0.80929  0.07292  0.29339  1.0000
  H   H838      1.0  0.77604  0.22663  0.07723  1.0000
  H   H839      1.0  0.65382  0.06467  0.42249  1.0000
  N   N27       1.0  0.84969  0.08368  0.34221  1.0000
  C   C474      1.0  0.77946  0.08792  0.27654  1.0000
  N   N28       1.0  0.72567  0.23590  0.06388  1.0000
  C   C475      1.0  0.71692  0.20146  0.07449  1.0000
  H   H840      1.0  0.60057  0.09743  0.28930  1.0000
  C   C476      1.0  0.75675  0.24542  0.08169  1.0000
  C   C477      1.0  0.69950  0.26029  0.07285  1.0000
  C   C478      1.0  0.66467  0.25284  0.05980  1.0000
  C   C479      1.0  0.71089  0.19642  0.11170  1.0000
  C   C480      1.0  0.84292  0.21368  0.49919  1.0000
  H   H841      1.0  0.57348  0.27233  0.22586  1.0000
  C   C481      1.0  0.64016  0.27830  0.07179  1.0000
  H   H842      1.0  0.80496  0.28035  0.11468  1.0000
  H   H843      1.0  0.81461  0.30890  0.08244  1.0000
  H   H844      1.0  0.73676  0.18422  0.06725  1.0000
  H   H845      1.0  0.69476  0.19246  0.06154  1.0000
  H   H846      1.0  0.64042  0.27947  0.09884  1.0000
  H   H847      1.0  0.89085  0.08596  0.28516  1.0000
  C   C482      1.0  0.73246  0.23712  0.02739  1.0000
  H   H848      1.0  0.75292  0.24591  0.10857  1.0000
  H   H849      1.0  0.69834  0.26369  0.09984  1.0000
  H   H850      1.0  0.70594  0.28495  0.06331  1.0000
  H   H851      1.0  0.65587  0.22850  0.06811  1.0000
  H   H852      1.0  0.00475  0.28362  0.30789  1.0000
  H   H853      1.0  0.73418  0.19836  0.12566  1.0000
  H   H854      1.0  0.69348  0.21466  0.12157  1.0000
  H   H855      1.0  0.51203  0.12235  0.35645  1.0000
  H   H856      1.0  0.80398  0.04647  0.29718  1.0000
  H   H857      1.0  0.89031  0.29703  0.25442  1.0000
  H   H858      1.0  0.60753  0.07803  0.32827  1.0000
  H   H859      1.0  0.98296  0.32735  0.36851  1.0000
  H   H860      1.0  0.79367  0.26806  0.41443  1.0000
  C   C483      1.0  0.58923  0.08191  0.30847  1.0000
  H   H861      1.0  0.69358  0.15929  0.14549  1.0000
  H   H862      1.0  0.75883  0.23235  0.02240  1.0000
  H   H863      1.0  0.65955  0.08494  0.38386  1.0000
  H   H864      1.0  0.72337  0.18727  0.00898  1.0000
  C   C484      1.0  0.55886  0.09863  0.32229  1.0000
  H   H865      1.0  0.81664  0.13138  0.37970  1.0000
  C   C485      1.0  0.79013  0.24613  0.25298  1.0000
  H   H866      1.0  0.56680  0.12207  0.33383  1.0000
  C   C486      1.0  0.77197  0.26054  0.28222  1.0000
  C   C487      1.0  0.68789  0.10599  0.42374  1.0000
  H   H867      1.0  0.66197  0.27259  0.33860  1.0000
  C   C488      1.0  0.71019  0.00834  0.32134  1.0000
  S   S110      1.0  0.86811  0.27722  0.50042  1.0000
  H   H868      1.0  0.62159  0.26984  0.26249  1.0000
  H   H869      1.0  0.82253  0.26587  0.07672  1.0000
  H   H870      1.0  0.81651  0.24306  0.25887  1.0000
  H   H871      1.0  0.51105  0.04739  0.32850  1.0000
  C   C489      1.0  0.88490  0.32060  0.26530  1.0000
  H   H872      1.0  0.69026  0.12978  0.41073  1.0000
  H   H873      1.0  0.53258  0.08458  0.27776  1.0000
  H   H874      1.0  0.96572  0.26782  0.17278  1.0000
  H   H875      1.0  0.58504  0.27825  0.28510  1.0000
  H   H876      1.0  0.66425  0.25391  0.03273  1.0000
  H   H877      1.0  0.77412  0.07458  0.25341  1.0000
  H   H878      1.0  0.81264  0.11685  0.32369  1.0000
  C   C490      1.0  0.53336  0.10589  0.29485  1.0000
  H   H879      1.0  0.79473  0.32481  0.39068  1.0000
  C   C491      1.0  0.51601  0.23188  0.21506  1.0000
  H   H880      1.0  0.72405  0.16131  0.43864  1.0000
  C   C492      1.0  0.77713  0.05290  0.46756  1.0000
  C   C493      1.0  0.71941  0.16088  0.46544  1.0000
  H   H881      1.0  0.81200  0.29428  0.29235  1.0000
  C   C494      1.0  0.74280  0.04653  0.36789  1.0000
  C   C495      1.0  0.81656  0.08996  0.32673  1.0000
  C   C496      1.0  0.90977  0.13491  0.28758  1.0000
  C   C497      1.0  0.87426  0.10909  0.33122  1.0000
  H   H882      1.0  0.85460  0.21084  0.47567  1.0000
  C   C498      1.0  0.60229  0.28845  0.26677  1.0000
  H   H883      1.0  0.71352  0.14295  0.10980  1.0000
  H   H884      1.0  0.61350  0.31119  0.27681  1.0000
  H   H885      1.0  0.93252  0.12802  0.30085  1.0000
  H   H886      1.0  0.82995  0.07454  0.27616  1.0000
  C   C499      1.0  0.80538  0.28380  0.08772  1.0000
  H   H887      1.0  0.75253  0.11063  0.44276  1.0000
  H   H888      1.0  0.63107  0.30155  0.21171  1.0000
  C   C500      1.0  0.69675  0.16240  0.11866  1.0000
  H   H889      1.0  0.81667  0.02454  0.34604  1.0000
  H   H890      1.0  0.92196  0.17553  0.47965  1.0000
  H   H891      1.0  0.70893  0.09036  0.41702  1.0000
  H   H892      1.0  0.91504  0.13555  0.26095  1.0000
  C   C501      1.0  0.84325  0.02100  0.34975  1.0000
  H   H893      1.0  0.63521  0.10439  0.41496  1.0000
  H   H894      1.0  0.75549  0.29927  0.08369  1.0000
  C   C502      1.0  0.58389  0.29568  0.23498  1.0000
  C   C503      1.0  0.54354  0.32379  0.13845  1.0000
  H   H895      1.0  0.77912  0.31027  0.26856  1.0000
  H   H896      1.0  0.61517  0.27147  0.06342  1.0000
  C   C504      1.0  0.77439  0.30777  0.38421  1.0000
  C   C505      1.0  0.74277  0.21782  0.47639  1.0000
  H   H897      1.0  0.51341  0.12277  0.23517  1.0000
  C   C506      1.0  0.74629  0.10724  0.46901  1.0000
  H   H898      1.0  0.76766  0.11746  0.48273  1.0000
  H   H899      1.0  0.51319  0.22739  0.29836  1.0000
  H   H900      1.0  0.76643  0.29544  0.43526  1.0000
  C   C507      1.0  0.77099  0.28264  0.41174  1.0000
  H   H901      1.0  0.80855  0.28680  0.34978  1.0000
  H   H902      1.0  0.54460  0.12648  0.28079  1.0000
  H   H903      1.0  0.56316  0.31224  0.24085  1.0000
  H   H904      1.0  0.66011  0.33502  0.18014  1.0000
  C   C508      1.0  0.60623  0.31200  0.20895  1.0000
  C   C509      1.0  0.55973  0.32227  0.17286  1.0000
  H   H905      1.0  0.54919  0.08283  0.34193  1.0000
  H   H906      1.0  0.75765  0.08597  0.29246  1.0000
  H   H907      1.0  0.98992  0.29711  0.15035  1.0000
  C   C510      1.0  0.74779  0.18093  0.48102  1.0000
  N   N29       1.0  0.59432  0.30921  0.17403  1.0000
  C   C511      1.0  0.50861  0.33678  0.14066  1.0000
  H   H908      1.0  0.96234  0.27382  0.50075  1.0000
  C   C512      1.0  0.74515  0.06985  0.47661  1.0000
  H   H909      1.0  0.79806  0.06397  0.48109  1.0000
  H   H910      1.0  0.77567  0.02645  0.47402  1.0000
  H   H911      1.0  0.74118  0.06554  0.50309  1.0000
  H   H912      1.0  0.72530  0.05745  0.46271  1.0000
  H   H913      1.0  0.68721  0.21203  0.00985  1.0000
  H   H914      1.0  0.72589  0.33725  0.33118  1.0000
  C   C513      1.0  0.65223  0.32841  0.15509  1.0000
  H   H915      1.0  0.99265  0.28342  0.22417  1.0000
  H   H916      1.0  0.84798  0.01928  0.37651  1.0000
  H   H917      1.0  0.60867  0.32649  0.12592  1.0000
  C   C514      1.0  0.74824  0.01250  0.36719  1.0000
  H   H918      1.0  0.82550  0.16358  0.50112  1.0000
  C   C515      1.0  0.97894  0.29161  0.17456  1.0000
  H   H919      1.0  0.00456  0.33963  0.21360  1.0000
  C   C516      1.0  0.71073  0.33094  0.00543  1.0000
  H   H920      1.0  0.60898  0.33832  0.21592  1.0000
  C   C517      1.0  0.91736  0.16586  0.50461  1.0000
  H   H921      1.0  0.89150  0.15757  0.50583  1.0000
  H   H922      1.0  0.82551  0.24558  0.86428  1.0000
  H   H923      1.0  0.88511  0.18265  0.76812  1.0000
  H   H924      1.0  0.92914  0.15709  0.56788  1.0000
  Fe  Fe57      1.0  0.74811  0.16506  0.68145  1.0000
  S   S111      1.0  0.78736  0.14345  0.71320  1.0000
  S   S112      1.0  0.70207  0.18526  0.70425  1.0000
  Fe  Fe58      1.0  0.78641  0.15310  0.61800  1.0000
  S   S113      1.0  0.82745  0.12938  0.64592  1.0000
  S   S114      1.0  0.79195  0.15579  0.56250  1.0000
  Fe  Fe59      1.0  0.78834  0.10369  0.67524  1.0000
  S   S115      1.0  0.79029  0.04912  0.68729  1.0000
  Fe  Fe60      1.0  0.82160  0.17157  0.68080  1.0000
  S   S116      1.0  0.86594  0.19862  0.70053  1.0000
  S   S117      1.0  0.74753  0.12409  0.64449  1.0000
  S   S118      1.0  0.78227  0.19641  0.65163  1.0000
  Fe  Fe61      1.0  0.70392  0.32753  0.86805  1.0000
  S   S119      1.0  0.72303  0.28980  0.90310  1.0000
  S   S120      1.0  0.67700  0.31115  0.98626  1.0000
  Fe  Fe62      1.0  0.63408  0.29911  0.86927  1.0000
  S   S121      1.0  0.64797  0.26076  0.90616  1.0000
  S   S122      1.0  0.58268  0.30221  0.84789  1.0000
  Fe  Fe63      1.0  0.67743  0.30052  0.93142  1.0000
  C   C518      1.0  0.53345  0.26990  0.81462  1.0000
  Fe  Fe64      1.0  0.69191  0.25438  0.87404  1.0000
  S   S123      1.0  0.70850  0.20409  0.85801  1.0000
  H   H925      1.0  0.93932  0.28349  0.53699  1.0000
  S   S124      1.0  0.67705  0.29147  0.83638  1.0000
  C   C519      1.0  0.81210  0.18996  0.54474  1.0000
  C   C520      1.0  0.81328  0.22032  0.56062  1.0000
  C   C521      1.0  0.82922  0.24714  0.54592  1.0000
  H   H926      1.0  0.54024  0.04785  0.76668  1.0000
  H   H927      1.0  0.92954  0.20125  0.64557  1.0000
  H   H928      1.0  0.52751  0.28303  0.89180  1.0000
  H   H929      1.0  0.80173  0.22325  0.58418  1.0000
  H   H930      1.0  0.82983  0.27054  0.55837  1.0000
  H   H931      1.0  0.88937  0.17384  0.56553  1.0000
  C   C522      1.0  0.70161  0.18768  0.74739  1.0000
  C   C523      1.0  0.72107  0.16719  0.76683  1.0000
  C   C524      1.0  0.72196  0.17132  0.80097  1.0000
  C   C525      1.0  0.70327  0.19589  0.81587  1.0000
  C   C526      1.0  0.68164  0.21430  0.79671  1.0000
  C   C527      1.0  0.68108  0.21047  0.76258  1.0000
  H   H932      1.0  0.73540  0.14809  0.75570  1.0000
  H   H933      1.0  0.73783  0.15603  0.81572  1.0000
  H   H934      1.0  0.66541  0.23166  0.80804  1.0000
  H   H935      1.0  0.66523  0.22583  0.74787  1.0000
  C   C528      1.0  0.98996  0.29990  0.53867  1.0000
  H   H936      1.0  0.94740  0.14397  0.61918  1.0000
  C   C529      1.0  0.73668  0.04770  0.72909  1.0000
  H   H937      1.0  0.87497  0.22452  0.58997  1.0000
  H   H938      1.0  0.73485  0.07390  0.72525  1.0000
  H   H939      1.0  0.69518  0.04531  0.76158  1.0000
  H   H940      1.0  0.88012  0.29720  0.58366  1.0000
  H   H941      1.0  0.58378  0.08605  0.81512  1.0000
  C   C530      1.0  0.78759  0.23184  0.82825  1.0000
  H   H942      1.0  0.91004  0.19201  0.80336  1.0000
  H   H943      1.0  0.95014  0.19975  0.52776  1.0000
  C   C531      1.0  0.71838  0.22091  0.96884  1.0000
  C   C532      1.0  0.79316  0.33962  0.86576  1.0000
  H   H944      1.0  0.60425  0.23427  0.84009  1.0000
  C   C533      1.0  0.91628  0.18820  0.62553  1.0000
  H   H945      1.0  0.96150  0.23308  0.57026  1.0000
  C   C534      1.0  0.87046  0.31075  0.69439  1.0000
  C   C535      1.0  0.89686  0.29287  0.70696  1.0000
  C   C536      1.0  0.89509  0.25848  0.70892  1.0000
  C   C537      1.0  0.86694  0.24179  0.69834  1.0000
  C   C538      1.0  0.84044  0.25973  0.68611  1.0000
  C   C539      1.0  0.84226  0.29409  0.68396  1.0000
  H   H946      1.0  0.91885  0.30548  0.71469  1.0000
  H   H947      1.0  0.91566  0.24480  0.71850  1.0000
  H   H948      1.0  0.81850  0.24730  0.67831  1.0000
  H   H949      1.0  0.82173  0.30777  0.67429  1.0000
  C   C540      1.0  0.56460  0.26722  0.82913  1.0000
  C   C541      1.0  0.55774  0.32761  0.92916  1.0000
  H   H950      1.0  0.57074  0.03009  0.79372  1.0000
  C   C542      1.0  0.53313  0.21164  0.80137  1.0000
  C   C543      1.0  0.56460  0.20915  0.81520  1.0000
  C   C544      1.0  0.58019  0.23670  0.82919  1.0000
  H   H951      1.0  0.83221  0.21640  0.76003  1.0000
  H   H952      1.0  0.57688  0.18572  0.81543  1.0000
  H   H953      1.0  0.75921  0.29266  0.78508  1.0000
  N   N30       1.0  0.92355  0.20402  0.59273  1.0000
  H   H954      1.0  0.84069  0.27452  0.82071  1.0000
  H   H955      1.0  0.90434  0.13671  0.61500  1.0000
  H   H956      1.0  0.74904  0.28883  0.72623  1.0000
  H   H957      1.0  0.51515  0.32010  0.95975  1.0000
  H   H958      1.0  0.77893  0.31944  0.87510  1.0000
  H   H959      1.0  0.90895  0.21416  0.52285  1.0000
  C   C545      1.0  0.82654  0.18690  0.51372  1.0000
  H   H960      1.0  0.77468  0.19377  0.88442  1.0000
  H   H961      1.0  0.74540  0.32024  0.96745  1.0000
  C   C546      1.0  0.90086  0.23301  0.58893  1.0000
  C   C547      1.0  0.91587  0.18059  0.56500  1.0000
  H   H962      1.0  0.70564  0.20245  0.95330  1.0000
  H   H963      1.0  0.88393  0.30840  0.62606  1.0000
  H   H964      1.0  0.52141  0.29344  0.81398  1.0000
  C   C548      1.0  0.92318  0.15082  0.62886  1.0000
  N   N31       1.0  0.61697  0.11649  0.75968  1.0000
  C   C549      1.0  0.59393  0.14188  0.74581  1.0000
  C   C550      1.0  0.59840  0.08460  0.76319  1.0000
  C   C551      1.0  0.62973  0.12848  0.79224  1.0000
  C   C552      1.0  0.64569  0.11082  0.73738  1.0000
  C   C553      1.0  0.63728  0.10422  0.70094  1.0000
  C   C554      1.0  0.60908  0.17598  0.73844  1.0000
  C   C555      1.0  0.65276  0.10447  0.81072  1.0000
  C   C556      1.0  0.57224  0.08355  0.79061  1.0000
  H   H965      1.0  0.69342  0.17492  0.52418  1.0000
  C   C557      1.0  0.66798  0.09536  0.68174  1.0000
  C   C558      1.0  0.58501  0.19791  0.71997  1.0000
  C   C559      1.0  0.65923  0.11621  0.84566  1.0000
  H   H966      1.0  0.57370  0.14660  0.76313  1.0000
  H   H967      1.0  0.58173  0.13259  0.72323  1.0000
  H   H968      1.0  0.58545  0.07857  0.73993  1.0000
  H   H969      1.0  0.61544  0.06366  0.76723  1.0000
  H   H970      1.0  0.60916  0.13552  0.80851  1.0000
  H   H971      1.0  0.64415  0.15143  0.78906  1.0000
  H   H972      1.0  0.66301  0.13185  0.73839  1.0000
  H   H973      1.0  0.66026  0.08951  0.74612  1.0000
  H   H974      1.0  0.62652  0.12639  0.68939  1.0000
  H   H975      1.0  0.61973  0.08361  0.69832  1.0000
  H   H976      1.0  0.61539  0.18870  0.76164  1.0000
  H   H977      1.0  0.63135  0.17400  0.72330  1.0000
  H   H978      1.0  0.67670  0.10298  0.79804  1.0000
  H   H979      1.0  0.64239  0.07938  0.81226  1.0000
  H   H980      1.0  0.68662  0.11508  0.68421  1.0000
  H   H981      1.0  0.55403  0.10347  0.78764  1.0000
  H   H982      1.0  0.93903  0.15369  0.67997  1.0000
  H   H983      1.0  0.72532  0.25200  0.73148  1.0000
  H   H984      1.0  0.67851  0.07193  0.69080  1.0000
  H   H985      1.0  0.92917  0.27317  0.61174  1.0000
  H   H986      1.0  0.96363  0.23208  0.61343  1.0000
  H   H987      1.0  0.56239  0.20154  0.73443  1.0000
  H   H988      1.0  0.59638  0.22231  0.71570  1.0000
  H   H989      1.0  0.57855  0.18693  0.69592  1.0000
  H   H990      1.0  0.67694  0.09952  0.85784  1.0000
  H   H991      1.0  0.66974  0.14134  0.84564  1.0000
  H   H992      1.0  0.63620  0.11628  0.85996  1.0000
  S   S125      1.0  0.51482  0.17618  0.78380  1.0000
  H   H993      1.0  0.90372  0.24486  0.56469  1.0000
  H   H994      1.0  0.86619  0.22553  0.82690  1.0000
  C   C560      1.0  0.71128  0.12479  0.51415  1.0000
  H   H995      1.0  0.98397  0.31755  0.55845  1.0000
  H   H996      1.0  0.77279  0.23699  0.89449  1.0000
  H   H997      1.0  0.52360  0.33194  0.86492  1.0000
  H   H998      1.0  0.82490  0.20239  0.85327  1.0000
  H   H999      1.0  0.87338  0.16778  0.80810  1.0000
  C   C561      1.0  0.68608  0.14909  0.52867  1.0000
  C   C562      1.0  0.68353  0.14487  0.56576  1.0000
  H   H1000     1.0  0.85440  0.27768  0.61404  1.0000
  H   H1001     1.0  0.87798  0.24030  0.78765  1.0000
  H   H1002     1.0  0.98778  0.17900  0.61590  1.0000
  H   H1003     1.0  0.87444  0.31578  0.79553  1.0000
  H   H1004     1.0  0.70339  0.09981  0.52186  1.0000
  H   H1005     1.0  0.73498  0.12866  0.52717  1.0000
  C   C563      1.0  0.90501  0.26103  0.61432  1.0000
  C   C564      1.0  0.87922  0.28762  0.60910  1.0000
  C   C565      1.0  0.78940  0.21637  0.88850  1.0000
  C   C566      1.0  0.55363  0.05097  0.79021  1.0000
  H   H1006     1.0  0.77303  0.20927  0.82336  1.0000
  H   H1007     1.0  0.88986  0.19087  0.63181  1.0000
  H   H1008     1.0  0.80589  0.21214  0.90974  1.0000
  H   H1009     1.0  0.66183  0.09246  0.65541  1.0000
  H   H1010     1.0  0.70777  0.24538  0.96337  1.0000
  H   H1011     1.0  0.51210  0.22739  0.87260  1.0000
  C   C567      1.0  0.74180  0.33123  0.99123  1.0000
  C   C568      1.0  0.52087  0.33311  0.93644  1.0000
  H   H1012     1.0  0.67542  0.11961  0.57204  1.0000
  H   H1013     1.0  0.70758  0.14977  0.57766  1.0000
  H   H1014     1.0  0.66547  0.16254  0.57570  1.0000
  H   H1015     1.0  0.93368  0.14450  0.50887  1.0000
  C   C569      1.0  0.80964  0.22431  0.85819  1.0000
  C   C570      1.0  0.85326  0.32265  0.77988  1.0000
  H   H1016     1.0  0.71080  0.29023  0.74814  1.0000
  H   H1017     1.0  0.92851  0.11301  0.66590  1.0000
  H   H1018     1.0  0.90272  0.25163  0.63962  1.0000
  C   C571      1.0  0.51761  0.24221  0.80110  1.0000
  H   H1019     1.0  0.83956  0.31705  0.87749  1.0000
  C   C572      1.0  0.95829  0.21653  0.59165  1.0000
  C   C573      1.0  0.71416  0.03146  0.74960  1.0000
  C   C574      1.0  0.76161  0.02998  0.71377  1.0000
  N   N32       1.0  0.80489  0.24258  0.79753  1.0000
  C   C575      1.0  0.77952  0.24409  0.77051  1.0000
  C   C576      1.0  0.82946  0.21681  0.78714  1.0000
  H   H1020     1.0  0.60542  0.33648  0.95106  1.0000
  C   C577      1.0  0.82019  0.27579  0.80291  1.0000
  C   C578      1.0  0.83272  0.29267  0.77153  1.0000
  C   C579      1.0  0.75095  0.26862  0.77555  1.0000
  C   C580      1.0  0.86506  0.22008  0.80045  1.0000
  C   C581      1.0  0.88449  0.18864  0.79461  1.0000
  C   C582      1.0  0.73294  0.27526  0.74337  1.0000
  H   H1021     1.0  0.76833  0.21938  0.76667  1.0000
  H   H1022     1.0  0.79124  0.24963  0.74656  1.0000
  H   H1023     1.0  0.81993  0.19181  0.79295  1.0000
  H   H1024     1.0  0.66147  0.14501  0.51785  1.0000
  H   H1025     1.0  0.53553  0.05064  0.81039  1.0000
  H   H1026     1.0  0.76966  0.25082  0.83606  1.0000
  H   H1027     1.0  0.80283  0.29280  0.81500  1.0000
  C   C583      1.0  0.92402  0.19275  0.52990  1.0000
  H   H1028     1.0  0.81201  0.30102  0.75598  1.0000
  H   H1029     1.0  0.84773  0.27560  0.75697  1.0000
  H   H1030     1.0  0.73326  0.25837  0.79332  1.0000
  H   H1031     1.0  0.86263  0.33384  0.75721  1.0000
  H   H1032     1.0  0.98122  0.17110  0.57279  1.0000
  H   H1033     1.0  0.89666  0.14200  0.67411  1.0000
  H   H1034     1.0  0.74473  0.22102  0.96231  1.0000
  C   C584      1.0  0.84480  0.24381  0.51558  1.0000
  H   H1035     1.0  0.56353  0.30107  0.92732  1.0000
  C   C585      1.0  0.92180  0.13937  0.66442  1.0000
  H   H1036     1.0  0.57331  0.32997  0.98030  1.0000
  C   C586      1.0  0.98569  0.19044  0.59134  1.0000
  C   C587      1.0  0.82754  0.33831  0.86715  1.0000
  C   C588      1.0  0.95827  0.29270  0.51993  1.0000
  H   H1037     1.0  0.99825  0.27671  0.55012  1.0000
  H   H1038     1.0  0.75027  0.17661  0.50760  1.0000
  H   H1039     1.0  0.94871  0.31536  0.50820  1.0000
  S   S126      1.0  0.65925  0.33977  0.89733  1.0000
  H   H1040     1.0  0.56480  0.33982  0.90598  1.0000
  C   C589      1.0  0.71379  0.21247  0.00501  1.0000
  Fe  Fe65      1.0  0.76503  0.37967  0.17906  1.0000
  H   H1041     1.0  0.64214  0.59786  0.20280  1.0000
  Fe  Fe66      1.0  0.80840  0.43986  0.16682  1.0000
  S   S127      1.0  0.84438  0.41044  0.13774  1.0000
  S   S128      1.0  0.81672  0.49468  0.17285  1.0000
  Fe  Fe67      1.0  0.79994  0.38718  0.11416  1.0000
  C   C590      1.0  0.97034  0.48745  0.30702  1.0000
  Fe  Fe68      1.0  0.83841  0.37300  0.17764  1.0000
  H   H1042     1.0  0.85301  0.48647  0.06759  1.0000
  S   S129      1.0  0.76406  0.41932  0.14059  1.0000
  S   S130      1.0  0.80501  0.40383  0.20808  1.0000
  C   C591      1.0  0.98133  0.45075  0.35312  1.0000
  C   C592      1.0  0.78567  0.64822  0.21742  1.0000
  Fe  Fe69      1.0  0.91381  0.60566  0.28881  1.0000
  S   S131      1.0  0.94310  0.62639  0.24742  1.0000
  S   S132      1.0  0.90281  0.55110  0.29056  1.0000
  H   H1043     1.0  0.78629  0.41921  0.28092  1.0000
  H   H1044     1.0  0.83418  0.63058  0.22819  1.0000
  H   H1045     1.0  0.89591  0.60111  0.18070  1.0000
  S   S133      1.0  0.87212  0.64064  0.28363  1.0000
  S   S134      1.0  0.93931  0.63641  0.32734  1.0000
  H   H1046     1.0  0.55872  0.34734  0.18378  1.0000
  H   H1047     1.0  0.64102  0.60351  0.24653  1.0000
  C   C593      1.0  0.86993  0.37766  0.25947  1.0000
  C   C594      1.0  0.87102  0.38131  0.29358  1.0000
  C   C595      1.0  0.78609  0.34474  0.32397  1.0000
  H   H1048     1.0  0.81368  0.50142  0.05335  1.0000
  H   H1049     1.0  0.72620  0.56541  0.14317  1.0000
  H   H1050     1.0  0.86487  0.39867  0.24417  1.0000
  H   H1051     1.0  0.86598  0.40494  0.30425  1.0000
  C   C596      1.0  0.84173  0.50950  0.20520  1.0000
  C   C597      1.0  0.84895  0.54318  0.20681  1.0000
  C   C598      1.0  0.86799  0.55598  0.23262  1.0000
  C   C599      1.0  0.87965  0.53530  0.25736  1.0000
  C   C600      1.0  0.87235  0.50162  0.25586  1.0000
  C   C601      1.0  0.85359  0.48871  0.22981  1.0000
  H   H1052     1.0  0.83959  0.55955  0.18822  1.0000
  H   H1053     1.0  0.87332  0.58197  0.23362  1.0000
  H   H1054     1.0  0.88110  0.48546  0.27495  1.0000
  H   H1055     1.0  0.84813  0.46275  0.22892  1.0000
  H   H1056     1.0  0.81575  0.57823  0.13572  1.0000
  N   N33       1.0  0.95535  0.46184  0.32919  1.0000
  C   C602      1.0  0.94333  0.43402  0.30779  1.0000
  C   C603      1.0  0.92700  0.47762  0.34706  1.0000
  H   H1057     1.0  0.90635  0.59342  0.05604  1.0000
  H   H1058     1.0  0.83798  0.63486  0.09101  1.0000
  C   C604      1.0  0.97250  0.42134  0.37537  1.0000
  C   C605      1.0  0.96936  0.41736  0.28586  1.0000
  H   H1059     1.0  0.50855  0.36260  0.14938  1.0000
  C   C606      1.0  0.89725  0.45556  0.35575  1.0000
  C   C607      1.0  0.87376  0.47321  0.37874  1.0000
  H   H1060     1.0  0.78584  0.64658  0.12566  1.0000
  C   C608      1.0  0.95551  0.38649  0.26960  1.0000
  H   H1061     1.0  0.83594  0.55912  0.04934  1.0000
  H   H1062     1.0  0.92353  0.44297  0.29120  1.0000
  H   H1063     1.0  0.93186  0.41436  0.32265  1.0000
  H   H1064     1.0  0.93571  0.48996  0.36983  1.0000
  H   H1065     1.0  0.91608  0.49759  0.33200  1.0000
  H   H1066     1.0  0.95270  0.49403  0.28713  1.0000
  H   H1067     1.0  0.81287  0.60330  0.07533  1.0000
  H   H1068     1.0  0.94690  0.36868  0.28828  1.0000
  H   H1069     1.0  0.71519  0.66779  0.33237  1.0000
  C   C609      1.0  0.88263  0.60617  0.06034  1.0000
  H   H1070     1.0  0.95126  0.42733  0.39091  1.0000
  H   H1071     1.0  0.97710  0.43414  0.26593  1.0000
  H   H1072     1.0  0.68903  0.44022  0.23979  1.0000
  C   C610      1.0  0.66939  0.35211  0.13173  1.0000
  H   H1073     1.0  0.75155  0.54563  0.09254  1.0000
  H   H1074     1.0  0.88338  0.44971  0.33309  1.0000
  H   H1075     1.0  0.90440  0.43216  0.36741  1.0000
  H   H1076     1.0  0.86502  0.49645  0.36749  1.0000
  H   H1077     1.0  0.85226  0.45722  0.38354  1.0000
  H   H1078     1.0  0.88600  0.47871  0.40245  1.0000
  H   H1079     1.0  0.96705  0.39902  0.36076  1.0000
  H   H1080     1.0  0.70859  0.45794  0.27566  1.0000
  C   C611      1.0  0.82951  0.49772  0.07521  1.0000
  H   H1081     1.0  0.66232  0.34697  0.10598  1.0000
  C   C612      1.0  0.90191  0.61230  0.12902  1.0000
  H   H1082     1.0  0.97451  0.37434  0.25472  1.0000
  H   H1083     1.0  0.80085  0.64442  0.30194  1.0000
  H   H1084     1.0  0.75679  0.36500  0.28271  1.0000
  H   H1085     1.0  0.92265  0.61941  0.11303  1.0000
  H   H1086     1.0  0.83394  0.61639  0.14676  1.0000
  H   H1087     1.0  0.72839  0.42565  0.25304  1.0000
  H   H1088     1.0  0.80918  0.40751  0.31687  1.0000
  H   H1089     1.0  0.87500  0.54295  0.06021  1.0000
  C   C613      1.0  0.81282  0.62100  0.34743  1.0000
  C   C614      1.0  0.86606  0.61126  0.02648  1.0000
  C   C615      1.0  0.88504  0.63579  0.00555  1.0000
  C   C616      1.0  0.91599  0.60539  0.16301  1.0000
  H   H1090     1.0  0.71712  0.52010  0.10288  1.0000
  N   N34       1.0  0.86261  0.58782  0.08546  1.0000
  H   H1091     1.0  0.90379  0.56358  0.10841  1.0000
  H   H1092     1.0  0.93234  0.58367  0.16260  1.0000
  Fe  Fe70      1.0  0.96501  0.66054  0.28520  1.0000
  C   C617      1.0  0.73334  0.35921  0.05339  1.0000
  H   H1093     1.0  0.82057  0.59816  0.33488  1.0000
  H   H1094     1.0  0.83509  0.63594  0.35239  1.0000
  H   H1095     1.0  0.80125  0.61435  0.37105  1.0000
  C   C618      1.0  0.78420  0.61978  0.13035  1.0000
  C   C619      1.0  0.81994  0.64842  0.21493  1.0000
  H   H1096     1.0  0.81142  0.53971  0.10024  1.0000
  C   C620      1.0  0.78586  0.40382  0.30334  1.0000
  S   S135      1.0  0.88070  0.36039  0.35648  1.0000
  C   C621      1.0  0.83561  0.67177  0.19531  1.0000
  H   H1097     1.0  0.76698  0.55055  0.15071  1.0000
  H   H1098     1.0  0.66324  0.37792  0.13785  1.0000
  C   C622      1.0  0.81806  0.60414  0.12832  1.0000
  S   S136      1.0  0.87764  0.34297  0.20236  1.0000
  H   H1099     1.0  0.00207  0.56743  0.31107  1.0000
  H   H1100     1.0  0.72987  0.37013  0.07725  1.0000
  H   H1101     1.0  0.99126  0.41023  0.30017  1.0000
  H   H1102     1.0  0.77615  0.35789  0.34559  1.0000
  H   H1103     1.0  0.79990  0.36172  0.27503  1.0000
  H   H1104     1.0  0.67457  0.62007  0.22332  1.0000
  C   C623      1.0  0.74160  0.54308  0.14462  1.0000
  S   S137      1.0  0.79854  0.37739  0.05925  1.0000
  Fe  Fe71      1.0  0.90218  0.66279  0.24377  1.0000
  H   H1105     1.0  0.77397  0.61601  0.15516  1.0000
  C   C624      1.0  0.65736  0.59905  0.22537  1.0000
  N   N35       1.0  0.72296  0.53176  0.20437  1.0000
  C   C625      1.0  0.70823  0.50427  0.22438  1.0000
  C   C626      1.0  0.69932  0.56023  0.20118  1.0000
  C   C627      1.0  0.72891  0.51827  0.17045  1.0000
  C   C628      1.0  0.75524  0.54326  0.21832  1.0000
  C   C629      1.0  0.75472  0.55640  0.25381  1.0000
  C   C630      1.0  0.72979  0.47315  0.22910  1.0000
  C   C631      1.0  0.74215  0.52756  0.11057  1.0000
  C   C632      1.0  0.67613  0.56701  0.23037  1.0000
  C   C633      1.0  0.78939  0.56162  0.26695  1.0000
  C   C634      1.0  0.71277  0.44784  0.25079  1.0000
  C   C635      1.0  0.99485  0.54425  0.29864  1.0000
  H   H1106     1.0  0.68471  0.49622  0.21298  1.0000
  H   H1107     1.0  0.70162  0.51270  0.24925  1.0000
  H   H1108     1.0  0.71290  0.58341  0.19580  1.0000
  H   H1109     1.0  0.68259  0.55651  0.17982  1.0000
  H   H1110     1.0  0.70604  0.50687  0.16064  1.0000
  H   H1111     1.0  0.74739  0.49837  0.17105  1.0000
  H   H1112     1.0  0.77362  0.52336  0.21697  1.0000
  H   H1113     1.0  0.76561  0.56346  0.20324  1.0000
  H   H1114     1.0  0.74240  0.53919  0.27072  1.0000
  H   H1115     1.0  0.74222  0.58054  0.25447  1.0000
  H   H1116     1.0  0.73466  0.46078  0.20546  1.0000
  H   H1117     1.0  0.75351  0.47932  0.24091  1.0000
  C   C636      1.0  0.78141  0.36774  0.29395  1.0000
  C   C637      1.0  0.87893  0.35468  0.31374  1.0000
  H   H1118     1.0  0.65777  0.54695  0.23241  1.0000
  H   H1119     1.0  0.68947  0.56872  0.25391  1.0000
  H   H1120     1.0  0.80284  0.57964  0.25166  1.0000
  H   H1121     1.0  0.78834  0.57115  0.29232  1.0000
  H   H1122     1.0  0.80306  0.53807  0.26734  1.0000
  H   H1123     1.0  0.73288  0.65874  0.29399  1.0000
  C   C638      1.0  0.83270  0.60811  0.09355  1.0000
  H   H1124     1.0  0.93498  0.39305  0.25302  1.0000
  H   H1125     1.0  0.75837  0.50569  0.11043  1.0000
  H   H1126     1.0  0.77374  0.63075  0.23327  1.0000
  C   C639      1.0  0.78885  0.64002  0.32577  1.0000
  C   C640      1.0  0.85293  0.55530  0.07037  1.0000
  C   C641      1.0  0.88435  0.58162  0.11478  1.0000
  H   H1127     1.0  0.88509  0.63357  0.13074  1.0000
  H   H1128     1.0  0.76530  0.41202  0.31897  1.0000
  H   H1129     1.0  0.76719  0.62411  0.32134  1.0000
  H   H1130     1.0  0.98804  0.47118  0.36992  1.0000
  C   C642      1.0  0.83560  0.53026  0.09292  1.0000
  H   H1131     1.0  0.84090  0.62070  0.02937  1.0000
  S   S138      1.0  0.79826  0.34652  0.15108  1.0000
  H   H1132     1.0  0.60859  0.35736  0.15677  1.0000
  H   H1133     1.0  0.81702  0.48032  0.09199  1.0000
  H   H1134     1.0  0.90618  0.66578  0.47425  1.0000
  H   H1135     1.0  0.85040  0.52463  0.11499  1.0000
  H   H1136     1.0  0.88904  0.63110  0.06958  1.0000
  H   H1137     1.0  0.87065  0.56983  0.13497  1.0000
  H   H1138     1.0  0.76668  0.66137  0.06998  1.0000
  H   H1139     1.0  0.97592  0.55018  0.27996  1.0000
  H   H1140     1.0  0.99245  0.47763  0.29470  1.0000
  H   H1141     1.0  0.93034  0.62698  0.17148  1.0000
  S   S139      1.0  0.72167  0.35969  0.20681  1.0000
  H   H1142     1.0  0.96092  0.53213  0.33656  1.0000
  C   C643      1.0  0.76848  0.34543  0.00806  1.0000
  C   C644      1.0  0.77829  0.67244  0.34259  1.0000
  C   C645      1.0  0.87714  0.34735  0.24519  1.0000
  C   C646      1.0  0.76444  0.35932  0.03927  1.0000
  H   H1143     1.0  0.81290  0.34276  0.32866  1.0000
  H   H1144     1.0  0.86493  0.58778  0.01269  1.0000
  H   H1145     1.0  0.76718  0.60855  0.11226  1.0000
  H   H1146     1.0  0.68264  0.34572  0.04734  1.0000
  C   C647      1.0  0.98146  0.51994  0.32378  1.0000
  H   H1147     1.0  0.69633  0.34916  0.13408  1.0000
  H   H1148     1.0  0.88609  0.66014  0.01771  1.0000
  H   H1149     1.0  0.67850  0.66203  0.26620  1.0000
  H   H1150     1.0  0.00443  0.44464  0.34015  1.0000
  C   C648      1.0  0.76691  0.67121  0.20013  1.0000
  C   C649      1.0  0.70662  0.34532  0.03641  1.0000
  H   H1151     1.0  0.76387  0.66491  0.36431  1.0000
  H   H1152     1.0  0.99470  0.39076  0.41289  1.0000
  C   C650      1.0  0.00078  0.41317  0.39863  1.0000
  H   H1153     1.0  0.00125  0.51530  0.34183  1.0000
  H   H1154     1.0  0.65980  0.67156  0.30519  1.0000
  S   S140      1.0  0.72418  0.67219  0.20571  1.0000
  H   H1155     1.0  0.68967  0.42058  0.02535  1.0000
  H   H1156     1.0  0.55697  0.34054  0.12187  1.0000
  Fe  Fe72      1.0  0.96731  0.39659  0.76045  1.0000
  S   S141      1.0  0.93566  0.42103  0.72257  1.0000
  Fe  Fe73      1.0  0.90923  0.38246  0.80517  1.0000
  S   S142      1.0  0.87376  0.40507  0.77010  1.0000
  Fe  Fe74      1.0  0.90168  0.37853  0.73130  1.0000
  Fe  Fe75      1.0  0.91058  0.44512  0.76518  1.0000
  S   S143      1.0  0.89300  0.49782  0.76438  1.0000
  S   S144      1.0  0.94502  0.42435  0.80274  1.0000
  C   C651      1.0  0.90922  0.60086  0.71461  1.0000
  S   S145      1.0  0.78577  0.63305  0.85292  1.0000
  H   H1157     1.0  0.86173  0.60300  0.69077  1.0000
  H   H1158     1.0  0.57615  0.36860  0.95839  1.0000
  S   S146      1.0  0.74833  0.61222  0.92068  1.0000
  C   C652      1.0  0.72555  0.42660  0.98696  1.0000
  Fe  Fe76      1.0  0.79140  0.59409  0.89140  1.0000
  S   S147      1.0  0.80095  0.54000  0.88215  1.0000
  H   H1159     1.0  0.93238  0.55407  0.72107  1.0000
  S   S148      1.0  0.82864  0.62175  0.92123  1.0000
  H   H1160     1.0  0.00252  0.62216  0.73313  1.0000
  C   C653      1.0  0.76386  0.63733  0.76055  1.0000
  H   H1161     1.0  0.98651  0.54547  0.72724  1.0000
  H   H1162     1.0  0.91543  0.56989  0.75730  1.0000
  H   H1163     1.0  0.84486  0.41161  0.83174  1.0000
  H   H1164     1.0  0.84024  0.38552  0.97242  1.0000
  H   H1165     1.0  0.79192  0.46618  0.97613  1.0000
  H   H1166     1.0  0.81318  0.37816  0.73801  1.0000
  C   C654      1.0  0.86939  0.51001  0.79848  1.0000
  C   C655      1.0  0.86150  0.48770  0.82325  1.0000
  C   C656      1.0  0.84091  0.49723  0.84909  1.0000
  C   C657      1.0  0.82850  0.52932  0.85065  1.0000
  C   C658      1.0  0.83727  0.55192  0.82646  1.0000
  C   C659      1.0  0.85748  0.54224  0.80043  1.0000
  H   H1167     1.0  0.87096  0.46298  0.82229  1.0000
  H   H1168     1.0  0.83453  0.47962  0.86779  1.0000
  H   H1169     1.0  0.82790  0.57668  0.82739  1.0000
  H   H1170     1.0  0.86346  0.55977  0.78163  1.0000
  H   H1171     1.0  0.90542  0.62462  0.72698  1.0000
  H   H1172     1.0  0.78530  0.41044  0.97331  1.0000
  H   H1173     1.0  0.89002  0.45816  0.64357  1.0000
  H   H1174     1.0  0.87248  0.63883  0.98158  1.0000
  H   H1175     1.0  0.77634  0.64458  0.73763  1.0000
  S   S149      1.0  0.88923  0.36011  0.85166  1.0000
  N   N36       1.0  0.96360  0.58913  0.74667  1.0000
  H   H1176     1.0  0.74320  0.44190  0.59951  1.0000
  H   H1177     1.0  0.86146  0.58239  0.72962  1.0000
  H   H1178     1.0  0.98849  0.48606  0.79443  1.0000
  H   H1179     1.0  0.79244  0.34544  0.99693  1.0000
  H   H1180     1.0  0.84368  0.63850  0.81784  1.0000
  H   H1181     1.0  0.97005  0.66284  0.81682  1.0000
  H   H1182     1.0  0.75373  0.48064  0.61815  1.0000
  H   H1183     1.0  0.72031  0.45627  0.63422  1.0000
  H   H1184     1.0  0.86264  0.42517  0.63232  1.0000
  H   H1185     1.0  0.79898  0.49160  0.79405  1.0000
  C   C660      1.0  0.83063  0.39126  0.84073  1.0000
  H   H1186     1.0  0.98695  0.61351  0.78755  1.0000
  H   H1187     1.0  0.82471  0.36036  0.93917  1.0000
  H   H1188     1.0  0.75993  0.51125  0.78904  1.0000
  H   H1189     1.0  0.76066  0.45485  0.76574  1.0000
  C   C661      1.0  0.93025  0.57707  0.73569  1.0000
  H   H1190     1.0  0.75237  0.48598  0.73550  1.0000
  Fe  Fe77      1.0  0.78528  0.64268  0.94794  1.0000
  C   C662      1.0  0.85026  0.65923  0.80284  1.0000
  H   H1191     1.0  0.78454  0.41373  0.82860  1.0000
  C   C663      1.0  0.93919  0.63638  0.78184  1.0000
  H   H1192     1.0  0.83311  0.47098  0.65882  1.0000
  H   H1193     1.0  0.93809  0.63808  0.83520  1.0000
  H   H1194     1.0  0.87828  0.56211  0.69413  1.0000
  H   H1195     1.0  0.88882  0.42126  0.66777  1.0000
  H   H1196     1.0  0.79742  0.40753  0.76692  1.0000
  H   H1197     1.0  0.65747  0.66446  0.96358  1.0000
  C   C664      1.0  0.87567  0.58603  0.70688  1.0000
  C   C665      1.0  0.79639  0.39258  0.83933  1.0000
  H   H1198     1.0  0.85946  0.46854  0.69402  1.0000
  H   H1199     1.0  0.99033  0.34726  0.70825  1.0000
  C   C666      1.0  0.98858  0.59722  0.68904  1.0000
  H   H1200     1.0  0.75964  0.41214  0.64945  1.0000
  S   S150      1.0  0.93480  0.35255  0.76669  1.0000
  H   H1201     1.0  0.96379  0.63411  0.71807  1.0000
  H   H1202     1.0  0.79355  0.52294  0.76320  1.0000
  H   H1203     1.0  0.79274  0.43603  0.63299  1.0000
  H   H1204     1.0  0.95260  0.58908  0.79864  1.0000
  C   C667      1.0  0.96185  0.60608  0.77951  1.0000
  N   N37       1.0  0.76220  0.44318  0.93823  1.0000
  C   C668      1.0  0.72801  0.43695  0.95054  1.0000
  C   C669      1.0  0.76117  0.44607  0.90140  1.0000
  C   C670      1.0  0.78257  0.41325  0.94632  1.0000
  C   C671      1.0  0.77823  0.47310  0.95351  1.0000
  C   C672      1.0  0.75559  0.50190  0.96377  1.0000
  C   C673      1.0  0.69054  0.42911  0.99955  1.0000
  C   C674      1.0  0.81780  0.41298  0.93234  1.0000
  C   C675      1.0  0.73781  0.47197  0.88656  1.0000
  C   C676      1.0  0.73839  0.47048  0.84922  1.0000
  C   C677      1.0  0.97934  0.61228  0.72259  1.0000
  C   C678      1.0  0.76759  0.36494  0.75985  1.0000
  H   H1205     1.0  0.65908  0.67062  0.91980  1.0000
  H   H1206     1.0  0.71617  0.41704  0.93585  1.0000
  H   H1207     1.0  0.71221  0.45874  0.94685  1.0000
  H   H1208     1.0  0.78580  0.45216  0.89165  1.0000
  H   H1209     1.0  0.75425  0.42195  0.89051  1.0000
  H   H1210     1.0  0.77004  0.39048  0.93752  1.0000
  C   C679      1.0  0.99576  0.62407  0.66391  1.0000
  C   C680      1.0  0.84636  0.36384  0.85394  1.0000
  H   H1211     1.0  0.79718  0.48328  0.93676  1.0000
  H   H1212     1.0  0.75124  0.61353  0.75641  1.0000
  H   H1213     1.0  0.73923  0.50983  0.94371  1.0000
  C   C681      1.0  0.85024  0.65602  0.76862  1.0000
  C   C682      1.0  0.94431  0.65435  0.81431  1.0000
  H   H1214     1.0  0.83119  0.43581  0.93881  1.0000
  H   H1215     1.0  0.81721  0.41060  0.90536  1.0000
  H   H1216     1.0  0.71213  0.46797  0.89417  1.0000
  H   H1217     1.0  0.74575  0.49696  0.89350  1.0000
  H   H1218     1.0  0.72941  0.44625  0.84041  1.0000
  H   H1219     1.0  0.72242  0.48997  0.83895  1.0000
  H   H1220     1.0  0.76368  0.47453  0.84027  1.0000
  Fe  Fe78      1.0  0.74729  0.65444  0.88515  1.0000
  C   C683      1.0  0.83726  0.38378  0.94543  1.0000
  H   H1221     1.0  0.92099  0.60607  0.69081  1.0000
  H   H1222     1.0  0.95085  0.53267  0.78126  1.0000
  H   H1223     1.0  0.51831  0.35975  0.94176  1.0000
  H   H1224     1.0  0.84264  0.63311  0.75758  1.0000
  H   H1225     1.0  0.91328  0.62825  0.78097  1.0000
  C   C684      1.0  0.73894  0.66318  0.77122  1.0000
  N   N38       1.0  0.79355  0.43905  0.70459  1.0000
  C   C685      1.0  0.77475  0.40993  0.71758  1.0000
  C   C686      1.0  0.77262  0.45578  0.67900  1.0000
  C   C687      1.0  0.82525  0.42711  0.69025  1.0000
  C   C688      1.0  0.80126  0.46343  0.73135  1.0000
  C   C689      1.0  0.77153  0.47535  0.75155  1.0000
  C   C690      1.0  0.79083  0.39102  0.74639  1.0000
  C   C691      1.0  0.84720  0.45391  0.67451  1.0000
  C   C692      1.0  0.76894  0.43745  0.64586  1.0000
  C   C693      1.0  0.74506  0.45527  0.62315  1.0000
  C   C694      1.0  0.78171  0.50195  0.77586  1.0000
  H   H1226     1.0  0.73994  0.49462  0.98463  1.0000
  C   C695      1.0  0.87376  0.43862  0.65326  1.0000
  H   H1227     1.0  0.77084  0.39146  0.69791  1.0000
  H   H1228     1.0  0.74974  0.41740  0.72523  1.0000
  H   H1229     1.0  0.74742  0.45957  0.68844  1.0000
  H   H1230     1.0  0.78184  0.48096  0.67375  1.0000
  H   H1231     1.0  0.82074  0.40698  0.67232  1.0000
  H   H1232     1.0  0.84062  0.41559  0.70947  1.0000
  H   H1233     1.0  0.82002  0.45358  0.74858  1.0000
  H   H1234     1.0  0.81296  0.48574  0.72082  1.0000
  H   H1235     1.0  0.83805  0.34115  0.79242  1.0000
  H   H1236     1.0  0.94340  0.65437  0.76202  1.0000
  Fe  Fe79      1.0  0.82050  0.66181  0.88433  1.0000
  C   C696      1.0  0.77557  0.53176  0.97478  1.0000
  H   H1237     1.0  0.68190  0.45492  0.99856  1.0000
  S   S151      1.0  0.73463  0.36871  0.84755  1.0000
  H   H1238     1.0  0.96890  0.58111  0.67932  1.0000
  S   S152      1.0  0.78295  0.64746  0.00321  1.0000
  H   H1239     1.0  0.86190  0.38351  0.93407  1.0000
  H   H1240     1.0  0.78256  0.63368  0.77997  1.0000
  H   H1241     1.0  0.71879  0.66369  0.75310  1.0000
  S   S153      1.0  0.87220  0.35384  0.69131  1.0000
  C   C697      1.0  0.97760  0.53563  0.77841  1.0000
  H   H1242     1.0  0.72791  0.65445  0.79450  1.0000
  C   C698      1.0  0.77753  0.36659  0.85140  1.0000
  H   H1243     1.0  0.79101  0.54096  0.95444  1.0000
  H   H1244     1.0  0.97366  0.63932  0.65946  1.0000
  H   H1245     1.0  0.74519  0.37650  0.76991  1.0000
  H   H1246     1.0  0.00318  0.61277  0.64038  1.0000
  C   C699      1.0  0.98605  0.55991  0.75038  1.0000
  H   H1247     1.0  0.51314  0.36787  0.88633  1.0000
  H   H1248     1.0  0.73298  0.40063  0.98947  1.0000
  H   H1249     1.0  0.76065  0.34718  0.74042  1.0000
  H   H1250     1.0  0.98765  0.54513  0.80192  1.0000
  H   H1251     1.0  0.67395  0.41330  0.98472  1.0000
  H   H1252     1.0  0.75886  0.55186  0.98222  1.0000
  H   H1253     1.0  0.91029  0.62686  0.00110  1.0000
  H   H1254     1.0  0.74183  0.44156  0.00287  1.0000
  C   C700      1.0  0.99227  0.50169  0.77251  1.0000
  H   H1255     1.0  0.77978  0.35134  0.77999  1.0000
  H   H1256     1.0  0.79150  0.52542  0.99592  1.0000
  C   C701      1.0  0.57931  0.34160  0.95649  1.0000
  H   H1257     1.0  0.98003  0.48964  0.75132  1.0000
  Fe  Fe80      1.0  0.63104  0.74994  0.17646  1.0000
  S   S154      1.0  0.65272  0.79249  0.14912  1.0000
  S   S155      1.0  0.57689  0.74757  0.18864  1.0000
  Fe  Fe81      1.0  0.69793  0.71637  0.18420  1.0000
  S   S156      1.0  0.72396  0.75744  0.15852  1.0000
  H   H1258     1.0  0.82406  0.86135  0.03421  1.0000
  Fe  Fe82      1.0  0.69185  0.79081  0.18784  1.0000
  S   S157      1.0  0.71185  0.83762  0.21045  1.0000
  Fe  Fe83      1.0  0.68258  0.75442  0.12257  1.0000
  S   S158      1.0  0.69116  0.75554  0.06769  1.0000
  S   S159      1.0  0.66876  0.74989  0.21638  1.0000
  S   S160      1.0  0.65765  0.71172  0.14678  1.0000
  Fe  Fe84      1.0  0.78280  0.93966  0.39874  1.0000
  S   S161      1.0  0.74686  0.91053  0.42834  1.0000
  S   S162      1.0  0.77662  0.99507  0.39512  1.0000
  Fe  Fe85      1.0  0.82266  0.87783  0.38206  1.0000
  S   S163      1.0  0.78844  0.84470  0.40911  1.0000
  S   S164      1.0  0.86677  0.85669  0.35637  1.0000
  Fe  Fe86      1.0  0.74898  0.87520  0.38621  1.0000
  S   S165      1.0  0.70477  0.85035  0.36445  1.0000
  Fe  Fe87      1.0  0.79068  0.88322  0.44810  1.0000
  C   C702      1.0  0.52785  0.77989  0.22155  1.0000
  S   S166      1.0  0.78291  0.90555  0.35564  1.0000
  S   S167      1.0  0.82675  0.91544  0.42200  1.0000
  H   H1259     1.0  0.61882  0.95440  0.36538  1.0000
  H   H1260     1.0  0.69414  0.72211  0.30890  1.0000
  H   H1261     1.0  0.95108  0.70705  0.46101  1.0000
  C   C703      1.0  0.56493  0.95030  0.31931  1.0000
  C   C704      1.0  0.86986  0.81341  0.35772  1.0000
  C   C705      1.0  0.88701  0.79687  0.33313  1.0000
  C   C706      1.0  0.88824  0.76239  0.33277  1.0000
  C   C707      1.0  0.87282  0.74416  0.35728  1.0000
  C   C708      1.0  0.85611  0.76070  0.38211  1.0000
  C   C709      1.0  0.85482  0.79514  0.38244  1.0000
  H   H1262     1.0  0.89914  0.81072  0.31415  1.0000
  H   H1263     1.0  0.90139  0.75007  0.31365  1.0000
  H   H1264     1.0  0.84442  0.74690  0.40144  1.0000
  H   H1265     1.0  0.84292  0.80742  0.40239  1.0000
  H   H1266     1.0  0.59027  0.78196  0.08202  1.0000
  C   C710      1.0  0.85286  0.98813  0.33464  1.0000
  C   C711      1.0  0.73173  0.99341  0.34386  1.0000
  H   H1267     1.0  0.81575  0.81056  0.47005  1.0000
  C   C712      1.0  0.91983  0.83372  0.23697  1.0000
  C   C713      1.0  0.71672  0.72531  0.05019  1.0000
  H   H1268     1.0  0.70858  0.75260  0.40975  1.0000
  C   C714      1.0  0.73351  0.70251  0.06958  1.0000
  H   H1269     1.0  0.65201  0.81333  0.02446  1.0000
  H   H1270     1.0  0.84786  0.98812  0.30792  1.0000
  H   H1271     1.0  0.78689  0.79881  0.22844  1.0000
  H   H1272     1.0  0.86373  0.71832  0.02506  1.0000
  H   H1273     1.0  0.73098  0.70319  0.09592  1.0000
  C   C715      1.0  0.93175  0.82098  0.45154  1.0000
  H   H1274     1.0  0.96555  0.72763  0.40860  1.0000
  H   H1275     1.0  0.92833  0.83923  0.26227  1.0000
  H   H1276     1.0  0.76845  0.70956  0.16412  1.0000
  H   H1277     1.0  0.82865  0.71106  0.16080  1.0000
  C   C716      1.0  0.80634  0.80984  0.21304  1.0000
  H   H1278     1.0  0.87601  0.82165  0.21080  1.0000
  C   C717      1.0  0.70726  0.84222  0.25301  1.0000
  C   C718      1.0  0.71862  0.87090  0.26832  1.0000
  C   C719      1.0  0.71773  0.87381  0.30257  1.0000
  C   C720      1.0  0.70521  0.84814  0.32156  1.0000
  C   C721      1.0  0.69261  0.82018  0.30618  1.0000
  C   C722      1.0  0.69388  0.81715  0.27209  1.0000
  H   H1279     1.0  0.72861  0.89062  0.25371  1.0000
  H   H1280     1.0  0.72649  0.89597  0.31421  1.0000
  H   H1281     1.0  0.68233  0.80052  0.32069  1.0000
  H   H1282     1.0  0.68476  0.79523  0.26079  1.0000
  C   C723      1.0  0.56071  0.78061  0.21159  1.0000
  C   C724      1.0  0.57998  0.80790  0.21952  1.0000
  C   C725      1.0  0.56645  0.83431  0.23699  1.0000
  C   C726      1.0  0.53349  0.83390  0.24658  1.0000
  H   H1283     1.0  0.82214  0.70567  0.01774  1.0000
  H   H1284     1.0  0.83825  0.96817  0.34605  1.0000
  H   H1285     1.0  0.60534  0.80874  0.21209  1.0000
  H   H1286     1.0  0.58158  0.85527  0.24276  1.0000
  H   H1287     1.0  0.53595  0.77763  0.13691  1.0000
  C   C727      1.0  0.70236  0.70160  0.29313  1.0000
  H   H1288     1.0  0.59978  0.73872  0.08308  1.0000
  C   C728      1.0  0.90274  0.84460  0.45151  1.0000
  H   H1289     1.0  0.73573  0.96718  0.34303  1.0000
  C   C729      1.0  0.62998  0.79794  0.01990  1.0000
  C   C730      1.0  0.77772  0.70548  0.29130  1.0000
  S   S168      1.0  0.92693  0.69932  0.27685  1.0000
  H   H1290     1.0  0.67836  0.91436  0.38801  1.0000
  C   C731      1.0  0.81389  0.71581  0.29697  1.0000
  H   H1291     1.0  0.54209  0.74593  0.06854  1.0000
  C   C732      1.0  0.82901  0.72995  0.26597  1.0000
  C   C733      1.0  0.97758  0.76822  0.46344  1.0000
  H   H1292     1.0  0.76525  0.72609  0.27848  1.0000
  H   H1293     1.0  0.51282  0.75877  0.21574  1.0000
  H   H1294     1.0  0.74101  0.74564  0.32529  1.0000
  H   H1295     1.0  0.81632  0.73444  0.31649  1.0000
  H   H1296     1.0  0.99745  0.74776  0.36003  1.0000
  H   H1297     1.0  0.54595  0.72667  0.10794  1.0000
  H   H1298     1.0  0.98632  0.78971  0.40094  1.0000
  H   H1299     1.0  0.70626  0.71155  0.36533  1.0000
  H   H1300     1.0  0.84478  0.76106  0.49061  1.0000
  H   H1301     1.0  0.74722  0.76783  0.39506  1.0000
  H   H1302     1.0  0.87920  0.98305  0.33908  1.0000
  C   C734      1.0  0.96481  0.77763  0.38959  1.0000
  H   H1303     1.0  0.59425  0.76086  0.12066  1.0000
  C   C735      1.0  0.97592  0.76399  0.35661  1.0000
  H   H1304     1.0  0.71302  0.71210  0.27050  1.0000
  S   S169      1.0  0.51780  0.86769  0.26891  1.0000
  H   H1305     1.0  0.79111  0.81839  0.00765  1.0000
  H   H1306     1.0  0.98311  0.78448  0.34023  1.0000
  H   H1307     1.0  0.57213  0.82525  0.31191  1.0000
  H   H1308     1.0  0.88724  0.84054  0.47338  1.0000
  H   H1309     1.0  0.61138  0.97085  0.30342  1.0000
  H   H1310     1.0  0.94709  0.82681  0.43010  1.0000
  H   H1311     1.0  0.56924  0.94623  0.34575  1.0000
  N   N39       1.0  0.94584  0.75826  0.44706  1.0000
  N   N40       1.0  0.82789  0.85554  0.25271  1.0000
  C   C736      1.0  0.82246  0.83071  0.27952  1.0000
  C   C737      1.0  0.86423  0.85915  0.24729  1.0000
  C   C738      1.0  0.81537  0.88823  0.26491  1.0000
  C   C739      1.0  0.81016  0.84690  0.22128  1.0000
  C   C740      1.0  0.52863  0.77767  0.11064  1.0000
  C   C741      1.0  0.78762  0.82969  0.29390  1.0000
  C   C742      1.0  0.82242  0.91847  0.24300  1.0000
  C   C743      1.0  0.88286  0.82798  0.23636  1.0000
  C   C744      1.0  0.78304  0.80063  0.31664  1.0000
  C   C745      1.0  0.80184  0.94793  0.25353  1.0000
  H   H1312     1.0  0.83918  0.83590  0.30019  1.0000
  H   H1313     1.0  0.82891  0.80556  0.27180  1.0000
  H   H1314     1.0  0.86925  0.87775  0.22806  1.0000
  H   H1315     1.0  0.87614  0.86845  0.27016  1.0000
  H   H1316     1.0  0.82554  0.89365  0.28976  1.0000
  H   H1317     1.0  0.78834  0.88731  0.26778  1.0000
  H   H1318     1.0  0.78473  0.85681  0.22135  1.0000
  H   H1319     1.0  0.82226  0.85914  0.20020  1.0000
  H   H1320     1.0  0.87797  0.80669  0.25247  1.0000
  H   H1321     1.0  0.78302  0.85195  0.30869  1.0000
  H   H1322     1.0  0.76927  0.82796  0.27403  1.0000
  H   H1323     1.0  0.81679  0.91323  0.21693  1.0000
  H   H1324     1.0  0.84856  0.92570  0.24522  1.0000
  C   C746      1.0  0.66285  0.93669  0.38737  1.0000
  H   H1325     1.0  0.80281  0.79962  0.33531  1.0000
  H   H1326     1.0  0.75931  0.80283  0.32951  1.0000
  H   H1327     1.0  0.78289  0.77797  0.30190  1.0000
  H   H1328     1.0  0.80591  0.95351  0.27985  1.0000
  H   H1329     1.0  0.80868  0.96984  0.23889  1.0000
  H   H1330     1.0  0.77540  0.94284  0.24948  1.0000
  H   H1331     1.0  0.50789  0.81463  0.16402  1.0000
  H   H1332     1.0  0.92664  0.74365  0.39983  1.0000
  C   C747      1.0  0.67191  0.68208  0.28329  1.0000
  H   H1333     1.0  0.98664  0.79202  0.45397  1.0000
  H   H1334     1.0  0.63110  0.77644  0.03654  1.0000
  H   H1335     1.0  0.74239  0.70684  0.39032  1.0000
  H   H1336     1.0  0.92660  0.85436  0.22057  1.0000
  H   H1337     1.0  0.83056  0.74465  0.03717  1.0000
  N   N41       1.0  0.61834  0.91793  0.30435  1.0000
  C   C748      1.0  0.59769  0.88867  0.31384  1.0000
  C   C749      1.0  0.59699  0.94796  0.29913  1.0000
  C   C750      1.0  0.63451  0.90994  0.27215  1.0000
  C   C751      1.0  0.64487  0.92488  0.32917  1.0000
  C   C752      1.0  0.63352  0.93160  0.36453  1.0000
  C   C753      1.0  0.61575  0.85556  0.31856  1.0000
  C   C754      1.0  0.65607  0.93752  0.25718  1.0000
  H   H1338     1.0  0.71064  0.77236  0.37041  1.0000
  H   H1339     1.0  0.90734  0.78150  0.47535  1.0000
  C   C755      1.0  0.59220  0.82879  0.33003  1.0000
  C   C756      1.0  0.66467  0.92979  0.22165  1.0000
  H   H1340     1.0  0.57850  0.88463  0.29492  1.0000
  H   H1341     1.0  0.58424  0.89321  0.33687  1.0000
  C   C757      1.0  0.93368  0.72768  0.46414  1.0000
  C   C758      1.0  0.75702  0.67743  0.02071  1.0000
  H   H1342     1.0  0.61557  0.90276  0.25373  1.0000
  H   H1343     1.0  0.65099  0.88845  0.27460  1.0000
  H   H1344     1.0  0.66281  0.90446  0.32986  1.0000
  H   H1345     1.0  0.65930  0.94682  0.32180  1.0000
  H   H1346     1.0  0.61904  0.91080  0.37432  1.0000
  H   H1347     1.0  0.80042  0.68488  0.35284  1.0000
  H   H1348     1.0  0.62636  0.84679  0.29523  1.0000
  H   H1349     1.0  0.63536  0.85780  0.33723  1.0000
  H   H1350     1.0  0.67940  0.93968  0.27110  1.0000
  H   H1351     1.0  0.64379  0.96175  0.25752  1.0000
  Fe  Fe88      1.0  0.90016  0.67397  0.31732  1.0000
  H   H1352     1.0  0.88087  0.73341  0.45248  1.0000
  C   C759      1.0  0.82649  0.81062  0.49427  1.0000
  H   H1353     1.0  0.65419  0.94165  0.41259  1.0000
  C   C760      1.0  0.81676  0.69338  0.17654  1.0000
  H   H1354     1.0  0.60562  0.80525  0.33263  1.0000
  H   H1355     1.0  0.58154  0.83529  0.35411  1.0000
  H   H1356     1.0  0.77767  0.68528  0.27304  1.0000
  H   H1357     1.0  0.68145  0.94892  0.21202  1.0000
  H   H1358     1.0  0.69779  0.99350  0.30316  1.0000
  H   H1359     1.0  0.64222  0.92939  0.20621  1.0000
  H   H1360     1.0  0.77292  0.81707  0.17194  1.0000
  C   C761      1.0  0.78255  0.69306  0.17895  1.0000
  H   H1361     1.0  0.90190  0.70430  0.42713  1.0000
  H   H1362     1.0  0.93256  0.81123  0.22847  1.0000
  C   C762      1.0  0.72387  0.75587  0.38760  1.0000
  C   C763      1.0  0.72752  0.67935  0.31106  1.0000
  H   H1363     1.0  0.94625  0.82607  0.47407  1.0000
  S   S170      1.0  0.87441  0.70086  0.35825  1.0000
  C   C764      1.0  0.75228  0.72652  0.34112  1.0000
  H   H1364     1.0  0.79370  0.77803  0.17240  1.0000
  H   H1365     1.0  0.54710  0.93151  0.31062  1.0000
  H   H1366     1.0  0.81404  0.75039  0.25623  1.0000
  H   H1367     1.0  0.53690  0.80194  0.10127  1.0000
  C   C765      1.0  0.51422  0.80649  0.23884  1.0000
  H   H1368     1.0  0.81567  0.81446  0.16072  1.0000
  H   H1369     1.0  0.82902  0.79579  0.21734  1.0000
  H   H1370     1.0  0.93201  0.73216  0.49106  1.0000
  H   H1371     1.0  0.82878  0.69436  0.30424  1.0000
  C   C766      1.0  0.92014  0.78467  0.45148  1.0000
  H   H1372     1.0  0.52344  0.79573  0.04714  1.0000
  C   C767      1.0  0.90001  0.71422  0.45233  1.0000
  C   C768      1.0  0.79654  0.80470  0.17730  1.0000
  C   C769      1.0  0.54914  0.75010  0.09440  1.0000
  C   C770      1.0  0.58555  0.75853  0.09504  1.0000
  H   H1373     1.0  0.58861  0.94946  0.27313  1.0000
  N   N42       1.0  0.75892  0.69586  0.32156  1.0000
  H   H1374     1.0  0.88764  0.84133  0.42909  1.0000
  H   H1375     1.0  0.85407  0.73911  0.27131  1.0000
  H   H1376     1.0  0.83077  0.71067  0.24710  1.0000
  C   C771      1.0  0.72037  0.72420  0.01605  1.0000
  H   H1377     1.0  0.67698  0.90559  0.21979  1.0000
  C   C772      1.0  0.95043  0.75015  0.41136  1.0000
  H   H1378     1.0  0.67790  0.95788  0.37922  1.0000
  H   H1379     1.0  0.77561  0.73737  0.35021  1.0000
  C   C773      1.0  0.73030  0.72252  0.37168  1.0000
  H   H1380     1.0  0.00120  0.72006  0.47173  1.0000
  H   H1381     1.0  0.94567  0.79632  0.38464  1.0000
  H   H1382     1.0  0.90076  0.78221  0.43245  1.0000
  H   H1383     1.0  0.95602  0.74978  0.34458  1.0000
  H   H1384     1.0  0.91173  0.87033  0.45205  1.0000
  C   C774      1.0  0.75370  0.67881  0.05486  1.0000
  H   H1385     1.0  0.52531  0.98419  0.32891  1.0000
  H   H1386     1.0  0.65423  0.69849  0.27066  1.0000
  H   H1387     1.0  0.54337  0.98883  0.28907  1.0000
  H   H1388     1.0  0.88469  0.69503  0.49966  1.0000
  C   C775      1.0  0.54876  0.98385  0.31528  1.0000
  H   H1389     1.0  0.97336  0.77240  0.49007  1.0000
  H   H1390     1.0  0.83212  0.80529  0.01414  1.0000
  H   H1391     1.0  0.60788  0.81263  0.02561  1.0000
  S   S171      1.0  0.80034  0.87310  0.50188  1.0000
  C   C776      1.0  0.83893  0.72707  0.01822  1.0000
  C   C777      1.0  0.88825  0.68622  0.47420  1.0000
  S   S172      1.0  0.87847  0.67601  0.19555  1.0000
  H   H1392     1.0  0.86446  0.67678  0.46489  1.0000
  H   H1393     1.0  0.56488  0.00350  0.32518  1.0000
  C   C778      1.0  0.82662  0.85709  0.00749  1.0000
  H   H1394     1.0  0.63647  0.77600  0.92160  1.0000
  C   C779      1.0  0.87040  0.71473  0.79771  1.0000
  Fe  Fe89      1.0  0.94695  0.74756  0.65519  1.0000
  S   S173      1.0  0.91732  0.70664  0.63318  1.0000
  C   C780      1.0  0.61034  0.76988  0.91730  1.0000
  Fe  Fe90      1.0  0.88629  0.79016  0.66559  1.0000
  S   S174      1.0  0.85278  0.75187  0.64506  1.0000
  S   S175      1.0  0.86649  0.83753  0.68577  1.0000
  Fe  Fe91      1.0  0.88271  0.71672  0.67471  1.0000
  Fe  Fe92      1.0  0.89065  0.74686  0.60596  1.0000
  S   S176      1.0  0.87664  0.74635  0.55209  1.0000
  S   S177      1.0  0.91396  0.75540  0.69797  1.0000
  S   S178      1.0  0.92294  0.78713  0.62504  1.0000
  Fe  Fe93      1.0  0.70049  0.85879  0.82180  1.0000
  S   S179      1.0  0.67128  0.82683  0.78802  1.0000
  S   S180      1.0  0.73089  0.83272  0.85958  1.0000
  Fe  Fe94      1.0  0.68255  0.92225  0.78532  1.0000
  S   S181      1.0  0.65120  0.89434  0.74948  1.0000
  S   S182      1.0  0.68653  0.97794  0.78017  1.0000
  Fe  Fe95      1.0  0.63294  0.86567  0.79293  1.0000
  S   S183      1.0  0.57866  0.85732  0.80174  1.0000
  Fe  Fe96      1.0  0.69290  0.85845  0.74861  1.0000
  S   S184      1.0  0.71222  0.83530  0.70227  1.0000
  S   S185      1.0  0.66105  0.89631  0.82924  1.0000
  S   S186      1.0  0.72497  0.88776  0.78230  1.0000
  C   C781      1.0  0.75463  0.69754  0.77744  1.0000
  C   C782      1.0  0.74120  0.97977  0.73978  1.0000
  C   C783      1.0  0.78377  0.94230  0.56567  1.0000
  H   H1395     1.0  0.74323  0.95362  0.74383  1.0000
  C   C784      1.0  0.51415  0.79694  0.84684  1.0000
  C   C785      1.0  0.56148  0.82219  0.82049  1.0000
  C   C786      1.0  0.57722  0.79171  0.82047  1.0000
  C   C787      1.0  0.56127  0.76389  0.83341  1.0000
  C   C788      1.0  0.52956  0.76637  0.84639  1.0000
  C   C789      1.0  0.53003  0.82462  0.83386  1.0000
  H   H1396     1.0  0.60139  0.78950  0.81007  1.0000
  H   H1397     1.0  0.57338  0.74031  0.83303  1.0000
  C   C790      1.0  0.85629  0.78193  0.53773  1.0000
  H   H1398     1.0  0.93220  0.87279  0.66789  1.0000
  C   C791      1.0  0.85337  0.80975  0.55755  1.0000
  C   C792      1.0  0.99494  0.82733  0.70487  1.0000
  H   H1399     1.0  0.86363  0.80969  0.58199  1.0000
  C   C793      1.0  0.75495  0.83781  0.69651  1.0000
  C   C794      1.0  0.77455  0.85899  0.71513  1.0000
  C   C795      1.0  0.80866  0.85926  0.71129  1.0000
  C   C796      1.0  0.82345  0.83854  0.68849  1.0000
  C   C797      1.0  0.80366  0.81924  0.66809  1.0000
  C   C798      1.0  0.76957  0.81867  0.67226  1.0000
  H   H1400     1.0  0.76368  0.87551  0.73226  1.0000
  H   H1401     1.0  0.82359  0.87519  0.72642  1.0000
  H   H1402     1.0  0.81440  0.80533  0.64857  1.0000
  H   H1403     1.0  0.75456  0.80336  0.65659  1.0000
  C   C799      1.0  0.71030  0.72255  0.86203  1.0000
  C   C800      1.0  0.74235  0.73441  0.85998  1.0000
  C   C801      1.0  0.74838  0.76817  0.85854  1.0000
  C   C802      1.0  0.72248  0.79043  0.85908  1.0000
  C   C803      1.0  0.69029  0.77870  0.85997  1.0000
  C   C804      1.0  0.68418  0.74475  0.86145  1.0000
  H   H1404     1.0  0.76258  0.71754  0.85826  1.0000
  H   H1405     1.0  0.77313  0.77700  0.85634  1.0000
  H   H1406     1.0  0.67022  0.79584  0.85984  1.0000
  H   H1407     1.0  0.65931  0.73569  0.86225  1.0000
  H   H1408     1.0  0.75110  0.76344  0.78631  1.0000
  C   C805      1.0  0.69681  0.93221  0.68265  1.0000
  H   H1409     1.0  0.77729  0.74031  0.64081  1.0000
  C   C806      1.0  0.56163  0.74122  0.93657  1.0000
  C   C807      1.0  0.82100  0.81462  0.96219  1.0000
  C   C808      1.0  0.61178  0.82789  0.89350  1.0000
  H   H1410     1.0  0.96088  0.84516  0.64914  1.0000
  H   H1411     1.0  0.74731  0.94348  0.67567  1.0000
  C   C809      1.0  0.95636  0.74671  0.78730  1.0000
  H   H1412     1.0  0.70346  0.77940  0.94258  1.0000
  H   H1413     1.0  0.62799  0.80906  0.96893  1.0000
  H   H1414     1.0  0.70269  0.91185  0.69976  1.0000
  H   H1415     1.0  0.81192  0.83611  0.94791  1.0000
  C   C810      1.0  0.86031  0.68211  0.74874  1.0000
  H   H1416     1.0  0.75430  0.70429  0.65209  1.0000
  H   H1417     1.0  0.57764  0.77843  0.98290  1.0000
  C   C811      1.0  0.65504  0.73849  0.76728  1.0000
  H   H1418     1.0  0.95438  0.80164  0.75089  1.0000
  N   N43       1.0  0.59729  0.74803  0.94410  1.0000
  C   C812      1.0  0.60778  0.81673  0.71750  1.0000
  H   H1419     1.0  0.70184  0.70879  0.72976  1.0000
  H   H1420     1.0  0.70764  0.74184  0.00095  1.0000
  H   H1421     1.0  0.61047  0.79460  0.70188  1.0000
  H   H1422     1.0  0.62619  0.83516  0.70964  1.0000
  H   H1423     1.0  0.72020  0.96087  0.64555  1.0000
  H   H1424     1.0  0.99872  0.90578  0.78437  1.0000
  H   H1425     1.0  0.74260  0.69947  0.97505  1.0000
  H   H1426     1.0  0.52055  0.76171  0.76888  1.0000
  H   H1427     1.0  0.69545  0.81468  0.96817  1.0000
  H   H1428     1.0  0.55309  0.80025  0.75106  1.0000
  H   H1429     1.0  0.87779  0.73767  0.80882  1.0000
  H   H1430     1.0  0.51712  0.83994  0.76773  1.0000
  H   H1431     1.0  0.69167  0.95455  0.69730  1.0000
  H   H1432     1.0  0.52671  0.89999  0.77708  1.0000
  H   H1433     1.0  0.76502  0.82859  0.55106  1.0000
  C   C813      1.0  0.69063  0.73138  0.77640  1.0000
  H   H1434     1.0  0.75238  0.95402  0.52400  1.0000
  H   H1435     1.0  0.55323  0.69286  0.95982  1.0000
  H   H1436     1.0  0.74203  0.81325  0.58549  1.0000
  C   C814      1.0  0.54353  0.71822  0.96093  1.0000
  H   H1437     1.0  0.59719  0.85054  0.88967  1.0000
  H   H1438     1.0  0.94108  0.82663  0.70439  1.0000
  H   H1439     1.0  0.69929  0.75159  0.79238  1.0000
  H   H1440     1.0  0.75308  0.96096  0.60326  1.0000
  S   S187      1.0  0.00201  0.74353  0.65998  1.0000
  H   H1441     1.0  0.80512  0.95394  0.57797  1.0000
  H   H1442     1.0  0.69337  0.68202  0.94504  1.0000
  H   H1443     1.0  0.80620  0.74051  0.79085  1.0000
  H   H1444     1.0  0.71242  0.86594  0.58908  1.0000
  H   H1445     1.0  0.73248  0.88623  0.65290  1.0000
  C   C815      1.0  0.76417  0.71188  0.72041  1.0000
  C   C816      1.0  0.76267  0.75562  0.76304  1.0000
  C   C817      1.0  0.80002  0.75613  0.76948  1.0000
  C   C818      1.0  0.76563  0.73747  0.69247  1.0000
  C   C819      1.0  0.81194  0.79079  0.77738  1.0000
  C   C820      1.0  0.77418  0.72120  0.65994  1.0000
  H   H1446     1.0  0.70831  0.75141  0.73115  1.0000
  H   H1447     1.0  0.75682  0.77558  0.74528  1.0000
  H   H1448     1.0  0.81377  0.74744  0.74788  1.0000
  H   H1449     1.0  0.74200  0.75032  0.68916  1.0000
  H   H1450     1.0  0.78480  0.75601  0.69801  1.0000
  H   H1451     1.0  0.83870  0.79041  0.78211  1.0000
  H   H1452     1.0  0.80719  0.80738  0.75639  1.0000
  H   H1453     1.0  0.79938  0.80051  0.79939  1.0000
  H   H1454     1.0  0.60974  0.70313  0.91896  1.0000
  C   C821      1.0  0.50718  0.71578  0.95260  1.0000
  H   H1455     1.0  0.64040  0.74125  0.78994  1.0000
  H   H1456     1.0  0.61002  0.75657  0.89344  1.0000
  H   H1457     1.0  0.85824  0.76360  0.98557  1.0000
  H   H1458     1.0  0.73269  0.93294  0.57718  1.0000
  H   H1459     1.0  0.78698  0.87546  0.58423  1.0000
  H   H1460     1.0  0.87748  0.73204  0.74860  1.0000
  H   H1461     1.0  0.55904  0.73044  0.91160  1.0000
  H   H1462     1.0  0.79735  0.70713  0.66223  1.0000
  H   H1463     1.0  0.61294  0.81012  0.74339  1.0000
  C   C822      1.0  0.54731  0.80570  0.72500  1.0000
  H   H1464     1.0  0.97290  0.70889  0.71508  1.0000
  S   S188      1.0  0.70290  0.68010  0.86476  1.0000
  C   C823      1.0  0.59983  0.76349  0.97768  1.0000
  H   H1465     1.0  0.75375  0.82867  0.96955  1.0000
  H   H1466     1.0  0.63424  0.83434  0.90752  1.0000
  C   C824      1.0  0.83714  0.83780  0.54580  1.0000
  C   C825      1.0  0.73632  0.86575  0.57650  1.0000
  H   H1467     1.0  0.56897  0.79772  0.89718  1.0000
  H   H1468     1.0  0.51407  0.80431  0.66947  1.0000
  H   H1469     1.0  0.79160  0.91905  0.55427  1.0000
  H   H1470     1.0  0.60530  0.69859  0.96210  1.0000
  H   H1471     1.0  0.98756  0.78652  0.80112  1.0000
  H   H1472     1.0  0.78964  0.70324  0.72497  1.0000
  H   H1473     1.0  0.54574  0.72737  0.98642  1.0000
  C   C826      1.0  0.72574  0.93847  0.65994  1.0000
  C   C827      1.0  0.97848  0.78941  0.74780  1.0000
  H   H1474     1.0  0.76527  0.98935  0.54796  1.0000
  H   H1475     1.0  0.71094  0.82049  0.92755  1.0000
  H   H1476     1.0  0.85251  0.86153  0.00061  1.0000
  C   C828      1.0  0.74025  0.70025  0.00134  1.0000
  H   H1477     1.0  0.98049  0.84942  0.76941  1.0000
  N   N44       1.0  0.76128  0.90999  0.61545  1.0000
  C   C829      1.0  0.76470  0.87679  0.59935  1.0000
  C   C830      1.0  0.79076  0.91711  0.63697  1.0000
  C   C831      1.0  0.73144  0.90852  0.63713  1.0000
  C   C832      1.0  0.75605  0.93695  0.59072  1.0000
  H   H1478     1.0  0.65809  0.72289  0.97367  1.0000
  C   C833      1.0  0.82449  0.90403  0.62548  1.0000
  C   C834      1.0  0.85223  0.91766  0.64672  1.0000
  H   H1479     1.0  0.76804  0.85766  0.61845  1.0000
  H   H1480     1.0  0.79311  0.94404  0.64130  1.0000
  H   H1481     1.0  0.78741  0.90595  0.66165  1.0000
  H   H1482     1.0  0.57009  0.83869  0.68847  1.0000
  C   C835      1.0  0.57337  0.83110  0.71430  1.0000
  H   H1483     1.0  0.55216  0.78261  0.71121  1.0000
  H   H1484     1.0  0.54734  0.76441  0.93607  1.0000
  H   H1485     1.0  0.82514  0.87684  0.62759  1.0000
  H   H1486     1.0  0.82979  0.91041  0.59977  1.0000
  H   H1487     1.0  0.84819  0.91149  0.67287  1.0000
  H   H1488     1.0  0.87579  0.90657  0.63908  1.0000
  H   H1489     1.0  0.85398  0.94474  0.64403  1.0000
  N   N45       1.0  0.80574  0.78349  0.94897  1.0000
  C   C836      1.0  0.80573  0.75593  0.97368  1.0000
  C   C837      1.0  0.77092  0.78918  0.93770  1.0000
  C   C838      1.0  0.82467  0.77218  0.91925  1.0000
  H   H1490     1.0  0.74609  0.78793  0.98567  1.0000
  C   C839      1.0  0.96127  0.84479  0.70257  1.0000
  C   C840      1.0  0.83999  0.74345  0.98460  1.0000
  C   C841      1.0  0.83169  0.79862  0.89264  1.0000
  C   C842      1.0  0.74682  0.80309  0.96320  1.0000
  C   C843      1.0  0.71205  0.80437  0.94942  1.0000
  H   H1491     1.0  0.58346  0.81355  0.93537  1.0000
  C   C844      1.0  0.84798  0.78329  0.86272  1.0000
  H   H1492     1.0  0.79232  0.73431  0.96379  1.0000
  H   H1493     1.0  0.75097  0.68997  0.71079  1.0000
  H   H1494     1.0  0.77001  0.80680  0.91707  1.0000
  H   H1495     1.0  0.76029  0.76586  0.92796  1.0000
  H   H1496     1.0  0.81196  0.75106  0.90731  1.0000
  H   H1497     1.0  0.84919  0.76278  0.92625  1.0000
  C   C845      1.0  0.71230  0.72849  0.74549  1.0000
  C   C846      1.0  0.87053  0.71143  0.76346  1.0000
  N   N46       1.0  0.74846  0.72331  0.75164  1.0000
  C   C847      1.0  0.77293  0.96518  0.53804  1.0000
  H   H1498     1.0  0.84887  0.72488  0.96679  1.0000
  H   H1499     1.0  0.84859  0.81771  0.90227  1.0000
  H   H1500     1.0  0.80934  0.81126  0.88404  1.0000
  C   C848      1.0  0.98489  0.76985  0.77984  1.0000
  S   S189      1.0  0.85861  0.69376  0.86038  1.0000
  H   H1501     1.0  0.99844  0.67730  0.76055  1.0000
  S   S190      1.0  0.85940  0.67719  0.70577  1.0000
  C   C849      1.0  0.95728  0.86245  0.66979  1.0000
  H   H1502     1.0  0.65325  0.76162  0.75302  1.0000
  H   H1503     1.0  0.83550  0.85923  0.56121  1.0000
  H   H1504     1.0  0.74602  0.70631  0.80153  1.0000
  H   H1505     1.0  0.87142  0.77137  0.86966  1.0000
  H   H1506     1.0  0.83167  0.76461  0.85132  1.0000
  H   H1507     1.0  0.85311  0.80260  0.84426  1.0000
  C   C850      1.0  0.59135  0.80250  0.91192  1.0000
  C   C851      1.0  0.74162  0.83061  0.56452  1.0000
  H   H1508     1.0  0.64461  0.71798  0.75265  1.0000
  H   H1509     1.0  0.53057  0.88246  0.71966  1.0000
  C   C852      1.0  0.65222  0.71553  0.94825  1.0000
  H   H1510     1.0  0.78133  0.69385  0.78133  1.0000
  S   S191      1.0  0.78158  0.68571  0.91445  1.0000
  H   H1511     1.0  0.93343  0.76083  0.79081  1.0000
  H   H1512     1.0  0.97518  0.77108  0.72783  1.0000
  C   C853      1.0  0.50712  0.87835  0.73231  1.0000
  H   H1513     1.0  0.61878  0.81837  0.86911  1.0000
  H   H1514     1.0  0.73496  0.88192  0.55466  1.0000
  H   H1515     1.0  0.96157  0.73280  0.81010  1.0000
  H   H1516     1.0  0.66485  0.73185  0.93069  1.0000
  H   H1517     1.0  0.97517  0.88289  0.66774  1.0000
  H   H1518     1.0  0.84797  0.81434  0.95843  1.0000
  H   H1519     1.0  0.79171  0.76268  0.99582  1.0000
  H   H1520     1.0  0.57268  0.85294  0.73039  1.0000
  H   H1521     1.0  0.51831  0.84633  0.67861  1.0000
  N   N47       1.0  0.51177  0.81523  0.72120  1.0000
  H   H1522     1.0  0.70872  0.90622  0.62231  1.0000
  H   H1523     1.0  0.72146  0.82343  0.54766  1.0000
  H   H1524     1.0  0.69083  0.70824  0.79070  1.0000
  C   C854      1.0  0.81653  0.82189  0.99928  1.0000
  C   C855      1.0  0.61474  0.71537  0.94293  1.0000
  H   H1525     1.0  0.95257  0.72882  0.76714  1.0000
  H   H1526     1.0  0.79362  0.96911  0.52094  1.0000
  H   H1527     1.0  0.78331  0.98220  0.70812  1.0000
  C   C856      1.0  0.62934  0.78667  0.98427  1.0000
  H   H1528     1.0  0.95824  0.86337  0.72210  1.0000
  C   C857      1.0  0.84294  0.78255  0.50597  1.0000
  H   H1529     1.0  0.67445  0.92585  0.66845  1.0000
  H   H1530     1.0  0.65289  0.77468  0.97911  1.0000
  C   C858      1.0  0.85975  0.68880  0.81751  1.0000
  C   C859      1.0  0.82326  0.83831  0.51430  1.0000
  C   C860      1.0  0.76387  0.99602  0.71947  1.0000
  C   C861      1.0  0.71605  0.99739  0.75481  1.0000
  H   H1531     1.0  0.51777  0.84806  0.83391  1.0000
  C   C862      1.0  0.66624  0.68104  0.94390  1.0000
  H   H1532     1.0  0.99450  0.80705  0.68661  1.0000
  C   C863      1.0  0.99902  0.70481  0.71545  1.0000
  H   H1533     1.0  0.81066  0.87485  0.99437  1.0000
  H   H1534     1.0  0.60017  0.74403  0.99685  1.0000
  S   S192      1.0  0.50971  0.73097  0.86160  1.0000
  H   H1535     1.0  0.92819  0.67617  0.81528  1.0000
  H   H1536     1.0  0.50533  0.92828  0.75085  1.0000
  C   C864      1.0  0.50526  0.90283  0.76056  1.0000
  N   N48       1.0  0.00444  0.81398  0.73811  1.0000
